DiffSBDD_15
     RDKit          3D

  0  0  0  0  0  0  0  0  0  0999 V3000
M  V30 BEGIN CTAB
M  V30 COUNTS 47 48 0 0 1
M  V30 BEGIN ATOM
M  V30 1 C 11.313147 9.195877 -4.959334 0
M  V30 2 C 10.026931 6.701005 -10.318556 0
M  V30 3 Cl 11.281544 6.773644 -12.661579 0
M  V30 4 C 12.153246 9.068730 -3.922859 0
M  V30 5 C 11.698465 6.565244 -3.809858 0
M  V30 6 C 10.616287 8.263031 -7.218503 0 CFG=2
M  V30 7 N 7.389884 6.349811 -11.646070 0 CFG=2 CHG=1
M  V30 8 C 10.678417 8.020395 -5.694270 0 CFG=1
M  V30 9 O 7.413515 3.770769 -12.160963 0
M  V30 10 C 9.787287 7.184378 -11.762044 0 CFG=1
M  V30 11 P 7.225675 4.798176 -10.854666 0
M  V30 12 C 6.546154 6.604496 -12.814223 0
M  V30 13 C 7.733222 7.306972 -13.461203 0
M  V30 14 N 9.387080 7.559134 -9.300871 0 CHG=1
M  V30 15 O 12.167257 8.605955 -9.042348 0
M  V30 16 O 5.565199 4.757228 -10.787556 0
M  V30 17 C 9.750773 7.192018 -7.918266 0
M  V30 18 C 12.583809 7.737125 -3.343384 0
M  V30 19 C 12.010316 8.547789 -7.828735 0
M  V30 20 C 8.601752 6.516803 -12.474118 0 CFG=2
M  V30 21 C 11.291603 6.654447 -5.291661 0
M  V30 22 H 11.047007 10.184832 -5.310660 0
M  V30 23 H 9.786392 5.644302 -10.181659 0
M  V30 24 H 11.086399 6.799592 -10.128433 0
M  V30 25 H 12.558816 9.950489 -3.451253 0
M  V30 26 H 12.179127 5.612795 -3.606059 0
M  V30 27 H 10.796279 6.528137 -3.204213 0
M  V30 28 H 10.075648 9.190138 -7.339183 0
M  V30 29 H 9.646955 7.991288 -5.357711 0
M  V30 30 H 7.962287 3.049017 -11.898669 0
M  V30 31 H 9.703190 8.272985 -11.796387 0
M  V30 32 H 6.241315 5.695378 -13.346753 0
M  V30 33 H 5.685041 7.244008 -12.615033 0
M  V30 34 H 7.861000 7.083759 -14.525759 0
M  V30 35 H 7.767556 8.383465 -13.283337 0
M  V30 36 H 9.717520 8.500721 -9.438489 0
M  V30 37 H 5.329236 4.723119 -9.869071 0
M  V30 38 H 8.811317 7.080159 -7.375007 0
M  V30 39 H 10.238045 6.216987 -7.879525 0
M  V30 40 H 13.625300 7.575143 -3.609954 0
M  V30 41 H 12.575440 7.809933 -2.255302 0
M  V30 42 H 12.817457 8.700968 -7.112689 0
M  V30 43 H 8.886727 5.565282 -12.931335 0
M  V30 44 H 10.546527 5.886089 -5.470580 0
M  V30 45 H 12.132223 6.385153 -5.926311 0
M  V30 46 H 7.249778 7.092853 -10.954190 0
M  V30 47 H 8.362909 7.590229 -9.384425 0
M  V30 END ATOM
M  V30 BEGIN BOND
M  V30 1 2 4 1
M  V30 2 1 8 1
M  V30 3 1 8 6
M  V30 4 1 10 2
M  V30 5 1 10 3
M  V30 6 1 11 7
M  V30 7 1 11 9
M  V30 8 1 12 7
M  V30 9 1 13 12
M  V30 10 1 14 2
M  V30 11 1 16 11
M  V30 12 1 17 6
M  V30 13 1 17 14
M  V30 14 1 18 4
M  V30 15 1 18 5
M  V30 16 1 19 6
M  V30 17 2 19 15
M  V30 18 1 20 7
M  V30 19 1 20 10
M  V30 20 1 20 13
M  V30 21 1 21 5
M  V30 22 1 21 8
M  V30 23 1 22 1
M  V30 24 1 23 2
M  V30 25 1 24 2
M  V30 26 1 25 4
M  V30 27 1 26 5
M  V30 28 1 27 5
M  V30 29 1 6 28 CFG=1
M  V30 30 1 8 29 CFG=1
M  V30 31 1 30 9
M  V30 32 1 10 31 CFG=1
M  V30 33 1 32 12
M  V30 34 1 33 12
M  V30 35 1 34 13
M  V30 36 1 35 13
M  V30 37 1 36 14
M  V30 38 1 37 16
M  V30 39 1 38 17
M  V30 40 1 39 17
M  V30 41 1 40 18
M  V30 42 1 41 18
M  V30 43 1 42 19
M  V30 44 1 20 43 CFG=3
M  V30 45 1 44 21
M  V30 46 1 45 21
M  V30 47 1 7 46 CFG=1
M  V30 48 1 47 14
M  V30 END BOND
M  V30 END CTAB
M  END
>  <i_epik_Tot_Q>  (1) 
2

>  <i_epik_Tot_abs_Q>  (1) 
2

>  <i_i_glide_confnum>  (1) 
190

>  <i_i_glide_lignum>  (1) 
54

>  <i_i_glide_posenum>  (1) 
354

>  <i_i_glide_rotatable_bonds>  (1) 
10

>  <i_lp_mmshare_version>  (1) 
72125

>  <i_m_source_file_index>  (1) 
16

>  <i_f3d_flags>  (1) 
0

>  <num_sample>  (1) 
50

>  <b_lp_Chiralities_Consistent>  (1) 
1

>  <r_epik_Charging_Adjusted_Penalty>  (1) 
0.82033889234892232

>  <r_epik_Ionization_Penalty>  (1) 
0.44833786363099537

>  <r_epik_Ionization_Penalty_Charging>  (1) 
0.44828572222584073

>  <r_epik_Ionization_Penalty_Neutral>  (1) 
5.214140515465987e-05

>  <r_epik_State_Penalty>  (1) 
0.37205317012308153

>  <r_glide_ring_energy>  (1) 
0

>  <r_i_docking_score>  (1) 
-8.1576332779527263

>  <r_i_glide_ecoul>  (1) 
-19.589865990287279

>  <r_i_glide_eff_state_penalty>  (1) 
0.37205317012308153

>  <r_i_glide_einternal>  (1) 
15.256061742240846

>  <r_i_glide_emodel>  (1) 
-69.862188854708762

>  <r_i_glide_emodel_strain>  (1) 
3.129110830080009

>  <r_i_glide_energy>  (1) 
-45.824502896669429

>  <r_i_glide_erotb>  (1) 
0.99921442309273578

>  <r_i_glide_esite>  (1) 
-0.25389039521856988

>  <r_i_glide_evdw>  (1) 
-26.23463690638215

>  <r_i_glide_gscore>  (1) 
-8.5296864480758074

>  <r_i_glide_gscore_strain>  (1) 
0

>  <r_i_glide_hbond>  (1) 
-0.67599073319307057

>  <r_i_glide_ligand_efficiency>  (1) 
-0.38845872752155841

>  <r_i_glide_ligand_efficiency_ln>  (1) 
-2.0169583439236618

>  <r_i_glide_ligand_efficiency_sa>  (1) 
-1.0717281748854739

>  <r_i_glide_lipo>  (1) 
-2.0341910844150437

>  <r_i_glide_metal>  (1) 
-0

>  <r_i_glide_rewards>  (1) 
-2.3146169144796587

>  <r_lp_Energy>  (1) 
18.968132999999998

>  <r_lp_tautomer_probability>  (1) 
0.99990000499974985

>  <s_epik_cmdline>  (1) 
J2VwaWtfcHl0aG9uJywgJy1waHQnLCAnMS4wJywgJy1waCcsICc3LjQnLCAnLXRuJywgJzgnLCAnLW1hJywgJzUwMCcsICctaW1hZScsICc8aW5maWxlLm1hZT4nLCAnLW9tYWUnLCAnPG91dGZpbGUubWFlPic=

>  <s_epik_input>  (1) 
W0NIMl0xW0NIMl1bQ0gyXVtDSF09W0NIXVtDQEhdMVtDQEBIXShbQ0hdPU8pW0NIMl1bTkhdW0NIMl1bQ0BASF0oQ2wpW0NAQEhdMltDSDJdW0NIMl1OMlAoW09IXSlbT0hd

>  <s_glide_docking_method>  (1) 
confgen

>  <s_i_glide_gridfile>  (1) 
gpcr_drd2_6luq_protein_autoprepared_prepared

>  <s_lp_Force_Field>  (1) 
S-OPLS

>  <s_lp_Variant>  (1) 
DiffSBDD_15-1

>  <s_m_source_file>  (1) 
generated_generic_title2_ligand_DiffSBDD_2026-06-23_prepared.sdf

>  <GenAI_Model>  (1) 
DiffSBDD

>  <Protein>  (1) 
generic_title2

$$$$
DiffSBDD_20
     RDKit          3D

  0  0  0  0  0  0  0  0  0  0999 V3000
M  V30 BEGIN CTAB
M  V30 COUNTS 72 74 0 0 1
M  V30 BEGIN ATOM
M  V30 1 C 6.184234 6.809465 -20.500516 0
M  V30 2 C 6.732166 2.961642 -13.366345 0
M  V30 3 C 6.740255 5.528941 -16.065001 0 CFG=1
M  V30 4 C 6.960407 5.891272 -19.916543 0
M  V30 5 C 5.389405 7.842970 -19.818063 0 CFG=1
M  V30 6 C 9.205590 8.193538 -7.188912 0
M  V30 7 C 9.215567 5.819421 -9.626535 0 CFG=1
M  V30 8 F 4.564095 8.407825 -20.700427 0
M  V30 9 C 7.137186 5.504525 -11.261651 0
M  V30 10 O 10.907845 6.551579 -7.336064 0
M  V30 11 C 6.786564 6.621863 -14.968091 0
M  V30 12 C 8.689812 5.505110 -11.072938 0 CFG=2
M  V30 13 C 11.815695 9.416771 -6.681410 0
M  V30 14 C 7.147073 5.654183 -18.473370 0
M  V30 15 C 6.319110 6.008418 -17.451174 0
M  V30 16 C 5.030438 6.718378 -17.586208 0
M  V30 17 C 9.977470 7.187643 -9.468785 0 CFG=2
M  V30 18 C 7.906096 3.248642 -15.732023 0
M  V30 19 N 7.400564 6.157465 -13.697946 0 CHG=1
M  V30 20 C 8.026266 3.070917 -14.206192 0
M  V30 21 C 12.888513 8.297368 -8.649394 0
M  V30 22 C 6.513010 5.536944 -12.687202 0 CFG=1
M  V30 23 O 9.137915 4.218134 -11.426781 0
M  V30 24 C 10.403419 7.676045 -8.029274 0 CFG=1
M  V30 25 S 8.532965 4.728653 -17.984655 0
M  V30 26 C 4.614517 7.480058 -18.608295 0
M  V30 27 C 11.542240 8.764352 -8.062762 0
M  V30 28 C 5.849947 4.209754 -13.135191 0
M  V30 29 C 8.057402 4.704959 -16.229634 0 CFG=1
M  V30 30 O 9.375414 8.239863 -10.198573 0
M  V30 31 N 8.176175 5.590222 -8.610799 0 CHG=1
M  V30 32 H 6.165323 6.851052 -21.580504 0
M  V30 33 H 7.028458 2.596241 -12.385540 0
M  V30 34 H 6.104681 2.169457 -13.779785 0
M  V30 35 H 5.964254 4.831513 -15.795375 0
M  V30 36 H 7.525067 5.253887 -20.581598 0
M  V30 37 H 6.073435 8.652920 -19.585085 0
M  V30 38 H 8.704983 9.036316 -7.668996 0
M  V30 39 H 9.489526 8.516013 -6.188797 0
M  V30 40 H 8.467402 7.425697 -6.994375 0
M  V30 41 H 9.957522 5.061024 -9.370440 0
M  V30 42 H 6.695792 4.683316 -10.696206 0
M  V30 43 H 6.744175 6.390249 -10.785132 0
M  V30 44 H 11.273287 6.841680 -6.513817 0
M  V30 45 H 7.375368 7.470515 -15.298545 0
M  V30 46 H 5.788028 7.019196 -14.775722 0
M  V30 47 H 9.156129 6.200713 -11.770307 0
M  V30 48 H 11.901239 8.672960 -5.890962 0
M  V30 49 H 11.032902 10.114769 -6.385024 0
M  V30 50 H 12.745627 9.981262 -6.671873 0
M  V30 51 H 4.342446 6.617853 -16.760503 0
M  V30 52 H 10.894876 7.015174 -10.021759 0
M  V30 53 H 8.715848 2.668771 -16.177756 0
M  V30 54 H 6.993007 2.786808 -16.109549 0
M  V30 55 H 8.154292 5.516463 -13.902723 0
M  V30 56 H 8.714069 3.809888 -13.809943 0
M  V30 57 H 8.537545 2.122421 -14.039773 0
M  V30 58 H 13.371562 7.590202 -7.985170 0
M  V30 59 H 13.571301 9.138419 -8.745015 0
M  V30 60 H 12.809440 7.856255 -9.641043 0
M  V30 61 H 5.674582 6.232244 -12.596913 0
M  V30 62 H 10.082831 4.206575 -11.490245 0
M  V30 63 H 3.632996 7.928902 -18.541117 0
M  V30 64 H 11.214867 9.563273 -8.728255 0
M  V30 65 H 5.194306 4.379700 -13.982582 0
M  V30 66 H 5.135526 3.941947 -12.355685 0
M  V30 67 H 8.889482 5.186359 -15.714679 0
M  V30 68 H 8.430913 8.280155 -9.985018 0
M  V30 69 H 7.478946 6.331643 -8.697145 0
M  V30 70 H 8.591949 5.643165 -7.692092 0
M  V30 71 H 7.797188 6.977314 -13.261175 0
M  V30 72 H 7.737655 4.692458 -8.748785 0
M  V30 END ATOM
M  V30 BEGIN BOND
M  V30 1 2 4 1
M  V30 2 1 5 1
M  V30 3 1 8 5
M  V30 4 1 11 3
M  V30 5 1 12 7
M  V30 6 1 12 9
M  V30 7 1 14 4
M  V30 8 1 15 3
M  V30 9 2 15 14
M  V30 10 1 16 15
M  V30 11 1 17 7
M  V30 12 1 19 11
M  V30 13 1 20 2
M  V30 14 1 20 18
M  V30 15 1 22 9
M  V30 16 1 22 19
M  V30 17 1 23 12
M  V30 18 1 24 6
M  V30 19 1 24 10 CFG=1
M  V30 20 1 24 17
M  V30 21 1 25 14
M  V30 22 1 26 5
M  V30 23 2 26 16
M  V30 24 1 27 13
M  V30 25 1 27 21
M  V30 26 1 27 24
M  V30 27 1 28 2
M  V30 28 1 28 22
M  V30 29 1 29 3
M  V30 30 1 29 18
M  V30 31 1 29 25
M  V30 32 1 30 17
M  V30 33 1 31 7
M  V30 34 1 32 1
M  V30 35 1 33 2
M  V30 36 1 34 2
M  V30 37 1 3 35 CFG=1
M  V30 38 1 36 4
M  V30 39 1 5 37 CFG=1
M  V30 40 1 38 6
M  V30 41 1 39 6
M  V30 42 1 40 6
M  V30 43 1 7 41 CFG=1
M  V30 44 1 42 9
M  V30 45 1 43 9
M  V30 46 1 44 10
M  V30 47 1 45 11
M  V30 48 1 46 11
M  V30 49 1 12 47 CFG=3
M  V30 50 1 48 13
M  V30 51 1 49 13
M  V30 52 1 50 13
M  V30 53 1 51 16
M  V30 54 1 17 52 CFG=3
M  V30 55 1 53 18
M  V30 56 1 54 18
M  V30 57 1 55 19
M  V30 58 1 56 20
M  V30 59 1 57 20
M  V30 60 1 58 21
M  V30 61 1 59 21
M  V30 62 1 60 21
M  V30 63 1 22 61 CFG=1
M  V30 64 1 62 23
M  V30 65 1 63 26
M  V30 66 1 64 27
M  V30 67 1 65 28
M  V30 68 1 66 28
M  V30 69 1 29 67 CFG=1
M  V30 70 1 68 30
M  V30 71 1 69 31
M  V30 72 1 70 31
M  V30 73 1 71 19
M  V30 74 1 72 31
M  V30 END BOND
M  V30 END CTAB
M  END
>  <i_epik_Tot_Q>  (1) 
2

>  <i_epik_Tot_abs_Q>  (1) 
2

>  <i_i_glide_confnum>  (1) 
23

>  <i_i_glide_lignum>  (1) 
64

>  <i_i_glide_posenum>  (1) 
387

>  <i_i_glide_rotatable_bonds>  (1) 
9

>  <i_lp_mmshare_version>  (1) 
72125

>  <i_m_source_file_index>  (1) 
21

>  <i_f3d_flags>  (1) 
0

>  <num_sample>  (1) 
50

>  <b_lp_Chiralities_Consistent>  (1) 
1

>  <r_epik_Charging_Adjusted_Penalty>  (1) 
0.28425092081310654

>  <r_epik_Ionization_Penalty>  (1) 
0.14293687999153612

>  <r_epik_Ionization_Penalty_Charging>  (1) 
0.14293530953308087

>  <r_epik_Ionization_Penalty_Neutral>  (1) 
1.5704584552406844e-06

>  <r_epik_State_Penalty>  (1) 
0.14131561128002565

>  <r_glide_ring_energy>  (1) 
0

>  <r_i_docking_score>  (1) 
-8.1568798826420501

>  <r_i_glide_ecoul>  (1) 
-12.965926391803055

>  <r_i_glide_eff_state_penalty>  (1) 
0.14131561128002565

>  <r_i_glide_einternal>  (1) 
15.625523817736138

>  <r_i_glide_emodel>  (1) 
-61.744772048547603

>  <r_i_glide_emodel_strain>  (1) 
1.2381727481059954

>  <r_i_glide_energy>  (1) 
-44.696804309734674

>  <r_i_glide_erotb>  (1) 
0.2698526194302297

>  <r_i_glide_esite>  (1) 
-0.10000000000000001

>  <r_i_glide_evdw>  (1) 
-31.730877917931618

>  <r_i_glide_gscore>  (1) 
-8.2981954939220763

>  <r_i_glide_gscore_strain>  (1) 
0

>  <r_i_glide_hbond>  (1) 
-0.4997130799718712

>  <r_i_glide_ligand_efficiency>  (1) 
-0.26312515750458226

>  <r_i_glide_ligand_efficiency_ln>  (1) 
-1.8396263918829212

>  <r_i_glide_ligand_efficiency_sa>  (1) 
-0.82657627894233276

>  <r_i_glide_lipo>  (1) 
-2.7466977217204649

>  <r_i_glide_metal>  (1) 
-0

>  <r_i_glide_rewards>  (1) 
-1.6902044569929311

>  <r_lp_Energy>  (1) 
51.405214999999998

>  <s_epik_cmdline>  (1) 
J2VwaWtfcHl0aG9uJywgJy1waHQnLCAnMS4wJywgJy1waCcsICc3LjQnLCAnLXRuJywgJzgnLCAnLW1hJywgJzUwMCcsICctaW1hZScsICc8aW5maWxlLm1hZT4nLCAnLW9tYWUnLCAnPG91dGZpbGUubWFlPic=

>  <s_epik_input>  (1) 
W0NIXTE9W0NIXVtDQEhdKEYpW0NIXT1bQ0hdQyg9QzFbQ0BIXTIzKVNbQ0BASF0zW0NIMl1bQ0gyXVtDSDJdW0NIMl1bQ0BIXShbTkhdW0NIMl0yKVtDSDJdW0NASF0oW09IXSlbQ0BIXShbTkgyXSlbQ0BASF0oW09IXSlbQ0BAXShbQ0gzXSkoW09IXSlbQ0hdKFtDSDNdKVtDSDNd

>  <s_glide_docking_method>  (1) 
confgen

>  <s_i_glide_gridfile>  (1) 
gpcr_drd2_6luq_protein_autoprepared_prepared

>  <s_lp_Force_Field>  (1) 
S-OPLS

>  <s_lp_Variant>  (1) 
DiffSBDD_20-1

>  <s_m_source_file>  (1) 
generated_generic_title2_ligand_DiffSBDD_2026-06-23_prepared.sdf

>  <GenAI_Model>  (1) 
DiffSBDD

>  <Protein>  (1) 
generic_title2

$$$$
DiffSBDD_15
     RDKit          3D

  0  0  0  0  0  0  0  0  0  0999 V3000
M  V30 BEGIN CTAB
M  V30 COUNTS 47 48 0 0 1
M  V30 BEGIN ATOM
M  V30 1 C 11.332013 9.211344 -4.948005 0
M  V30 2 C 10.036342 6.701185 -10.330898 0
M  V30 3 Cl 11.271487 6.789352 -12.668830 0
M  V30 4 C 12.154264 9.075677 -3.897224 0
M  V30 5 C 11.691172 6.570830 -3.806412 0
M  V30 6 C 10.638225 8.287545 -7.223737 0 CFG=2
M  V30 7 N 7.378409 6.361463 -11.685725 0 CFG=2 CHG=1
M  V30 8 C 10.713151 8.038662 -5.698979 0 CFG=1
M  V30 9 O 7.252024 3.770500 -12.234700 0
M  V30 10 C 9.781507 7.181063 -11.769375 0 CFG=1
M  V30 11 P 7.187077 4.802726 -10.917106 0
M  V30 12 C 6.540769 6.615592 -12.861150 0
M  V30 13 C 7.738846 7.316610 -13.490153 0
M  V30 14 N 9.408082 7.547492 -9.295496 0 CHG=1
M  V30 15 O 12.081041 8.774054 -9.099747 0
M  V30 16 O 5.521045 4.806654 -10.818814 0
M  V30 17 C 9.824411 7.175627 -7.925955 0
M  V30 18 C 12.576476 7.734677 -3.323156 0
M  V30 19 C 11.993333 8.612980 -7.880976 0
M  V30 20 C 8.597684 6.520388 -12.499115 0 CFG=2
M  V30 21 C 11.297934 6.663474 -5.290670 0
M  V30 22 H 11.065271 10.200886 -5.294356 0
M  V30 23 H 9.798577 5.647970 -10.181941 0
M  V30 24 H 11.108097 6.790179 -10.159432 0
M  V30 25 H 12.545936 9.959109 -3.411576 0
M  V30 26 H 12.171577 5.619839 -3.604677 0
M  V30 27 H 10.789294 6.526197 -3.205861 0
M  V30 28 H 10.048030 9.190487 -7.344930 0
M  V30 29 H 9.676321 8.011204 -5.375529 0
M  V30 30 H 8.063264 3.894165 -12.711976 0
M  V30 31 H 9.720381 8.266781 -11.801365 0
M  V30 32 H 6.259893 5.697493 -13.384716 0
M  V30 33 H 5.667974 7.244416 -12.672908 0
M  V30 34 H 7.845533 7.066188 -14.544088 0
M  V30 35 H 7.763370 8.397444 -13.335441 0
M  V30 36 H 9.753760 8.484612 -9.443793 0
M  V30 37 H 5.282920 4.740620 -9.900658 0
M  V30 38 H 8.911752 6.972762 -7.363346 0
M  V30 39 H 10.388602 6.240675 -7.922339 0
M  V30 40 H 13.619682 7.576445 -3.579836 0
M  V30 41 H 12.551180 7.788069 -2.235684 0
M  V30 42 H 12.845183 8.698736 -7.202937 0
M  V30 43 H 8.890660 5.567661 -12.946384 0
M  V30 44 H 10.526077 5.914266 -5.472597 0
M  V30 45 H 12.137597 6.385370 -5.928185 0
M  V30 46 H 7.258467 7.110482 -11.007836 0
M  V30 47 H 8.370472 7.590243 -9.338907 0
M  V30 END ATOM
M  V30 BEGIN BOND
M  V30 1 2 4 1
M  V30 2 1 8 1
M  V30 3 1 8 6
M  V30 4 1 10 2
M  V30 5 1 10 3
M  V30 6 1 11 7
M  V30 7 1 11 9
M  V30 8 1 12 7
M  V30 9 1 13 12
M  V30 10 1 14 2
M  V30 11 1 16 11
M  V30 12 1 17 6
M  V30 13 1 17 14
M  V30 14 1 18 4
M  V30 15 1 18 5
M  V30 16 1 19 6
M  V30 17 2 19 15
M  V30 18 1 20 7
M  V30 19 1 20 10
M  V30 20 1 20 13
M  V30 21 1 21 5
M  V30 22 1 21 8
M  V30 23 1 22 1
M  V30 24 1 23 2
M  V30 25 1 24 2
M  V30 26 1 25 4
M  V30 27 1 26 5
M  V30 28 1 27 5
M  V30 29 1 6 28 CFG=1
M  V30 30 1 8 29 CFG=1
M  V30 31 1 30 9
M  V30 32 1 10 31 CFG=1
M  V30 33 1 32 12
M  V30 34 1 33 12
M  V30 35 1 34 13
M  V30 36 1 35 13
M  V30 37 1 36 14
M  V30 38 1 37 16
M  V30 39 1 38 17
M  V30 40 1 39 17
M  V30 41 1 40 18
M  V30 42 1 41 18
M  V30 43 1 42 19
M  V30 44 1 20 43 CFG=3
M  V30 45 1 44 21
M  V30 46 1 45 21
M  V30 47 1 7 46 CFG=1
M  V30 48 1 47 14
M  V30 END BOND
M  V30 END CTAB
M  END
>  <i_epik_Tot_Q>  (1) 
2

>  <i_epik_Tot_abs_Q>  (1) 
2

>  <i_i_glide_confnum>  (1) 
190

>  <i_i_glide_lignum>  (1) 
54

>  <i_i_glide_posenum>  (1) 
354

>  <i_i_glide_rotatable_bonds>  (1) 
10

>  <i_lp_mmshare_version>  (1) 
72125

>  <i_m_source_file_index>  (1) 
16

>  <i_f3d_flags>  (1) 
0

>  <num_sample>  (1) 
50

>  <b_lp_Chiralities_Consistent>  (1) 
1

>  <r_epik_Charging_Adjusted_Penalty>  (1) 
0.82033889234892232

>  <r_epik_Ionization_Penalty>  (1) 
0.44833786363099537

>  <r_epik_Ionization_Penalty_Charging>  (1) 
0.44828572222584073

>  <r_epik_Ionization_Penalty_Neutral>  (1) 
5.214140515465987e-05

>  <r_epik_State_Penalty>  (1) 
0.37205317012308153

>  <r_glide_ring_energy>  (1) 
0

>  <r_i_docking_score>  (1) 
-8.118856729878015

>  <r_i_glide_ecoul>  (1) 
-18.882672850176771

>  <r_i_glide_eff_state_penalty>  (1) 
0.37205317012308153

>  <r_i_glide_einternal>  (1) 
14.512560927412093

>  <r_i_glide_emodel>  (1) 
-71.050004706948727

>  <r_i_glide_emodel_strain>  (1) 
2.5285167264886397

>  <r_i_glide_energy>  (1) 
-46.198153945410283

>  <r_i_glide_erotb>  (1) 
0.99921442309273578

>  <r_i_glide_esite>  (1) 
-0.25359462072026773

>  <r_i_glide_evdw>  (1) 
-27.315481095233515

>  <r_i_glide_gscore>  (1) 
-8.4909099000010961

>  <r_i_glide_gscore_strain>  (1) 
0

>  <r_i_glide_hbond>  (1) 
-0.68000049540640317

>  <r_i_glide_ligand_efficiency>  (1) 
-0.38661222523228644

>  <r_i_glide_ligand_efficiency_ln>  (1) 
-2.0073709207675825

>  <r_i_glide_ligand_efficiency_sa>  (1) 
-1.0666338150778583

>  <r_i_glide_lipo>  (1) 
-2.0525130126473625

>  <r_i_glide_metal>  (1) 
-0

>  <r_i_glide_rewards>  (1) 
-2.3058412120316074

>  <r_lp_Energy>  (1) 
18.968132999999998

>  <r_lp_tautomer_probability>  (1) 
0.99990000499974985

>  <s_epik_cmdline>  (1) 
J2VwaWtfcHl0aG9uJywgJy1waHQnLCAnMS4wJywgJy1waCcsICc3LjQnLCAnLXRuJywgJzgnLCAnLW1hJywgJzUwMCcsICctaW1hZScsICc8aW5maWxlLm1hZT4nLCAnLW9tYWUnLCAnPG91dGZpbGUubWFlPic=

>  <s_epik_input>  (1) 
W0NIMl0xW0NIMl1bQ0gyXVtDSF09W0NIXVtDQEhdMVtDQEBIXShbQ0hdPU8pW0NIMl1bTkhdW0NIMl1bQ0BASF0oQ2wpW0NAQEhdMltDSDJdW0NIMl1OMlAoW09IXSlbT0hd

>  <s_glide_docking_method>  (1) 
confgen

>  <s_i_glide_gridfile>  (1) 
gpcr_drd2_6luq_protein_autoprepared_prepared

>  <s_lp_Force_Field>  (1) 
S-OPLS

>  <s_lp_Variant>  (1) 
DiffSBDD_15-1

>  <s_m_source_file>  (1) 
generated_generic_title2_ligand_DiffSBDD_2026-06-23_prepared.sdf

>  <GenAI_Model>  (1) 
DiffSBDD

>  <Protein>  (1) 
generic_title2

$$$$
DiffSBDD_15
     RDKit          3D

  0  0  0  0  0  0  0  0  0  0999 V3000
M  V30 BEGIN CTAB
M  V30 COUNTS 47 48 0 0 1
M  V30 BEGIN ATOM
M  V30 1 C 11.375436 8.949634 -5.135853 0
M  V30 2 C 8.724553 4.983414 -9.339892 0
M  V30 3 Cl 9.052838 3.990215 -11.877273 0
M  V30 4 C 12.283639 9.037900 -4.147067 0
M  V30 5 C 11.827638 6.634758 -3.456543 0
M  V30 6 C 10.368735 7.542913 -7.047401 0 CFG=2
M  V30 7 N 6.404214 6.126434 -12.238336 0 CFG=1 CHG=1
M  V30 8 C 10.685979 7.651612 -5.541279 0 CFG=1
M  V30 9 O 7.493062 8.369753 -11.985024 0
M  V30 10 C 8.347803 5.228967 -10.808185 0 CFG=1
M  V30 11 P 7.606928 7.078418 -13.054529 0
M  V30 12 C 5.991229 4.905433 -12.923498 0
M  V30 13 C 5.963642 4.213241 -11.568027 0
M  V30 14 N 8.975478 6.289175 -8.691635 0 CHG=1
M  V30 15 O 11.499284 7.591191 -9.173646 0
M  V30 16 O 6.634889 7.590075 -14.312557 0
M  V30 17 C 9.593093 6.239888 -7.358748 0
M  V30 18 C 12.738974 7.858214 -3.306154 0
M  V30 19 C 11.591360 7.741563 -7.955238 0
M  V30 20 C 6.818519 5.370679 -11.041418 0 CFG=2
M  V30 21 C 11.352557 6.406837 -4.903526 0
M  V30 22 H 11.101751 9.837304 -5.688050 0
M  V30 23 H 7.951517 4.425487 -8.808733 0
M  V30 24 H 9.641697 4.393277 -9.290708 0
M  V30 25 H 12.733138 9.990223 -3.919527 0
M  V30 26 H 12.330456 5.745271 -3.078778 0
M  V30 27 H 10.975397 6.765125 -2.799585 0
M  V30 28 H 9.704419 8.377398 -7.278704 0
M  V30 29 H 9.694843 7.721957 -5.132296 0
M  V30 30 H 7.375343 8.089384 -11.073422 0
M  V30 31 H 8.896467 6.130848 -11.068558 0
M  V30 32 H 5.022290 4.986807 -13.417060 0
M  V30 33 H 6.754746 4.506807 -13.594129 0
M  V30 34 H 4.975407 4.184742 -11.113766 0
M  V30 35 H 6.421429 3.225300 -11.584743 0
M  V30 36 H 9.634849 6.791369 -9.273068 0
M  V30 37 H 7.135140 8.185183 -14.851950 0
M  V30 38 H 8.805882 6.061893 -6.624565 0
M  V30 39 H 10.279348 5.394572 -7.306499 0
M  V30 40 H 13.755784 7.590254 -3.585013 0
M  V30 41 H 12.777205 8.162368 -2.258988 0
M  V30 42 H 12.516905 8.019027 -7.450615 0
M  V30 43 H 6.319614 5.827443 -10.187822 0
M  V30 44 H 10.635526 5.590299 -4.883138 0
M  V30 45 H 12.175413 6.057790 -5.521739 0
M  V30 46 H 5.588169 6.685848 -12.032289 0
M  V30 47 H 8.110319 6.837806 -8.666284 0
M  V30 END ATOM
M  V30 BEGIN BOND
M  V30 1 2 4 1
M  V30 2 1 8 1
M  V30 3 1 8 6
M  V30 4 1 10 2
M  V30 5 1 10 3
M  V30 6 1 11 7
M  V30 7 1 11 9
M  V30 8 1 12 7
M  V30 9 1 13 12
M  V30 10 1 14 2
M  V30 11 1 16 11
M  V30 12 1 17 6
M  V30 13 1 17 14
M  V30 14 1 18 4
M  V30 15 1 18 5
M  V30 16 1 19 6
M  V30 17 2 19 15
M  V30 18 1 20 7
M  V30 19 1 20 10
M  V30 20 1 20 13
M  V30 21 1 21 5
M  V30 22 1 21 8
M  V30 23 1 22 1
M  V30 24 1 23 2
M  V30 25 1 24 2
M  V30 26 1 25 4
M  V30 27 1 26 5
M  V30 28 1 27 5
M  V30 29 1 6 28 CFG=3
M  V30 30 1 8 29 CFG=1
M  V30 31 1 30 9
M  V30 32 1 10 31 CFG=3
M  V30 33 1 32 12
M  V30 34 1 33 12
M  V30 35 1 34 13
M  V30 36 1 35 13
M  V30 37 1 36 14
M  V30 38 1 37 16
M  V30 39 1 38 17
M  V30 40 1 39 17
M  V30 41 1 40 18
M  V30 42 1 41 18
M  V30 43 1 42 19
M  V30 44 1 20 43 CFG=1
M  V30 45 1 44 21
M  V30 46 1 45 21
M  V30 47 1 7 46 CFG=1
M  V30 48 1 47 14
M  V30 END BOND
M  V30 END CTAB
M  END
>  <i_epik_Tot_Q>  (1) 
2

>  <i_epik_Tot_abs_Q>  (1) 
2

>  <i_i_glide_confnum>  (1) 
111

>  <i_i_glide_lignum>  (1) 
55

>  <i_i_glide_posenum>  (1) 
324

>  <i_i_glide_rotatable_bonds>  (1) 
10

>  <i_lp_mmshare_version>  (1) 
72125

>  <i_m_source_file_index>  (1) 
16

>  <i_f3d_flags>  (1) 
0

>  <num_sample>  (1) 
50

>  <b_lp_Chiralities_Consistent>  (1) 
1

>  <r_epik_Charging_Adjusted_Penalty>  (1) 
0.82033889234892232

>  <r_epik_Ionization_Penalty>  (1) 
0.44833786363099537

>  <r_epik_Ionization_Penalty_Charging>  (1) 
0.44828572222584073

>  <r_epik_Ionization_Penalty_Neutral>  (1) 
5.214140515465987e-05

>  <r_epik_State_Penalty>  (1) 
0.37205317012308153

>  <r_glide_ring_energy>  (1) 
0

>  <r_i_docking_score>  (1) 
-7.8370676554315448

>  <r_i_glide_ecoul>  (1) 
-12.75825172196371

>  <r_i_glide_eff_state_penalty>  (1) 
0.37205317012308153

>  <r_i_glide_einternal>  (1) 
14.942630811102255

>  <r_i_glide_emodel>  (1) 
-64.846853652454271

>  <r_i_glide_emodel_strain>  (1) 
1.4454862753089408

>  <r_i_glide_energy>  (1) 
-42.337401745929441

>  <r_i_glide_erotb>  (1) 
0.69945009616491505

>  <r_i_glide_esite>  (1) 
-0.15759983543200595

>  <r_i_glide_evdw>  (1) 
-29.579150023965735

>  <r_i_glide_gscore>  (1) 
-8.209120825554626

>  <r_i_glide_gscore_strain>  (1) 
0

>  <r_i_glide_hbond>  (1) 
-0.41497414984563463

>  <r_i_glide_ligand_efficiency>  (1) 
-0.37319369787769263

>  <r_i_glide_ligand_efficiency_ln>  (1) 
-1.9376991415191325

>  <r_i_glide_ligand_efficiency_sa>  (1) 
-1.0296131155478381

>  <r_i_glide_lipo>  (1) 
-2.170834780428021

>  <r_i_glide_metal>  (1) 
-0

>  <r_i_glide_rewards>  (1) 
-2.7724668965210366

>  <r_lp_Energy>  (1) 
21.773961

>  <r_lp_tautomer_probability>  (1) 
0.99990000499974985

>  <s_epik_cmdline>  (1) 
J2VwaWtfcHl0aG9uJywgJy1waHQnLCAnMS4wJywgJy1waCcsICc3LjQnLCAnLXRuJywgJzgnLCAnLW1hJywgJzUwMCcsICctaW1hZScsICc8aW5maWxlLm1hZT4nLCAnLW9tYWUnLCAnPG91dGZpbGUubWFlPic=

>  <s_epik_input>  (1) 
W0NIMl0xW0NIMl1bQ0gyXVtDSF09W0NIXVtDQEhdMVtDQEBIXShbQ0hdPU8pW0NIMl1bTkhdW0NIMl1bQ0BASF0oQ2wpW0NAQEhdMltDSDJdW0NIMl1OMlAoW09IXSlbT0hd

>  <s_glide_docking_method>  (1) 
confgen

>  <s_i_glide_gridfile>  (1) 
gpcr_drd2_6luq_protein_autoprepared_prepared

>  <s_lp_Force_Field>  (1) 
S-OPLS

>  <s_lp_Variant>  (1) 
DiffSBDD_15-2

>  <s_m_source_file>  (1) 
generated_generic_title2_ligand_DiffSBDD_2026-06-23_prepared.sdf

>  <GenAI_Model>  (1) 
DiffSBDD

>  <Protein>  (1) 
generic_title2

$$$$
DiffSBDD_25
     RDKit          3D

  0  0  0  0  0  0  0  0  0  0999 V3000
M  V30 BEGIN CTAB
M  V30 COUNTS 44 46 0 0 1
M  V30 BEGIN ATOM
M  V30 1 C 9.694931 7.459786 -7.234566 0 CFG=2
M  V30 2 C 11.775292 7.089300 -4.020407 0
M  V30 3 C 12.258943 8.397552 -3.853788 0
M  V30 4 C 10.604680 7.773040 -6.066607 0
M  V30 5 N 7.564797 8.790226 -11.585018 0 CHG=1
M  V30 6 N 9.375421 7.256055 -9.741731 0 CHG=1
M  V30 7 C 11.108144 9.080246 -5.893810 0
M  V30 8 C 9.330643 6.034084 -7.607969 0
M  V30 9 C 6.351012 6.727607 -12.207424 0
M  V30 10 C 7.622957 7.575828 -12.412149 0 CFG=2
M  V30 11 C 9.504330 6.347707 -10.907359 0 CFG=1
M  V30 12 C 10.160109 6.860110 -8.550043 0 CFG=2
M  V30 13 C 11.929639 9.390069 -4.792813 0
M  V30 14 C 8.753785 4.401564 -12.145201 0
M  V30 15 C 9.054386 5.562470 -13.111499 0
M  V30 16 C 8.862121 4.970688 -10.724865 0
M  V30 17 C 10.951222 6.776152 -5.122217 0
M  V30 18 C 8.999344 6.856368 -12.277676 0 CFG=1
M  V30 19 H 8.889185 8.192597 -7.269933 0
M  V30 20 H 12.029411 6.323052 -3.303156 0
M  V30 21 H 12.887954 8.638987 -3.008400 0
M  V30 22 H 7.372574 8.489075 -10.612197 0
M  V30 23 H 8.407155 9.336230 -11.668269 0
M  V30 24 H 8.384718 7.344289 -9.484971 0
M  V30 25 H 10.858214 9.848978 -6.605541 0
M  V30 26 H 9.857348 5.190374 -7.185387 0
M  V30 27 H 8.291308 5.842479 -7.869718 0
M  V30 28 H 6.321585 5.860378 -12.866375 0
M  V30 29 H 6.252685 6.372508 -11.183738 0
M  V30 30 H 5.458155 7.314424 -12.425948 0
M  V30 31 H 7.575659 7.930739 -13.441253 0
M  V30 32 H 10.575410 6.213275 -11.057679 0
M  V30 33 H 11.214928 6.651116 -8.706108 0
M  V30 34 H 12.305441 10.390223 -4.671186 0
M  V30 35 H 9.465066 3.587904 -12.297053 0
M  V30 36 H 7.758631 3.989048 -12.314101 0
M  V30 37 H 10.063919 5.433736 -13.507093 0
M  V30 38 H 8.388321 5.576775 -13.976878 0
M  V30 39 H 9.444908 4.322946 -10.067720 0
M  V30 40 H 7.870657 5.066471 -10.281064 0
M  V30 41 H 10.576008 5.771831 -5.235131 0
M  V30 42 H 9.743979 7.548761 -12.673810 0
M  V30 43 H 6.778661 9.351561 -11.877855 0
M  V30 44 H 9.712057 8.167149 -10.009998 0
M  V30 END ATOM
M  V30 BEGIN BOND
M  V30 1 2 3 2
M  V30 2 1 4 1
M  V30 3 1 7 4
M  V30 4 1 8 1
M  V30 5 1 10 5
M  V30 6 1 10 9
M  V30 7 1 11 6
M  V30 8 1 12 1
M  V30 9 1 12 6
M  V30 10 1 12 8
M  V30 11 1 13 3
M  V30 12 2 13 7
M  V30 13 1 15 14
M  V30 14 1 16 11
M  V30 15 1 16 14
M  V30 16 1 17 2
M  V30 17 2 17 4
M  V30 18 1 18 10
M  V30 19 1 18 11
M  V30 20 1 18 15
M  V30 21 1 1 19 CFG=3
M  V30 22 1 20 2
M  V30 23 1 21 3
M  V30 24 1 22 5
M  V30 25 1 23 5
M  V30 26 1 24 6
M  V30 27 1 25 7
M  V30 28 1 26 8
M  V30 29 1 27 8
M  V30 30 1 28 9
M  V30 31 1 29 9
M  V30 32 1 30 9
M  V30 33 1 10 31 CFG=3
M  V30 34 1 11 32 CFG=3
M  V30 35 1 12 33 CFG=3
M  V30 36 1 34 13
M  V30 37 1 35 14
M  V30 38 1 36 14
M  V30 39 1 37 15
M  V30 40 1 38 15
M  V30 41 1 39 16
M  V30 42 1 40 16
M  V30 43 1 41 17
M  V30 44 1 18 42 CFG=3
M  V30 45 1 43 5
M  V30 46 1 44 6
M  V30 END BOND
M  V30 END CTAB
M  END
>  <i_epik_Tot_Q>  (1) 
2

>  <i_epik_Tot_abs_Q>  (1) 
2

>  <i_i_glide_confnum>  (1) 
95

>  <i_i_glide_lignum>  (1) 
73

>  <i_i_glide_posenum>  (1) 
270

>  <i_i_glide_rotatable_bonds>  (1) 
4

>  <i_lp_mmshare_version>  (1) 
72125

>  <i_m_source_file_index>  (1) 
26

>  <i_f3d_flags>  (1) 
0

>  <num_sample>  (1) 
50

>  <b_lp_Chiralities_Consistent>  (1) 
1

>  <r_epik_Charging_Adjusted_Penalty>  (1) 
0.43880639721899328

>  <r_epik_Ionization_Penalty>  (1) 
0.22252539232578136

>  <r_epik_Ionization_Penalty_Charging>  (1) 
0.22252539232578136

>  <r_epik_Ionization_Penalty_Neutral>  (1) 
0

>  <r_epik_State_Penalty>  (1) 
0.21628100489321189

>  <r_glide_ring_energy>  (1) 
0.378465553984697

>  <r_i_docking_score>  (1) 
-7.5836533751267012

>  <r_i_glide_ecoul>  (1) 
-14.911368474942975

>  <r_i_glide_eff_state_penalty>  (1) 
0.21628100489321189

>  <r_i_glide_einternal>  (1) 
4.7974542121130987

>  <r_i_glide_emodel>  (1) 
-66.239168966389968

>  <r_i_glide_emodel_strain>  (1) 
0.84321903448589808

>  <r_i_glide_energy>  (1) 
-41.194563382958769

>  <r_i_glide_erotb>  (1) 
0.86113592628682767

>  <r_i_glide_esite>  (1) 
-0.20000000000000001

>  <r_i_glide_evdw>  (1) 
-26.283194908015794

>  <r_i_glide_gscore>  (1) 
-7.7999343800199128

>  <r_i_glide_gscore_strain>  (1) 
0

>  <r_i_glide_hbond>  (1) 
-0.32774425110222705

>  <r_i_glide_ligand_efficiency>  (1) 
-0.42131407639592783

>  <r_i_glide_ligand_efficiency_ln>  (1) 
-1.9493389956202514

>  <r_i_glide_ligand_efficiency_sa>  (1) 
-1.1041552399736976

>  <r_i_glide_lipo>  (1) 
-2.0588674706924821

>  <r_i_glide_metal>  (1) 
-0

>  <r_i_glide_rewards>  (1) 
-2.5235935678697947

>  <r_lp_Energy>  (1) 
41.614444999999996

>  <s_epik_cmdline>  (1) 
J2VwaWtfcHl0aG9uJywgJy1waHQnLCAnMS4wJywgJy1waCcsICc3LjQnLCAnLXRuJywgJzgnLCAnLW1hJywgJzUwMCcsICctaW1hZScsICc8aW5maWxlLm1hZT4nLCAnLW9tYWUnLCAnPG91dGZpbGUubWFlPic=

>  <s_epik_input>  (1) 
W2NIXTFbY0hdW2NIXVtjSF1bY0hdYzFbQ0BIXTJbQ0gyXVtDQEhdMltOSF1bQ0BIXTNbQ0gyXVtDSDJdW0NIMl1bQ0BIXTNbQ0BIXShbTkgyXSlbQ0gzXQ==

>  <s_glide_docking_method>  (1) 
confgen

>  <s_i_glide_gridfile>  (1) 
gpcr_drd2_6luq_protein_autoprepared_prepared

>  <s_lp_Force_Field>  (1) 
S-OPLS

>  <s_lp_Variant>  (1) 
DiffSBDD_25-2

>  <s_m_source_file>  (1) 
generated_generic_title2_ligand_DiffSBDD_2026-06-23_prepared.sdf

>  <GenAI_Model>  (1) 
DiffSBDD

>  <Protein>  (1) 
generic_title2

$$$$
DiffSBDD_15
     RDKit          3D

  0  0  0  0  0  0  0  0  0  0999 V3000
M  V30 BEGIN CTAB
M  V30 COUNTS 47 48 0 0 1
M  V30 BEGIN ATOM
M  V30 1 C 11.375735 9.116840 -4.957925 0
M  V30 2 C 9.227124 5.876561 -9.978015 0
M  V30 3 Cl 10.770884 6.790452 -11.985398 0
M  V30 4 C 12.194590 9.018161 -3.897382 0
M  V30 5 C 11.673189 6.524107 -3.680587 0
M  V30 6 C 10.541955 8.065642 -7.159626 0 CFG=2
M  V30 7 N 7.406319 4.764245 -12.679316 0 CFG=1 CHG=1
M  V30 8 C 10.691064 7.920329 -5.620516 0 CFG=1
M  V30 9 O 6.176346 4.215783 -10.525894 0
M  V30 10 C 9.167377 6.186562 -11.488966 0 CFG=1
M  V30 11 P 6.146390 5.420596 -11.674253 0
M  V30 12 C 7.612244 5.456081 -13.951398 0
M  V30 13 C 9.047145 4.972622 -13.866025 0
M  V30 14 N 9.375445 7.105348 -9.174011 0 CHG=1
M  V30 15 O 12.064280 8.015063 -9.037505 0
M  V30 16 O 5.121447 4.389897 -12.483518 0
M  V30 17 C 9.781424 6.864407 -7.773188 0
M  V30 18 C 12.550237 7.706297 -3.224146 0
M  V30 19 C 11.881137 8.350035 -7.866129 0
M  V30 20 C 8.833628 4.945682 -12.345885 0 CFG=2
M  V30 21 C 11.308924 6.573275 -5.173630 0
M  V30 22 H 11.168865 10.088637 -5.383417 0
M  V30 23 H 8.331988 5.363594 -9.639726 0
M  V30 24 H 10.057827 5.195991 -9.787540 0
M  V30 25 H 12.641631 9.910794 -3.483087 0
M  V30 26 H 12.176019 5.590106 -3.449129 0
M  V30 27 H 10.758545 6.480523 -3.091108 0
M  V30 28 H 9.926468 8.950894 -7.329034 0
M  V30 29 H 9.685017 7.932734 -5.220238 0
M  V30 30 H 5.751231 4.538885 -9.735648 0
M  V30 31 H 8.476365 7.007508 -11.689251 0
M  V30 32 H 7.038356 5.042252 -14.781753 0
M  V30 33 H 7.512052 6.541382 -13.885613 0
M  V30 34 H 9.162695 3.990334 -14.310577 0
M  V30 35 H 9.817822 5.638908 -14.244000 0
M  V30 36 H 10.088350 7.674891 -9.613433 0
M  V30 37 H 4.874650 3.712598 -11.868814 0
M  V30 38 H 8.884119 6.629058 -7.203260 0
M  V30 39 H 10.416902 5.979897 -7.727268 0
M  V30 40 H 13.597019 7.502646 -3.435207 0
M  V30 41 H 12.470124 7.829121 -2.141364 0
M  V30 42 H 12.630604 8.857449 -7.263284 0
M  V30 43 H 9.255922 4.030027 -11.928667 0
M  V30 44 H 10.596596 5.776245 -5.370695 0
M  V30 45 H 12.175694 6.335965 -5.780004 0
M  V30 46 H 7.224786 3.789931 -12.866962 0
M  V30 47 H 8.462932 7.590228 -9.185909 0
M  V30 END ATOM
M  V30 BEGIN BOND
M  V30 1 2 4 1
M  V30 2 1 8 1
M  V30 3 1 8 6
M  V30 4 1 10 2
M  V30 5 1 10 3
M  V30 6 1 11 7
M  V30 7 1 11 9
M  V30 8 1 12 7
M  V30 9 1 13 12
M  V30 10 1 14 2
M  V30 11 1 16 11
M  V30 12 1 17 6
M  V30 13 1 17 14
M  V30 14 1 18 4
M  V30 15 1 18 5
M  V30 16 1 19 6
M  V30 17 2 19 15
M  V30 18 1 20 7
M  V30 19 1 20 10
M  V30 20 1 20 13
M  V30 21 1 21 5
M  V30 22 1 21 8
M  V30 23 1 22 1
M  V30 24 1 23 2
M  V30 25 1 24 2
M  V30 26 1 25 4
M  V30 27 1 26 5
M  V30 28 1 27 5
M  V30 29 1 6 28 CFG=1
M  V30 30 1 8 29 CFG=1
M  V30 31 1 30 9
M  V30 32 1 10 31 CFG=1
M  V30 33 1 32 12
M  V30 34 1 33 12
M  V30 35 1 34 13
M  V30 36 1 35 13
M  V30 37 1 36 14
M  V30 38 1 37 16
M  V30 39 1 38 17
M  V30 40 1 39 17
M  V30 41 1 40 18
M  V30 42 1 41 18
M  V30 43 1 42 19
M  V30 44 1 20 43 CFG=1
M  V30 45 1 44 21
M  V30 46 1 45 21
M  V30 47 1 7 46 CFG=3
M  V30 48 1 47 14
M  V30 END BOND
M  V30 END CTAB
M  END
>  <i_epik_Tot_Q>  (1) 
2

>  <i_epik_Tot_abs_Q>  (1) 
2

>  <i_i_glide_confnum>  (1) 
22

>  <i_i_glide_lignum>  (1) 
55

>  <i_i_glide_posenum>  (1) 
164

>  <i_i_glide_rotatable_bonds>  (1) 
10

>  <i_lp_mmshare_version>  (1) 
72125

>  <i_m_source_file_index>  (1) 
16

>  <i_f3d_flags>  (1) 
0

>  <num_sample>  (1) 
50

>  <b_lp_Chiralities_Consistent>  (1) 
1

>  <r_epik_Charging_Adjusted_Penalty>  (1) 
0.82033889234892232

>  <r_epik_Ionization_Penalty>  (1) 
0.44833786363099537

>  <r_epik_Ionization_Penalty_Charging>  (1) 
0.44828572222584073

>  <r_epik_Ionization_Penalty_Neutral>  (1) 
5.214140515465987e-05

>  <r_epik_State_Penalty>  (1) 
0.37205317012308153

>  <r_glide_ring_energy>  (1) 
0

>  <r_i_docking_score>  (1) 
-7.5779720814439209

>  <r_i_glide_ecoul>  (1) 
-15.39805724188615

>  <r_i_glide_eff_state_penalty>  (1) 
0.37205317012308153

>  <r_i_glide_einternal>  (1) 
2.9289315786580445

>  <r_i_glide_emodel>  (1) 
-71.63777350690691

>  <r_i_glide_emodel_strain>  (1) 
2.0236438612084768

>  <r_i_glide_energy>  (1) 
-44.691502315574141

>  <r_i_glide_erotb>  (1) 
0.99921442309273578

>  <r_i_glide_esite>  (1) 
-0.14159127666184998

>  <r_i_glide_evdw>  (1) 
-29.293445073687987

>  <r_i_glide_gscore>  (1) 
-7.950025251567002

>  <r_i_glide_gscore_strain>  (1) 
0

>  <r_i_glide_hbond>  (1) 
-0.52000000000000002

>  <r_i_glide_ligand_efficiency>  (1) 
-0.3608558134020915

>  <r_i_glide_ligand_efficiency_ln>  (1) 
-1.8736382844025965

>  <r_i_glide_ligand_efficiency_sa>  (1) 
-0.99557382778270465

>  <r_i_glide_lipo>  (1) 
-2.2584435162561847

>  <r_i_glide_metal>  (1) 
-0

>  <r_i_glide_rewards>  (1) 
-2.254824041774381

>  <r_lp_Energy>  (1) 
21.773961

>  <r_lp_tautomer_probability>  (1) 
0.99990000499974985

>  <s_epik_cmdline>  (1) 
J2VwaWtfcHl0aG9uJywgJy1waHQnLCAnMS4wJywgJy1waCcsICc3LjQnLCAnLXRuJywgJzgnLCAnLW1hJywgJzUwMCcsICctaW1hZScsICc8aW5maWxlLm1hZT4nLCAnLW9tYWUnLCAnPG91dGZpbGUubWFlPic=

>  <s_epik_input>  (1) 
W0NIMl0xW0NIMl1bQ0gyXVtDSF09W0NIXVtDQEhdMVtDQEBIXShbQ0hdPU8pW0NIMl1bTkhdW0NIMl1bQ0BASF0oQ2wpW0NAQEhdMltDSDJdW0NIMl1OMlAoW09IXSlbT0hd

>  <s_glide_docking_method>  (1) 
confgen

>  <s_i_glide_gridfile>  (1) 
gpcr_drd2_6luq_protein_autoprepared_prepared

>  <s_lp_Force_Field>  (1) 
S-OPLS

>  <s_lp_Variant>  (1) 
DiffSBDD_15-2

>  <s_m_source_file>  (1) 
generated_generic_title2_ligand_DiffSBDD_2026-06-23_prepared.sdf

>  <GenAI_Model>  (1) 
DiffSBDD

>  <Protein>  (1) 
generic_title2

$$$$
DiffSBDD_28
     RDKit          3D

  0  0  0  0  0  0  0  0  0  0999 V3000
M  V30 BEGIN CTAB
M  V30 COUNTS 79 86 0 0 1
M  V30 BEGIN ATOM
M  V30 1 F 11.600167 8.667254 -9.986906 0
M  V30 2 C 5.878192 6.707011 -19.050060 0 CFG=1
M  V30 3 C 6.454698 5.713483 -15.452135 0 CFG=2
M  V30 4 C 7.800657 5.289791 -20.473025 0 CFG=2
M  V30 5 C 7.278041 5.064673 -10.872208 0 CFG=1
M  V30 6 C 4.733703 5.705253 -19.213828 0
M  V30 7 C 7.870798 5.874274 -13.325571 0 CFG=2
M  V30 8 C 9.436426 7.113813 -8.540341 0 CFG=1
M  V30 9 C 6.083605 7.202378 -15.351929 0
M  V30 10 C 8.684239 5.390417 -10.353230 0 CFG=1
M  V30 11 C 6.518457 7.702325 -20.907777 0 CFG=1
M  V30 12 C 8.777559 5.360060 -15.616306 0
M  V30 13 C 6.908792 6.457584 -20.153098 0 CFG=1
M  V30 14 O 5.966769 7.398607 -22.171310 0
M  V30 15 C 11.783692 7.989384 -8.800726 0 CFG=1
M  V30 16 C 6.885949 5.298715 -12.320399 0 CFG=1
M  V30 17 O 7.205087 3.997267 -11.836233 0
M  V30 18 N 7.649881 5.272378 -14.677598 0 CFG=2 CHG=1
M  V30 19 O 9.249134 3.958172 -21.819833 0
M  V30 20 C 11.882797 8.913197 -7.664057 0
M  V30 21 O 8.296245 6.458165 -19.799045 0
M  V30 22 C 9.428998 6.282446 -11.375862 0
M  V30 23 C 5.544112 8.033489 -19.779060 0
M  V30 24 N 6.415854 6.790171 -17.656828 0
M  V30 25 C 8.332706 5.038827 -21.864394 0
M  V30 26 N 8.975380 7.319144 -7.160047 0 CHG=1
M  V30 27 C 9.314802 5.708293 -12.788473 0
M  V30 28 C 8.651453 5.989939 -6.630438 0
M  V30 29 C 8.449374 5.081031 -7.854350 0
M  V30 30 O 11.390381 8.852760 -6.536533 0
M  V30 31 C 8.229873 5.075273 -17.003905 0
M  V30 32 C 10.931934 6.779255 -8.492157 0
M  V30 33 O 12.975180 8.271465 -7.985104 0
M  V30 34 N 8.575509 5.990225 -8.992181 0 CFG=1 CHG=1
M  V30 35 C 5.515078 7.469677 -16.737681 0
M  V30 36 C 9.686477 3.566396 -23.109849 0
M  V30 37 C 6.762371 5.530510 -16.960942 0 CFG=1
M  V30 38 H 5.589455 5.118718 -15.162533 0
M  V30 39 H 7.679445 4.407783 -19.847821 0
M  V30 40 H 6.479143 5.026316 -10.132289 0
M  V30 41 H 4.362991 5.694618 -20.238534 0
M  V30 42 H 5.017456 4.674457 -19.011650 0
M  V30 43 H 3.889406 5.990476 -18.589479 0
M  V30 44 H 7.694194 6.946502 -13.366969 0
M  V30 45 H 9.250640 8.007696 -9.139729 0
M  V30 46 H 6.959947 7.836652 -15.214695 0
M  V30 47 H 5.375452 7.414095 -14.550741 0
M  V30 48 H 9.223965 4.446458 -10.264042 0
M  V30 49 H 7.317590 8.439277 -21.007373 0
M  V30 50 H 9.632540 4.736114 -15.351701 0
M  V30 51 H 9.078527 6.389948 -15.600288 0
M  V30 52 H 5.820720 8.220042 -22.617262 0
M  V30 53 H 5.829196 5.459724 -12.527397 0
M  V30 54 H 9.024318 7.296455 -11.370208 0
M  V30 55 H 10.486153 6.390155 -11.147551 0
M  V30 56 H 5.775122 8.941845 -19.232046 0
M  V30 57 H 4.510660 8.095376 -20.122684 0
M  V30 58 H 7.493674 4.794714 -22.516569 0
M  V30 59 H 8.807126 5.941121 -22.253269 0
M  V30 60 H 8.087580 7.814131 -7.197778 0
M  V30 61 H 9.621416 4.660323 -12.793804 0
M  V30 62 H 10.040725 6.227111 -13.404018 0
M  V30 63 H 7.773506 6.000069 -5.986268 0
M  V30 64 H 9.509764 5.670666 -6.042901 0
M  V30 65 H 7.497529 4.550930 -7.853624 0
M  V30 66 H 9.251305 4.347696 -7.928129 0
M  V30 67 H 8.282324 4.004676 -17.209377 0
M  V30 68 H 8.845217 5.579237 -17.743400 0
M  V30 69 H 11.233113 6.353224 -7.532077 0
M  V30 70 H 11.143126 5.991255 -9.184777 0
M  V30 71 H 5.453909 8.536749 -16.947187 0
M  V30 72 H 4.507094 7.060734 -16.803759 0
M  V30 73 H 10.358686 2.713705 -23.021590 0
M  V30 74 H 8.847784 3.269253 -23.741446 0
M  V30 75 H 10.226497 4.373248 -23.606589 0
M  V30 76 H 6.175667 4.706901 -17.338054 0
M  V30 77 H 7.524607 4.282510 -14.517821 0
M  V30 78 H 9.638438 7.824566 -6.584566 0
M  V30 79 H 7.694221 6.515280 -9.065344 0
M  V30 END ATOM
M  V30 BEGIN BOND
M  V30 1 1 2 6 CFG=1
M  V30 2 1 9 3
M  V30 3 1 10 5
M  V30 4 1 13 2
M  V30 5 1 13 4
M  V30 6 1 13 11
M  V30 7 1 14 11
M  V30 8 1 15 1 CFG=3
M  V30 9 1 16 5
M  V30 10 1 16 7
M  V30 11 1 17 5
M  V30 12 1 17 16
M  V30 13 1 18 3
M  V30 14 1 18 7
M  V30 15 1 18 12
M  V30 16 1 20 15
M  V30 17 1 21 4
M  V30 18 1 13 21 CFG=1
M  V30 19 1 22 10
M  V30 20 1 23 2
M  V30 21 1 23 11
M  V30 22 1 24 2
M  V30 23 1 25 4
M  V30 24 1 25 19
M  V30 25 1 26 8
M  V30 26 1 27 7
M  V30 27 1 27 22
M  V30 28 1 28 26
M  V30 29 1 29 28
M  V30 30 2 30 20
M  V30 31 1 31 12
M  V30 32 1 32 8
M  V30 33 1 32 15
M  V30 34 1 33 15
M  V30 35 1 33 20
M  V30 36 1 34 8
M  V30 37 1 34 10
M  V30 38 1 34 29
M  V30 39 1 35 9
M  V30 40 1 35 24
M  V30 41 1 36 19
M  V30 42 1 37 3
M  V30 43 1 37 24
M  V30 44 1 37 31
M  V30 45 1 3 38 CFG=1
M  V30 46 1 4 39 CFG=1
M  V30 47 1 5 40 CFG=1
M  V30 48 1 41 6
M  V30 49 1 42 6
M  V30 50 1 43 6
M  V30 51 1 7 44 CFG=3
M  V30 52 1 8 45 CFG=3
M  V30 53 1 46 9
M  V30 54 1 47 9
M  V30 55 1 10 48 CFG=1
M  V30 56 1 11 49 CFG=3
M  V30 57 1 50 12
M  V30 58 1 51 12
M  V30 59 1 52 14
M  V30 60 1 16 53 CFG=1
M  V30 61 1 54 22
M  V30 62 1 55 22
M  V30 63 1 56 23
M  V30 64 1 57 23
M  V30 65 1 58 25
M  V30 66 1 59 25
M  V30 67 1 60 26
M  V30 68 1 61 27
M  V30 69 1 62 27
M  V30 70 1 63 28
M  V30 71 1 64 28
M  V30 72 1 65 29
M  V30 73 1 66 29
M  V30 74 1 67 31
M  V30 75 1 68 31
M  V30 76 1 69 32
M  V30 77 1 70 32
M  V30 78 1 71 35
M  V30 79 1 72 35
M  V30 80 1 73 36
M  V30 81 1 74 36
M  V30 82 1 75 36
M  V30 83 1 37 76 CFG=3
M  V30 84 1 18 77 CFG=1
M  V30 85 1 78 26
M  V30 86 1 34 79 CFG=3
M  V30 END BOND
M  V30 END CTAB
M  END
>  <i_epik_Tot_Q>  (1) 
3

>  <i_epik_Tot_abs_Q>  (1) 
3

>  <i_i_glide_confnum>  (1) 
275

>  <i_i_glide_lignum>  (1) 
79

>  <i_i_glide_posenum>  (1) 
273

>  <i_i_glide_rotatable_bonds>  (1) 
8

>  <i_lp_mmshare_version>  (1) 
72125

>  <i_m_source_file_index>  (1) 
29

>  <i_f3d_flags>  (1) 
0

>  <num_sample>  (1) 
50

>  <b_lp_Chiralities_Consistent>  (1) 
1

>  <r_epik_Charging_Adjusted_Penalty>  (1) 
2.5241965566360229

>  <r_epik_Ionization_Penalty>  (1) 
2.0480993089750741

>  <r_epik_Ionization_Penalty_Charging>  (1) 
2.0477503768466887

>  <r_epik_Ionization_Penalty_Neutral>  (1) 
0.00034893212838530931

>  <r_epik_State_Penalty>  (1) 
0.4764461797893344

>  <r_glide_ring_energy>  (1) 
0.8191457475608499

>  <r_i_docking_score>  (1) 
-7.576224744212027

>  <r_i_glide_ecoul>  (1) 
-11.536681296682882

>  <r_i_glide_eff_state_penalty>  (1) 
0.4764461797893344

>  <r_i_glide_einternal>  (1) 
13.761181156323616

>  <r_i_glide_emodel>  (1) 
-51.313647594103507

>  <r_i_glide_emodel_strain>  (1) 
1.6143099278050386

>  <r_i_glide_energy>  (1) 
-33.046097035655634

>  <r_i_glide_erotb>  (1) 
0.31289092967319998

>  <r_i_glide_esite>  (1) 
-0.27435811423924561

>  <r_i_glide_evdw>  (1) 
-21.509415738972748

>  <r_i_glide_gscore>  (1) 
-8.0526709240013616

>  <r_i_glide_gscore_strain>  (1) 
0

>  <r_i_glide_hbond>  (1) 
-0.37275724374257141

>  <r_i_glide_ligand_efficiency>  (1) 
-0.20476283092464936

>  <r_i_glide_ligand_efficiency_ln>  (1) 
-1.6431055351118338

>  <r_i_glide_ligand_efficiency_sa>  (1) 
-0.6823151796120025

>  <r_i_glide_lipo>  (1) 
-2.0657834793699941

>  <r_i_glide_metal>  (1) 
-0

>  <r_i_glide_rewards>  (1) 
-2.8466900348716817

>  <r_lp_Energy>  (1) 
81.803054000000003

>  <s_epik_Chemistry_Notes>  (1) 
This compound has an ester and may undergo hydrolysis at high or low pH. This compound contains an acetal/aminal-like group ( X-CH(R)-Y where X, Y are N, S, or O) that may be acid/base labile, releasing an aldehyde.

>  <s_epik_cmdline>  (1) 
J2VwaWtfcHl0aG9uJywgJy1waHQnLCAnMS4wJywgJy1waCcsICc3LjQnLCAnLXRuJywgJzgnLCAnLW1hJywgJzUwMCcsICctaW1hZScsICc8aW5maWxlLm1hZT4nLCAnLW9tYWUnLCAnPG91dGZpbGUubWFlPic=

>  <s_epik_input>  (1) 
Tz1DKE8xKUMxKEYpW0NIMl1bQ0BASF0yW05IXVtDSDJdW0NIMl1OMltDQEBIXTNbQ0gyXVtDSDJdW0NASF0oW0NAQEhdKE80KVtDQEhdMzQpTjVbQ0gyXVtDSDJdW0NAQEhdKFtDQEhdNTYpTihbQ0gyXVtDSDJdNilbQ0BAXShbQ0gzXSkoW0NIMl1bQ0BASF03W09IXSlbQ0BAXTc4W0NASF0oTzgpW0NIMl1PW0NIM10=

>  <s_glide_docking_method>  (1) 
confgen

>  <s_i_glide_gridfile>  (1) 
gpcr_drd2_6luq_protein_autoprepared_prepared

>  <s_lp_Force_Field>  (1) 
S-OPLS

>  <s_lp_Variant>  (1) 
DiffSBDD_28-2

>  <s_m_source_file>  (1) 
generated_generic_title2_ligand_DiffSBDD_2026-06-23_prepared.sdf

>  <GenAI_Model>  (1) 
DiffSBDD

>  <Protein>  (1) 
generic_title2

$$$$
DiffSBDD_25
     RDKit          3D

  0  0  0  0  0  0  0  0  0  0999 V3000
M  V30 BEGIN CTAB
M  V30 COUNTS 44 46 0 0 1
M  V30 BEGIN ATOM
M  V30 1 C 9.690474 7.486691 -7.302211 0 CFG=2
M  V30 2 C 11.960901 9.397016 -4.883295 0
M  V30 3 C 12.278734 8.408056 -3.938079 0
M  V30 4 C 10.606225 7.793631 -6.138453 0
M  V30 5 N 6.374465 6.175449 -11.585025 0 CHG=1
M  V30 6 N 9.375410 7.290640 -9.844641 0 CHG=1
M  V30 7 C 10.940363 6.796855 -5.185024 0
M  V30 8 C 9.382226 6.059365 -7.698881 0
M  V30 9 C 6.759081 7.190227 -13.782453 0
M  V30 10 C 7.295735 7.037458 -12.347063 0 CFG=2
M  V30 11 C 9.476568 6.284869 -10.938964 0 CFG=1
M  V30 12 C 10.172777 6.942145 -8.637583 0 CFG=2
M  V30 13 C 11.775410 7.106400 -4.090292 0
M  V30 14 C 8.908816 4.135549 -11.937376 0
M  V30 15 C 9.032956 5.226606 -13.010778 0
M  V30 16 C 9.048483 4.850269 -10.585388 0
M  V30 17 C 11.131219 9.092798 -5.977972 0
M  V30 18 C 8.788657 6.574137 -12.296715 0 CFG=1
M  V30 19 H 8.856005 8.186687 -7.308626 0
M  V30 20 H 12.352696 10.390227 -4.770082 0
M  V30 21 H 12.915641 8.647440 -3.098714 0
M  V30 22 H 6.492523 5.207152 -11.844937 0
M  V30 23 H 6.559277 6.305732 -10.594630 0
M  V30 24 H 8.390366 7.444787 -9.585025 0
M  V30 25 H 10.549302 5.799516 -5.286336 0
M  V30 26 H 9.940917 5.228443 -7.280052 0
M  V30 27 H 8.339245 5.842684 -7.923467 0
M  V30 28 H 7.375408 7.872120 -14.368800 0
M  V30 29 H 6.700809 6.245139 -14.320155 0
M  V30 30 H 5.744841 7.590226 -13.775635 0
M  V30 31 H 7.240781 8.022416 -11.881324 0
M  V30 32 H 10.541463 6.261291 -11.175367 0
M  V30 33 H 11.233793 6.762216 -8.800161 0
M  V30 34 H 12.021205 6.342968 -3.365969 0
M  V30 35 H 9.680686 3.375689 -12.071473 0
M  V30 36 H 7.947232 3.625277 -12.001139 0
M  V30 37 H 10.055515 5.216736 -13.392607 0
M  V30 38 H 8.399792 5.026885 -13.872470 0
M  V30 39 H 9.775411 4.347689 -9.947012 0
M  V30 40 H 8.097117 4.836371 -10.054149 0
M  V30 41 H 10.891902 9.860420 -6.694198 0
M  V30 42 H 9.367223 7.356334 -12.785025 0
M  V30 43 H 5.422783 6.464625 -11.758927 0
M  V30 44 H 9.719432 8.172613 -10.192887 0
M  V30 END ATOM
M  V30 BEGIN BOND
M  V30 1 2 3 2
M  V30 2 1 4 1
M  V30 3 1 7 4
M  V30 4 1 8 1
M  V30 5 1 10 5
M  V30 6 1 10 9
M  V30 7 1 11 6
M  V30 8 1 12 1
M  V30 9 1 12 6
M  V30 10 1 12 8
M  V30 11 1 13 3
M  V30 12 2 13 7
M  V30 13 1 15 14
M  V30 14 1 16 11
M  V30 15 1 16 14
M  V30 16 1 17 2
M  V30 17 2 17 4
M  V30 18 1 18 10
M  V30 19 1 18 11
M  V30 20 1 18 15
M  V30 21 1 1 19 CFG=3
M  V30 22 1 20 2
M  V30 23 1 21 3
M  V30 24 1 22 5
M  V30 25 1 23 5
M  V30 26 1 24 6
M  V30 27 1 25 7
M  V30 28 1 26 8
M  V30 29 1 27 8
M  V30 30 1 28 9
M  V30 31 1 29 9
M  V30 32 1 30 9
M  V30 33 1 10 31 CFG=1
M  V30 34 1 11 32 CFG=3
M  V30 35 1 12 33 CFG=3
M  V30 36 1 34 13
M  V30 37 1 35 14
M  V30 38 1 36 14
M  V30 39 1 37 15
M  V30 40 1 38 15
M  V30 41 1 39 16
M  V30 42 1 40 16
M  V30 43 1 41 17
M  V30 44 1 18 42 CFG=3
M  V30 45 1 43 5
M  V30 46 1 44 6
M  V30 END BOND
M  V30 END CTAB
M  END
>  <i_epik_Tot_Q>  (1) 
2

>  <i_epik_Tot_abs_Q>  (1) 
2

>  <i_i_glide_confnum>  (1) 
128

>  <i_i_glide_lignum>  (1) 
73

>  <i_i_glide_posenum>  (1) 
250

>  <i_i_glide_rotatable_bonds>  (1) 
4

>  <i_lp_mmshare_version>  (1) 
72125

>  <i_m_source_file_index>  (1) 
26

>  <i_f3d_flags>  (1) 
0

>  <num_sample>  (1) 
50

>  <b_lp_Chiralities_Consistent>  (1) 
1

>  <r_epik_Charging_Adjusted_Penalty>  (1) 
0.43880639721899328

>  <r_epik_Ionization_Penalty>  (1) 
0.22252539232578136

>  <r_epik_Ionization_Penalty_Charging>  (1) 
0.22252539232578136

>  <r_epik_Ionization_Penalty_Neutral>  (1) 
0

>  <r_epik_State_Penalty>  (1) 
0.21628100489321189

>  <r_glide_ring_energy>  (1) 
0.378465553984697

>  <r_i_docking_score>  (1) 
-7.5574328523532701

>  <r_i_glide_ecoul>  (1) 
-12.145102924148411

>  <r_i_glide_eff_state_penalty>  (1) 
0.21628100489321189

>  <r_i_glide_einternal>  (1) 
11.004847328337739

>  <r_i_glide_emodel>  (1) 
-62.588842684301312

>  <r_i_glide_emodel_strain>  (1) 
0.67557055650367204

>  <r_i_glide_energy>  (1) 
-40.575374208359229

>  <r_i_glide_erotb>  (1) 
0.86113592628682767

>  <r_i_glide_esite>  (1) 
-0.20000000000000001

>  <r_i_glide_evdw>  (1) 
-28.430271284210818

>  <r_i_glide_gscore>  (1) 
-7.7737138572464817

>  <r_i_glide_gscore_strain>  (1) 
0

>  <r_i_glide_hbond>  (1) 
-0.33587683002337948

>  <r_i_glide_ligand_efficiency>  (1) 
-0.4198573806862928

>  <r_i_glide_ligand_efficiency_ln>  (1) 
-1.9425991454452103

>  <r_i_glide_ligand_efficiency_sa>  (1) 
-1.1003376172286905

>  <r_i_glide_lipo>  (1) 
-2.2562151859984532

>  <r_i_glide_metal>  (1) 
-0

>  <r_i_glide_rewards>  (1) 
-2.5994787646786746

>  <r_lp_Energy>  (1) 
41.614444999999996

>  <s_epik_cmdline>  (1) 
J2VwaWtfcHl0aG9uJywgJy1waHQnLCAnMS4wJywgJy1waCcsICc3LjQnLCAnLXRuJywgJzgnLCAnLW1hJywgJzUwMCcsICctaW1hZScsICc8aW5maWxlLm1hZT4nLCAnLW9tYWUnLCAnPG91dGZpbGUubWFlPic=

>  <s_epik_input>  (1) 
W2NIXTFbY0hdW2NIXVtjSF1bY0hdYzFbQ0BIXTJbQ0gyXVtDQEhdMltOSF1bQ0BIXTNbQ0gyXVtDSDJdW0NIMl1bQ0BIXTNbQ0BIXShbTkgyXSlbQ0gzXQ==

>  <s_glide_docking_method>  (1) 
confgen

>  <s_i_glide_gridfile>  (1) 
gpcr_drd2_6luq_protein_autoprepared_prepared

>  <s_lp_Force_Field>  (1) 
S-OPLS

>  <s_lp_Variant>  (1) 
DiffSBDD_25-2

>  <s_m_source_file>  (1) 
generated_generic_title2_ligand_DiffSBDD_2026-06-23_prepared.sdf

>  <GenAI_Model>  (1) 
DiffSBDD

>  <Protein>  (1) 
generic_title2

$$$$
DiffSBDD_25
     RDKit          3D

  0  0  0  0  0  0  0  0  0  0999 V3000
M  V30 BEGIN CTAB
M  V30 COUNTS 44 46 0 0 1
M  V30 BEGIN ATOM
M  V30 1 C 11.175333 7.614426 -8.505893 0 CFG=2
M  V30 2 C 11.375409 6.848632 -4.764739 0
M  V30 3 C 11.775409 8.092614 -4.238857 0
M  V30 4 C 11.375411 7.790016 -7.023793 0
M  V30 5 N 6.363220 6.390226 -11.585039 0 CHG=1
M  V30 6 N 9.375410 7.988436 -10.372148 0 CHG=1
M  V30 7 C 11.759937 9.043891 -6.481597 0
M  V30 8 C 11.603875 8.659785 -9.520942 0
M  V30 9 C 6.915888 6.909675 -13.928107 0
M  V30 10 C 7.382332 6.997262 -12.464555 0 CFG=2
M  V30 11 C 9.539182 6.625574 -10.914226 0 CFG=1
M  V30 12 C 10.138739 8.459694 -9.194631 0 CFG=2
M  V30 13 C 11.958029 9.190228 -5.095686 0
M  V30 14 C 8.695491 4.364999 -10.939496 0
M  V30 15 C 8.827658 4.867162 -12.376150 0
M  V30 16 C 9.016449 5.520162 -9.993831 0
M  V30 17 C 11.177995 6.698320 -6.151020 0
M  V30 18 C 8.810023 6.392029 -12.264113 0 CFG=1
M  V30 19 H 11.350294 6.584369 -8.796584 0
M  V30 20 H 11.226055 6.005973 -4.104629 0
M  V30 21 H 11.930806 8.205294 -3.175644 0
M  V30 22 H 6.389886 5.382792 -11.644776 0
M  V30 23 H 6.551421 6.691862 -10.625132 0
M  V30 24 H 8.400124 8.016855 -10.048952 0
M  V30 25 H 11.905695 9.891946 -7.127889 0
M  V30 26 H 12.062425 9.590106 -9.199856 0
M  V30 27 H 11.974740 8.289428 -10.474385 0
M  V30 28 H 7.627046 7.393928 -14.597294 0
M  V30 29 H 6.795939 5.880484 -14.266283 0
M  V30 30 H 5.956769 7.410303 -14.066814 0
M  V30 31 H 7.413662 8.058733 -12.215799 0
M  V30 32 H 10.595420 6.454879 -11.104051 0
M  V30 33 H 9.596212 9.190228 -8.606234 0
M  V30 34 H 12.254767 10.145318 -4.691940 0
M  V30 35 H 9.375571 3.527255 -10.785029 0
M  V30 36 H 7.689966 3.990767 -10.746989 0
M  V30 37 H 9.789365 4.544561 -12.778094 0
M  V30 38 H 8.063523 4.452822 -13.033344 0
M  V30 39 H 9.733258 5.211276 -9.233996 0
M  V30 40 H 8.117333 5.835263 -9.465740 0
M  V30 41 H 10.878760 5.739668 -6.548461 0
M  V30 42 H 9.440894 6.790284 -13.053946 0
M  V30 43 H 5.444783 6.725839 -11.837262 0
M  V30 44 H 9.489776 8.661161 -11.114982 0
M  V30 END ATOM
M  V30 BEGIN BOND
M  V30 1 2 3 2
M  V30 2 1 4 1
M  V30 3 1 7 4
M  V30 4 1 8 1
M  V30 5 1 10 5
M  V30 6 1 10 9
M  V30 7 1 11 6
M  V30 8 1 12 1
M  V30 9 1 12 6
M  V30 10 1 12 8
M  V30 11 1 13 3
M  V30 12 2 13 7
M  V30 13 1 15 14
M  V30 14 1 16 11
M  V30 15 1 16 14
M  V30 16 1 17 2
M  V30 17 2 17 4
M  V30 18 1 18 10
M  V30 19 1 18 11
M  V30 20 1 18 15
M  V30 21 1 1 19 CFG=3
M  V30 22 1 20 2
M  V30 23 1 21 3
M  V30 24 1 22 5
M  V30 25 1 23 5
M  V30 26 1 24 6
M  V30 27 1 25 7
M  V30 28 1 26 8
M  V30 29 1 27 8
M  V30 30 1 28 9
M  V30 31 1 29 9
M  V30 32 1 30 9
M  V30 33 1 10 31 CFG=1
M  V30 34 1 11 32 CFG=3
M  V30 35 1 12 33 CFG=1
M  V30 36 1 34 13
M  V30 37 1 35 14
M  V30 38 1 36 14
M  V30 39 1 37 15
M  V30 40 1 38 15
M  V30 41 1 39 16
M  V30 42 1 40 16
M  V30 43 1 41 17
M  V30 44 1 18 42 CFG=3
M  V30 45 1 43 5
M  V30 46 1 44 6
M  V30 END BOND
M  V30 END CTAB
M  END
>  <i_epik_Tot_Q>  (1) 
2

>  <i_epik_Tot_abs_Q>  (1) 
2

>  <i_i_glide_confnum>  (1) 
97

>  <i_i_glide_lignum>  (1) 
73

>  <i_i_glide_posenum>  (1) 
273

>  <i_i_glide_rotatable_bonds>  (1) 
4

>  <i_lp_mmshare_version>  (1) 
72125

>  <i_m_source_file_index>  (1) 
26

>  <i_f3d_flags>  (1) 
0

>  <num_sample>  (1) 
50

>  <b_lp_Chiralities_Consistent>  (1) 
1

>  <r_epik_Charging_Adjusted_Penalty>  (1) 
0.43880639721899328

>  <r_epik_Ionization_Penalty>  (1) 
0.22252539232578136

>  <r_epik_Ionization_Penalty_Charging>  (1) 
0.22252539232578136

>  <r_epik_Ionization_Penalty_Neutral>  (1) 
0

>  <r_epik_State_Penalty>  (1) 
0.21628100489321189

>  <r_glide_ring_energy>  (1) 
0.378465553984697

>  <r_i_docking_score>  (1) 
-7.536698748302527

>  <r_i_glide_ecoul>  (1) 
-12.102573235077138

>  <r_i_glide_eff_state_penalty>  (1) 
0.21628100489321189

>  <r_i_glide_einternal>  (1) 
14.771033430308716

>  <r_i_glide_emodel>  (1) 
-54.72607822336942

>  <r_i_glide_emodel_strain>  (1) 
4.4542494429183819

>  <r_i_glide_energy>  (1) 
-38.449574151598007

>  <r_i_glide_erotb>  (1) 
0.86113592628682767

>  <r_i_glide_esite>  (1) 
-0.20000000000000001

>  <r_i_glide_evdw>  (1) 
-26.347000916520869

>  <r_i_glide_gscore>  (1) 
-7.7529797531957385

>  <r_i_glide_gscore_strain>  (1) 
0.11356236072959547

>  <r_i_glide_hbond>  (1) 
-0.40000000000000002

>  <r_i_glide_ligand_efficiency>  (1) 
-0.41870548601680707

>  <r_i_glide_ligand_efficiency_ln>  (1) 
-1.9372695509125903

>  <r_i_glide_ligand_efficiency_sa>  (1) 
-1.0973187991866007

>  <r_i_glide_lipo>  (1) 
-2.3658444182154561

>  <r_i_glide_metal>  (1) 
-0

>  <r_i_glide_rewards>  (1) 
-2.6290975909090912

>  <r_lp_Energy>  (1) 
41.614444999999996

>  <s_epik_cmdline>  (1) 
J2VwaWtfcHl0aG9uJywgJy1waHQnLCAnMS4wJywgJy1waCcsICc3LjQnLCAnLXRuJywgJzgnLCAnLW1hJywgJzUwMCcsICctaW1hZScsICc8aW5maWxlLm1hZT4nLCAnLW9tYWUnLCAnPG91dGZpbGUubWFlPic=

>  <s_epik_input>  (1) 
W2NIXTFbY0hdW2NIXVtjSF1bY0hdYzFbQ0BIXTJbQ0gyXVtDQEhdMltOSF1bQ0BIXTNbQ0gyXVtDSDJdW0NIMl1bQ0BIXTNbQ0BIXShbTkgyXSlbQ0gzXQ==

>  <s_glide_docking_method>  (1) 
confgen

>  <s_i_glide_gridfile>  (1) 
gpcr_drd2_6luq_protein_autoprepared_prepared

>  <s_lp_Force_Field>  (1) 
S-OPLS

>  <s_lp_Variant>  (1) 
DiffSBDD_25-2

>  <s_m_source_file>  (1) 
generated_generic_title2_ligand_DiffSBDD_2026-06-23_prepared.sdf

>  <GenAI_Model>  (1) 
DiffSBDD

>  <Protein>  (1) 
generic_title2

$$$$
DiffSBDD_25
     RDKit          3D

  0  0  0  0  0  0  0  0  0  0999 V3000
M  V30 BEGIN CTAB
M  V30 COUNTS 44 46 0 0 1
M  V30 BEGIN ATOM
M  V30 1 C 11.050405 7.617524 -6.634953 0 CFG=2
M  V30 2 C 12.171098 9.047265 -3.244289 0
M  V30 3 C 12.175418 7.891746 -2.448335 0
M  V30 4 C 11.381737 7.735426 -5.166294 0
M  V30 5 N 8.229024 6.086639 -12.631753 0 CHG=1
M  V30 6 N 9.375409 7.633717 -8.638039 0 CHG=1
M  V30 7 C 11.375444 6.583231 -4.348283 0
M  V30 8 C 11.220368 8.790222 -7.566845 0
M  V30 9 C 10.334391 7.190221 -12.017113 0
M  V30 10 C 8.966500 6.727704 -11.525938 0 CFG=2
M  V30 11 C 9.862062 6.303316 -9.084592 0 CFG=1
M  V30 12 C 9.841448 8.199869 -7.342597 0 CFG=2
M  V30 13 C 11.775392 6.661988 -2.996519 0
M  V30 14 C 8.080343 4.861986 -8.366379 0
M  V30 15 C 7.878158 5.038921 -9.869347 0
M  V30 16 C 9.533301 5.190239 -8.104202 0
M  V30 17 C 11.775416 8.976623 -4.595960 0
M  V30 18 C 9.148124 5.756659 -10.352970 0 CFG=1
M  V30 19 H 11.513516 6.703000 -6.997901 0
M  V30 20 H 12.477212 9.990239 -2.820917 0
M  V30 21 H 12.482461 7.949744 -1.414870 0
M  V30 22 H 8.739258 5.278359 -12.961099 0
M  V30 23 H 7.319965 5.796139 -12.299012 0
M  V30 24 H 8.350916 7.590229 -8.634482 0
M  V30 25 H 11.085189 5.629717 -4.764486 0
M  V30 26 H 11.375476 9.792542 -7.185098 0
M  V30 27 H 11.738356 8.589288 -8.503251 0
M  V30 28 H 10.924005 7.647414 -11.222915 0
M  V30 29 H 10.919590 6.371804 -12.440305 0
M  V30 30 H 10.204325 7.949407 -12.784993 0
M  V30 31 H 8.384746 7.593379 -11.206707 0
M  V30 32 H 10.937447 6.390242 -9.237132 0
M  V30 33 H 9.104384 8.790318 -6.802852 0
M  V30 34 H 11.776731 5.772314 -2.383206 0
M  V30 35 H 7.775542 3.889415 -7.985033 0
M  V30 36 H 7.467613 5.590212 -7.839191 0
M  V30 37 H 7.777467 4.075887 -10.370805 0
M  V30 38 H 6.958709 5.590235 -10.060070 0
M  V30 39 H 10.143597 4.329757 -8.385028 0
M  V30 40 H 9.711234 5.419570 -7.056965 0
M  V30 41 H 11.795992 9.869407 -5.195108 0
M  V30 42 H 9.775494 4.947162 -10.726463 0
M  V30 43 H 8.107640 6.740673 -13.392080 0
M  V30 44 H 9.600822 8.309056 -9.351525 0
M  V30 END ATOM
M  V30 BEGIN BOND
M  V30 1 2 3 2
M  V30 2 1 4 1
M  V30 3 1 7 4
M  V30 4 1 8 1
M  V30 5 1 10 5
M  V30 6 1 10 9
M  V30 7 1 11 6
M  V30 8 1 12 1
M  V30 9 1 12 6
M  V30 10 1 12 8
M  V30 11 1 13 3
M  V30 12 2 13 7
M  V30 13 1 15 14
M  V30 14 1 16 11
M  V30 15 1 16 14
M  V30 16 1 17 2
M  V30 17 2 17 4
M  V30 18 1 18 10
M  V30 19 1 18 11
M  V30 20 1 18 15
M  V30 21 1 1 19 CFG=3
M  V30 22 1 20 2
M  V30 23 1 21 3
M  V30 24 1 22 5
M  V30 25 1 23 5
M  V30 26 1 24 6
M  V30 27 1 25 7
M  V30 28 1 26 8
M  V30 29 1 27 8
M  V30 30 1 28 9
M  V30 31 1 29 9
M  V30 32 1 30 9
M  V30 33 1 10 31 CFG=1
M  V30 34 1 11 32 CFG=3
M  V30 35 1 12 33 CFG=1
M  V30 36 1 34 13
M  V30 37 1 35 14
M  V30 38 1 36 14
M  V30 39 1 37 15
M  V30 40 1 38 15
M  V30 41 1 39 16
M  V30 42 1 40 16
M  V30 43 1 41 17
M  V30 44 1 18 42 CFG=3
M  V30 45 1 43 5
M  V30 46 1 44 6
M  V30 END BOND
M  V30 END CTAB
M  END
>  <i_epik_Tot_Q>  (1) 
2

>  <i_epik_Tot_abs_Q>  (1) 
2

>  <i_i_glide_confnum>  (1) 
63

>  <i_i_glide_lignum>  (1) 
73

>  <i_i_glide_posenum>  (1) 
172

>  <i_i_glide_rotatable_bonds>  (1) 
4

>  <i_lp_mmshare_version>  (1) 
72125

>  <i_m_source_file_index>  (1) 
26

>  <i_f3d_flags>  (1) 
0

>  <num_sample>  (1) 
50

>  <b_lp_Chiralities_Consistent>  (1) 
1

>  <r_epik_Charging_Adjusted_Penalty>  (1) 
0.43880639721899328

>  <r_epik_Ionization_Penalty>  (1) 
0.22252539232578136

>  <r_epik_Ionization_Penalty_Charging>  (1) 
0.22252539232578136

>  <r_epik_Ionization_Penalty_Neutral>  (1) 
0

>  <r_epik_State_Penalty>  (1) 
0.21628100489321189

>  <r_glide_ring_energy>  (1) 
0.097090295733870804

>  <r_i_docking_score>  (1) 
-7.4474216771257522

>  <r_i_glide_ecoul>  (1) 
-9.2084171213606307

>  <r_i_glide_eff_state_penalty>  (1) 
0.21628100489321189

>  <r_i_glide_einternal>  (1) 
10.13230552840685

>  <r_i_glide_emodel>  (1) 
-53.205532405756742

>  <r_i_glide_emodel_strain>  (1) 
3.7078348097270464

>  <r_i_glide_energy>  (1) 
-34.187014075101438

>  <r_i_glide_erotb>  (1) 
0.6027951484007793

>  <r_i_glide_esite>  (1) 
-0.11239598756495656

>  <r_i_glide_evdw>  (1) 
-24.978596953740805

>  <r_i_glide_gscore>  (1) 
-7.6637026820189638

>  <r_i_glide_gscore_strain>  (1) 
0

>  <r_i_glide_hbond>  (1) 
-0.20000000000000001

>  <r_i_glide_ligand_efficiency>  (1) 
-0.41374564872920844

>  <r_i_glide_ligand_efficiency_ln>  (1) 
-1.9143213401161356

>  <r_i_glide_ligand_efficiency_sa>  (1) 
-1.0843203482984503

>  <r_i_glide_lipo>  (1) 
-2.2308735315730961

>  <r_i_glide_metal>  (1) 
-0

>  <r_i_glide_rewards>  (1) 
-3.0930358953905541

>  <r_lp_Energy>  (1) 
41.614444999999996

>  <s_epik_cmdline>  (1) 
J2VwaWtfcHl0aG9uJywgJy1waHQnLCAnMS4wJywgJy1waCcsICc3LjQnLCAnLXRuJywgJzgnLCAnLW1hJywgJzUwMCcsICctaW1hZScsICc8aW5maWxlLm1hZT4nLCAnLW9tYWUnLCAnPG91dGZpbGUubWFlPic=

>  <s_epik_input>  (1) 
W2NIXTFbY0hdW2NIXVtjSF1bY0hdYzFbQ0BIXTJbQ0gyXVtDQEhdMltOSF1bQ0BIXTNbQ0gyXVtDSDJdW0NIMl1bQ0BIXTNbQ0BIXShbTkgyXSlbQ0gzXQ==

>  <s_glide_docking_method>  (1) 
confgen

>  <s_i_glide_gridfile>  (1) 
gpcr_drd2_6luq_protein_autoprepared_prepared

>  <s_lp_Force_Field>  (1) 
S-OPLS

>  <s_lp_Variant>  (1) 
DiffSBDD_25-2

>  <s_m_source_file>  (1) 
generated_generic_title2_ligand_DiffSBDD_2026-06-23_prepared.sdf

>  <GenAI_Model>  (1) 
DiffSBDD

>  <Protein>  (1) 
generic_title2

$$$$
DiffSBDD_27
     RDKit          3D

  0  0  0  0  0  0  0  0  0  0999 V3000
M  V30 BEGIN CTAB
M  V30 COUNTS 50 50 0 0 1
M  V30 BEGIN ATOM
M  V30 1 F 13.275626 8.061184 -1.630079 0
M  V30 2 C 10.276811 7.917566 -6.462170 0
M  V30 3 C 6.741008 6.513465 -14.971753 0
M  V30 4 C 11.737109 9.141615 -4.784393 0
M  V30 5 C 6.913688 4.330976 -12.626792 0
M  V30 6 O 5.375413 4.910252 -10.785053 0
M  V30 7 O 11.113085 6.390395 -12.385018 0
M  V30 8 C 5.661525 7.190195 -12.794749 0
M  V30 9 C 9.929451 7.597712 -9.956161 0 CFG=2
M  V30 10 O 9.375408 8.771232 -9.407051 0
M  V30 11 F 12.046466 5.721529 -2.415655 0
M  V30 12 C 11.208892 6.790221 -4.385110 0
M  V30 13 C 6.978153 6.807235 -13.478832 0
M  V30 14 C 8.436577 6.014429 -11.429875 0
M  V30 15 C 9.229653 7.334145 -11.326914 0 CFG=2
M  V30 16 C 9.786654 6.488392 -8.889708 0
M  V30 17 S 10.975407 6.651802 -7.536232 0
M  V30 18 C 12.478010 9.169633 -3.585606 0
M  V30 19 C 6.339702 3.991063 -11.227787 0
M  V30 20 C 7.739268 5.650442 -12.766096 0 CFG=1
M  V30 21 C 11.946252 6.828487 -3.185101 0
M  V30 22 C 12.575431 8.019667 -2.785792 0
M  V30 23 O 10.158378 7.487488 -12.385019 0
M  V30 24 C 11.094506 7.951494 -5.185006 0
M  V30 25 H 10.292475 8.886712 -6.959859 0
M  V30 26 H 9.238867 7.674865 -6.230818 0
M  V30 27 H 6.037098 5.695823 -15.123664 0
M  V30 28 H 6.334968 7.389179 -15.479286 0
M  V30 29 H 7.671002 6.250010 -15.475857 0
M  V30 30 H 11.658393 10.032087 -5.391438 0
M  V30 31 H 6.109876 4.292102 -13.360331 0
M  V30 32 H 7.573341 3.505874 -12.897659 0
M  V30 33 H 5.284435 4.825529 -9.839838 0
M  V30 34 H 10.724892 5.795715 -13.011916 0
M  V30 35 H 4.975407 6.349062 -12.800381 0
M  V30 36 H 5.817103 7.502331 -11.761488 0
M  V30 37 H 5.142977 7.990219 -13.317476 0
M  V30 38 H 10.989817 7.789216 -10.124552 0
M  V30 39 H 8.434914 8.587503 -9.309330 0
M  V30 40 H 10.720408 5.876009 -4.687567 0
M  V30 41 H 7.616098 7.689757 -13.469201 0
M  V30 42 H 9.081088 5.171333 -11.186162 0
M  V30 43 H 7.693279 6.074265 -10.641777 0
M  V30 44 H 8.507756 8.136230 -11.485437 0
M  V30 45 H 8.771217 6.412212 -8.497308 0
M  V30 46 H 10.030210 5.520236 -9.320794 0
M  V30 47 H 12.969573 10.070339 -3.275862 0
M  V30 48 H 5.874791 3.005449 -11.234359 0
M  V30 49 H 7.125128 3.990227 -10.473820 0
M  V30 50 H 8.558526 5.411993 -13.445623 0
M  V30 END ATOM
M  V30 BEGIN BOND
M  V30 1 1 10 9
M  V30 2 1 13 3
M  V30 3 1 13 8
M  V30 4 1 15 9
M  V30 5 1 15 14
M  V30 6 1 16 9
M  V30 7 1 17 2
M  V30 8 1 17 16
M  V30 9 2 18 4
M  V30 10 1 19 5
M  V30 11 1 19 6
M  V30 12 1 20 5
M  V30 13 1 20 13
M  V30 14 1 20 14
M  V30 15 1 21 11
M  V30 16 1 21 12
M  V30 17 1 22 1
M  V30 18 1 22 18
M  V30 19 2 22 21
M  V30 20 1 23 7
M  V30 21 1 23 15
M  V30 22 1 24 2
M  V30 23 1 24 4
M  V30 24 2 24 12
M  V30 25 1 25 2
M  V30 26 1 26 2
M  V30 27 1 27 3
M  V30 28 1 28 3
M  V30 29 1 29 3
M  V30 30 1 30 4
M  V30 31 1 31 5
M  V30 32 1 32 5
M  V30 33 1 33 6
M  V30 34 1 34 7
M  V30 35 1 35 8
M  V30 36 1 36 8
M  V30 37 1 37 8
M  V30 38 1 9 38 CFG=3
M  V30 39 1 39 10
M  V30 40 1 40 12
M  V30 41 1 41 13
M  V30 42 1 42 14
M  V30 43 1 43 14
M  V30 44 1 15 44 CFG=3
M  V30 45 1 45 16
M  V30 46 1 46 16
M  V30 47 1 47 18
M  V30 48 1 48 19
M  V30 49 1 49 19
M  V30 50 1 20 50 CFG=3
M  V30 END BOND
M  V30 END CTAB
M  END
>  <i_epik_Tot_Q>  (1) 
0

>  <i_epik_Tot_abs_Q>  (1) 
0

>  <i_i_glide_confnum>  (1) 
716

>  <i_i_glide_lignum>  (1) 
77

>  <i_i_glide_posenum>  (1) 
86

>  <i_i_glide_rotatable_bonds>  (1) 
14

>  <i_lp_mmshare_version>  (1) 
72125

>  <i_m_source_file_index>  (1) 
28

>  <i_f3d_flags>  (1) 
0

>  <num_sample>  (1) 
50

>  <b_lp_Chiralities_Consistent>  (1) 
1

>  <r_epik_Charging_Adjusted_Penalty>  (1) 
0

>  <r_epik_Ionization_Penalty>  (1) 
1.248774447628934e-05

>  <r_epik_Ionization_Penalty_Charging>  (1) 
0

>  <r_epik_Ionization_Penalty_Neutral>  (1) 
1.248774447628934e-05

>  <r_epik_State_Penalty>  (1) 
-0

>  <r_glide_ring_energy>  (1) 
0

>  <r_i_docking_score>  (1) 
-7.2125552662345251

>  <r_i_glide_ecoul>  (1) 
-11.805873147296801

>  <r_i_glide_eff_state_penalty>  (1) 
-0

>  <r_i_glide_einternal>  (1) 
8.3403556202924314

>  <r_i_glide_emodel>  (1) 
-53.47842901464653

>  <r_i_glide_emodel_strain>  (1) 
1.9867001947053708

>  <r_i_glide_energy>  (1) 
-40.810026722996724

>  <r_i_glide_erotb>  (1) 
1.3026288034546341

>  <r_i_glide_esite>  (1) 
-0.0049900550428719432

>  <r_i_glide_evdw>  (1) 
-29.00415357569992

>  <r_i_glide_gscore>  (1) 
-7.2125552662345251

>  <r_i_glide_gscore_strain>  (1) 
0

>  <r_i_glide_hbond>  (1) 
-0.47217019364677743

>  <r_i_glide_ligand_efficiency>  (1) 
-0.30052313609310521

>  <r_i_glide_ligand_efficiency_ln>  (1) 
-1.7262954378052779

>  <r_i_glide_ligand_efficiency_sa>  (1) 
-0.86685872779543161

>  <r_i_glide_lipo>  (1) 
-2.7337699507886932

>  <r_i_glide_metal>  (1) 
-0

>  <r_i_glide_rewards>  (1) 
-2.0831652193313008

>  <r_lp_Energy>  (1) 
13.121089999999999

>  <r_lp_tautomer_probability>  (1) 
1

>  <s_epik_cmdline>  (1) 
J2VwaWtfcHl0aG9uJywgJy1waHQnLCAnMS4wJywgJy1waCcsICc3LjQnLCAnLXRuJywgJzgnLCAnLW1hJywgJzUwMCcsICctaW1hZScsICc8aW5maWxlLm1hZT4nLCAnLW9tYWUnLCAnPG91dGZpbGUubWFlPic=

>  <s_epik_input>  (1) 
RmMxW2NIXVtjSF1jKFtjSF1jMUYpW0NIMl1TW0NIMl1bQ0BIXShbT0hdKVtDQEBIXShPW09IXSlbQ0gyXVtDQEhdKFtDSF0oW0NIM10pW0NIM10pW0NIMl1bQ0gyXVtPSF0=

>  <s_glide_docking_method>  (1) 
confgen

>  <s_i_glide_gridfile>  (1) 
gpcr_drd2_6luq_protein_autoprepared_prepared

>  <s_lp_Force_Field>  (1) 
S-OPLS

>  <s_lp_Variant>  (1) 
DiffSBDD_27-1

>  <s_m_source_file>  (1) 
generated_generic_title2_ligand_DiffSBDD_2026-06-23_prepared.sdf

>  <GenAI_Model>  (1) 
DiffSBDD

>  <Protein>  (1) 
generic_title2

$$$$
DiffSBDD_17
     RDKit          3D

  0  0  0  0  0  0  0  0  0  0999 V3000
M  V30 BEGIN CTAB
M  V30 COUNTS 49 53 0 0 1
M  V30 BEGIN ATOM
M  V30 1 C 8.506784 4.521009 -13.428768 0
M  V30 2 N 8.575480 5.990230 -9.499678 0
M  V30 3 C 10.283375 8.409203 -6.506768 0
M  V30 4 O 10.512176 5.590154 -7.842171 0
M  V30 5 S 9.972612 6.652738 -8.696274 0
M  V30 6 C 5.580453 7.399657 -15.570922 0
M  V30 7 C 6.517808 4.943236 -18.909568 0
M  V30 8 C 9.289877 3.861586 -12.473878 0
M  V30 9 C 9.301684 7.968826 -7.604296 0
M  V30 10 C 8.404645 4.096148 -14.951489 0
M  V30 11 C 7.133780 4.674515 -17.664036 0
M  V30 12 O 10.803333 7.275841 -9.738708 0
M  V30 13 O 5.189970 6.019024 -20.320900 0
M  V30 14 C 6.817449 5.496061 -16.545686 0
M  V30 15 C 7.755930 5.611571 -13.094040 0
M  V30 16 C 6.700261 4.244800 -20.083354 0
M  V30 17 C 9.307401 4.354605 -11.148133 0
M  V30 18 C 6.175762 7.125699 -14.313699 0
M  V30 19 C 5.863477 4.924432 -20.962312 0
M  V30 20 C 5.895594 6.582939 -16.691012 0
M  V30 21 C 12.411754 9.678517 -5.924051 0
M  V30 22 C 7.747415 6.131531 -11.793161 0
M  V30 23 C 7.071313 6.055492 -14.209176 0
M  V30 24 C 7.384812 5.262111 -15.281133 0
M  V30 25 C 11.637728 8.926563 -7.014070 0
M  V30 26 C 5.643367 5.985250 -19.010652 0
M  V30 27 C 8.542778 5.495792 -10.804265 0
M  V30 28 C 5.305382 6.825310 -17.946875 0
M  V30 29 H 7.796678 6.658193 -9.387504 0
M  V30 30 H 9.796707 9.190200 -5.926637 0
M  V30 31 H 10.449756 7.582290 -5.813931 0
M  V30 32 H 4.884613 8.219747 -15.673286 0
M  V30 33 H 9.870900 2.995993 -12.743772 0
M  V30 34 H 8.978357 8.797328 -8.234007 0
M  V30 35 H 8.419556 7.556734 -7.118970 0
M  V30 36 H 7.977011 3.102183 -15.086384 0
M  V30 37 H 9.347352 4.220525 -15.486256 0
M  V30 38 H 7.826304 3.851899 -17.564754 0
M  V30 39 H 7.345035 3.388899 -20.220473 0
M  V30 40 H 9.900284 3.862510 -10.397351 0
M  V30 41 H 5.939146 7.722456 -13.450515 0
M  V30 42 H 5.623770 4.797670 -22.007836 0
M  V30 43 H 13.402519 9.968548 -6.273517 0
M  V30 44 H 11.883514 10.586314 -5.631381 0
M  V30 45 H 12.540225 9.069832 -5.028936 0
M  V30 46 H 7.153617 6.999989 -11.552512 0
M  V30 47 H 12.235369 8.091316 -7.380349 0
M  V30 48 H 11.487352 9.590227 -7.864925 0
M  V30 49 H 4.604800 7.636222 -18.083903 0
M  V30 END ATOM
M  V30 BEGIN BOND
M  V30 1 1 5 2
M  V30 2 2 5 4
M  V30 3 2 8 1
M  V30 4 1 9 3
M  V30 5 1 9 5
M  V30 6 1 10 1
M  V30 7 2 11 7
M  V30 8 2 12 5
M  V30 9 1 14 11
M  V30 10 1 15 1
M  V30 11 1 16 7
M  V30 12 1 17 8
M  V30 13 1 18 6
M  V30 14 1 19 13
M  V30 15 2 19 16
M  V30 16 2 20 6
M  V30 17 1 20 14
M  V30 18 2 22 15
M  V30 19 1 23 15
M  V30 20 2 23 18
M  V30 21 1 24 10
M  V30 22 2 24 14
M  V30 23 1 24 23
M  V30 24 1 25 3
M  V30 25 1 25 21
M  V30 26 1 26 7
M  V30 27 1 26 13
M  V30 28 1 27 2
M  V30 29 2 27 17
M  V30 30 1 27 22
M  V30 31 1 28 20
M  V30 32 2 28 26
M  V30 33 1 29 2
M  V30 34 1 30 3
M  V30 35 1 31 3
M  V30 36 1 32 6
M  V30 37 1 33 8
M  V30 38 1 34 9
M  V30 39 1 35 9
M  V30 40 1 36 10
M  V30 41 1 37 10
M  V30 42 1 38 11
M  V30 43 1 39 16
M  V30 44 1 40 17
M  V30 45 1 41 18
M  V30 46 1 42 19
M  V30 47 1 43 21
M  V30 48 1 44 21
M  V30 49 1 45 21
M  V30 50 1 46 22
M  V30 51 1 47 25
M  V30 52 1 48 25
M  V30 53 1 49 28
M  V30 END BOND
M  V30 END CTAB
M  END
>  <i_epik_Tot_Q>  (1) 
0

>  <i_epik_Tot_abs_Q>  (1) 
0

>  <i_i_glide_confnum>  (1) 
19

>  <i_i_glide_lignum>  (1) 
60

>  <i_i_glide_posenum>  (1) 
333

>  <i_i_glide_rotatable_bonds>  (1) 
5

>  <i_lp_mmshare_version>  (1) 
72125

>  <i_m_source_file_index>  (1) 
18

>  <i_f3d_flags>  (1) 
0

>  <num_sample>  (1) 
50

>  <b_lp_Chiralities_Consistent>  (1) 
1

>  <r_epik_Charging_Adjusted_Penalty>  (1) 
0.043283066486764811

>  <r_epik_Ionization_Penalty>  (1) 
0.043283066491373014

>  <r_epik_Ionization_Penalty_Charging>  (1) 
0

>  <r_epik_Ionization_Penalty_Neutral>  (1) 
0.043283066491373014

>  <r_epik_State_Penalty>  (1) 
0.043283066486764811

>  <r_glide_ring_energy>  (1) 
0

>  <r_i_docking_score>  (1) 
-7.2050605147385101

>  <r_i_glide_ecoul>  (1) 
-7.7918289143691783

>  <r_i_glide_eff_state_penalty>  (1) 
0.043283066486764811

>  <r_i_glide_einternal>  (1) 
6.503705561234117

>  <r_i_glide_emodel>  (1) 
-48.265344447195332

>  <r_i_glide_emodel_strain>  (1) 
0.3951626957253751

>  <r_i_glide_energy>  (1) 
-37.184736753668297

>  <r_i_glide_erotb>  (1) 
0.38198521986113965

>  <r_i_glide_esite>  (1) 
-0.15767259632104488

>  <r_i_glide_evdw>  (1) 
-29.39290783929912

>  <r_i_glide_gscore>  (1) 
-7.2483435812252752

>  <r_i_glide_gscore_strain>  (1) 
0

>  <r_i_glide_hbond>  (1) 
-0.13315260972280271

>  <r_i_glide_ligand_efficiency>  (1) 
-0.25732358981208964

>  <r_i_glide_ligand_efficiency_ln>  (1) 
-1.6631395165707727

>  <r_i_glide_ligand_efficiency_sa>  (1) 
-0.78138597502684815

>  <r_i_glide_lipo>  (1) 
-3.2054122603457031

>  <r_i_glide_metal>  (1) 
-0

>  <r_i_glide_rewards>  (1) 
-1.4956716055765316

>  <r_lp_Energy>  (1) 
17.101319999999998

>  <s_epik_cmdline>  (1) 
J2VwaWtfcHl0aG9uJywgJy1waHQnLCAnMS4wJywgJy1waCcsICc3LjQnLCAnLXRuJywgJzgnLCAnLW1hJywgJzUwMCcsICctaW1hZScsICc8aW5maWxlLm1hZT4nLCAnLW9tYWUnLCAnPG91dGZpbGUubWFlPic=

>  <s_epik_input>  (1) 
W0NIM11bQ0gyXVtDSDJdW0NIMl1TKD1PKSg9TylbTkhdYyhbY0hdW2NIXTEpW2NIXWMoYzEyKWMzYyhbQ0gyXTIpYzRjKFtjSF1bY0hdMylbY0hdYzVjKFtjSF00KVtjSF1bY0hdbzU=

>  <s_glide_docking_method>  (1) 
confgen

>  <s_i_glide_gridfile>  (1) 
gpcr_drd2_6luq_protein_autoprepared_prepared

>  <s_lp_Force_Field>  (1) 
S-OPLS

>  <s_lp_Variant>  (1) 
DiffSBDD_17-1

>  <s_m_source_file>  (1) 
generated_generic_title2_ligand_DiffSBDD_2026-06-23_prepared.sdf

>  <GenAI_Model>  (1) 
DiffSBDD

>  <Protein>  (1) 
generic_title2

$$$$
DiffSBDD_32
     RDKit          3D

  0  0  0  0  0  0  0  0  0  0999 V3000
M  V30 BEGIN CTAB
M  V30 COUNTS 69 71 0 0 1
M  V30 BEGIN ATOM
M  V30 1 C 11.122832 8.723372 -6.500470 0
M  V30 2 C 11.030522 6.274623 -3.567545 0
M  V30 3 N 12.761540 8.396855 -2.626969 0
M  V30 4 C 9.816563 6.969217 -10.967391 0
M  V30 5 C 8.181855 -0.319437 -15.003162 0
M  V30 6 O 10.004512 6.589349 -6.201353 0
M  V30 7 O 5.125962 0.176233 -14.396427 0
M  V30 8 C 8.539637 5.195110 -9.110970 0
M  V30 9 C 7.253573 5.400717 -13.402873 0 CFG=2
M  V30 10 C 6.463398 6.262232 -14.422407 0
M  V30 11 C 6.511466 4.096018 -12.973823 0
M  V30 12 C 9.613955 6.153816 -8.575660 0 CFG=1
M  V30 13 C 10.069057 7.129658 -9.656366 0
M  V30 14 C 12.680071 7.108351 -1.974814 0
M  V30 15 C 9.109853 6.833891 -7.282193 0
M  V30 16 C 11.958407 9.722188 -5.988253 0
M  V30 17 C 7.043016 2.348482 -15.438955 0
M  V30 18 C 5.604126 1.220096 -13.574979 0
M  V30 19 C 9.053998 5.788753 -11.549978 0 CFG=1
M  V30 20 C 10.827244 7.584607 -5.720923 0
M  V30 21 N 7.388196 2.895294 -13.069117 0 CHG=1
M  V30 22 C 12.508262 9.590215 -4.704316 0
M  V30 23 C 8.059799 0.672970 -13.829336 0
M  V30 24 C 8.873312 4.664181 -10.505276 0
M  V30 25 C 11.375411 7.467572 -4.423339 0
M  V30 26 C 6.996984 1.792830 -13.993849 0 CFG=2
M  V30 27 O 6.975421 7.346146 -14.770574 0 CHG=-1
M  V30 28 O 5.375442 5.812475 -14.831761 0
M  V30 29 C 11.298573 6.512587 -2.076877 0
M  V30 30 C 7.727570 6.260329 -12.193243 0
M  V30 31 C 12.217379 8.481407 -3.917588 0
M  V30 32 H 10.709692 8.835191 -7.483426 0
M  V30 33 H 9.992073 5.990210 -3.725334 0
M  V30 34 H 11.679907 5.499044 -3.949837 0
M  V30 35 H 13.454127 9.067609 -2.320086 0
M  V30 36 H 10.172270 7.707766 -11.671735 0
M  V30 37 H 8.913222 -1.098495 -14.785063 0
M  V30 38 H 7.240852 -0.809555 -15.235384 0
M  V30 39 H 8.524603 0.169769 -15.914463 0
M  V30 40 H 5.296095 -0.665899 -13.985161 0
M  V30 41 H 8.413887 4.389441 -8.395890 0
M  V30 42 H 7.567648 5.679791 -9.153629 0
M  V30 43 H 8.135973 5.120660 -13.980679 0
M  V30 44 H 5.592686 3.927267 -13.525244 0
M  V30 45 H 6.169194 4.188891 -11.943897 0
M  V30 46 H 10.491343 5.556232 -8.325554 0
M  V30 47 H 10.625176 7.990557 -9.330988 0
M  V30 48 H 12.977100 7.247013 -0.941959 0
M  V30 49 H 13.383130 6.416792 -2.430066 0
M  V30 50 H 8.830598 7.877238 -7.424851 0
M  V30 51 H 8.183750 6.358225 -6.958151 0
M  V30 52 H 12.175410 10.595285 -6.580634 0
M  V30 53 H 6.567429 1.674314 -16.152282 0
M  V30 54 H 6.573323 3.322130 -15.541745 0
M  V30 55 H 8.072615 2.498198 -15.765732 0
M  V30 56 H 4.826561 1.977533 -13.584995 0
M  V30 57 H 5.639281 0.843578 -12.551312 0
M  V30 58 H 9.695704 5.403108 -12.343206 0
M  V30 59 H 7.473239 2.505317 -12.141913 0
M  V30 60 H 13.149543 10.352060 -4.315809 0
M  V30 61 H 9.035285 1.125078 -13.677540 0
M  V30 62 H 7.868299 0.117331 -12.910676 0
M  V30 63 H 8.083039 3.990242 -10.801214 0
M  V30 64 H 9.775435 4.059234 -10.450451 0
M  V30 65 H 10.575456 7.180942 -1.604838 0
M  V30 66 H 11.253936 5.590403 -1.512611 0
M  V30 67 H 7.874998 7.292961 -12.512937 0
M  V30 68 H 6.940636 6.329823 -11.441375 0
M  V30 69 H 8.303787 3.220776 -13.343875 0
M  V30 END ATOM
M  V30 BEGIN BOND
M  V30 1 1 10 9
M  V30 2 1 11 9
M  V30 3 1 12 8
M  V30 4 2 13 4
M  V30 5 1 13 12
M  V30 6 1 14 3
M  V30 7 1 15 6
M  V30 8 1 15 12
M  V30 9 1 16 1
M  V30 10 1 18 7
M  V30 11 1 19 4
M  V30 12 2 20 1
M  V30 13 1 20 6
M  V30 14 1 21 11
M  V30 15 2 22 16
M  V30 16 1 23 5
M  V30 17 1 24 8
M  V30 18 1 24 19
M  V30 19 1 25 2
M  V30 20 1 25 20
M  V30 21 1 26 17 CFG=3
M  V30 22 1 26 18
M  V30 23 1 26 21
M  V30 24 1 26 23
M  V30 25 1 27 10
M  V30 26 2 28 10
M  V30 27 1 29 2
M  V30 28 1 29 14
M  V30 29 1 30 9
M  V30 30 1 30 19
M  V30 31 1 31 3
M  V30 32 1 31 22
M  V30 33 2 31 25
M  V30 34 1 32 1
M  V30 35 1 33 2
M  V30 36 1 34 2
M  V30 37 1 35 3
M  V30 38 1 36 4
M  V30 39 1 37 5
M  V30 40 1 38 5
M  V30 41 1 39 5
M  V30 42 1 40 7
M  V30 43 1 41 8
M  V30 44 1 42 8
M  V30 45 1 9 43 CFG=3
M  V30 46 1 44 11
M  V30 47 1 45 11
M  V30 48 1 12 46 CFG=1
M  V30 49 1 47 13
M  V30 50 1 48 14
M  V30 51 1 49 14
M  V30 52 1 50 15
M  V30 53 1 51 15
M  V30 54 1 52 16
M  V30 55 1 53 17
M  V30 56 1 54 17
M  V30 57 1 55 17
M  V30 58 1 56 18
M  V30 59 1 57 18
M  V30 60 1 19 58 CFG=3
M  V30 61 1 59 21
M  V30 62 1 60 22
M  V30 63 1 61 23
M  V30 64 1 62 23
M  V30 65 1 63 24
M  V30 66 1 64 24
M  V30 67 1 65 29
M  V30 68 1 66 29
M  V30 69 1 67 30
M  V30 70 1 68 30
M  V30 71 1 69 21
M  V30 END BOND
M  V30 END CTAB
M  END
>  <i_epik_Tot_Q>  (1) 
0

>  <i_epik_Tot_abs_Q>  (1) 
2

>  <i_i_glide_confnum>  (1) 
2847

>  <i_i_glide_lignum>  (1) 
94

>  <i_i_glide_posenum>  (1) 
299

>  <i_i_glide_rotatable_bonds>  (1) 
12

>  <i_lp_mmshare_version>  (1) 
72125

>  <i_m_source_file_index>  (1) 
33

>  <i_f3d_flags>  (1) 
0

>  <num_sample>  (1) 
50

>  <b_lp_Chiralities_Consistent>  (1) 
1

>  <r_epik_Charging_Adjusted_Penalty>  (1) 
0.0085461583227070953

>  <r_epik_Ionization_Penalty>  (1) 
0.0085468934256092942

>  <r_epik_Ionization_Penalty_Charging>  (1) 
0.0021751899630769768

>  <r_epik_Ionization_Penalty_Neutral>  (1) 
0.0063717034625323165

>  <r_epik_State_Penalty>  (1) 
0.0063709683596301176

>  <r_glide_ring_energy>  (1) 
0

>  <r_i_docking_score>  (1) 
-7.1572040991488031

>  <r_i_glide_ecoul>  (1) 
-3.9626958996531232

>  <r_i_glide_eff_state_penalty>  (1) 
0.0063709683596301176

>  <r_i_glide_einternal>  (1) 
16.226113102751324

>  <r_i_glide_emodel>  (1) 
-45.618558949659551

>  <r_i_glide_emodel_strain>  (1) 
2.5168206985607426

>  <r_i_glide_energy>  (1) 
-40.975272201269959

>  <r_i_glide_erotb>  (1) 
0.9651189096568249

>  <r_i_glide_esite>  (1) 
0

>  <r_i_glide_evdw>  (1) 
-37.012576301616839

>  <r_i_glide_gscore>  (1) 
-7.1635750675084333

>  <r_i_glide_gscore_strain>  (1) 
0

>  <r_i_glide_hbond>  (1) 
-0.22199204241003365

>  <r_i_glide_ligand_efficiency>  (1) 
-0.23087755158544526

>  <r_i_glide_ligand_efficiency_ln>  (1) 
-1.6141688663217204

>  <r_i_glide_ligand_efficiency_sa>  (1) 
-0.72527427362201369

>  <r_i_glide_lipo>  (1) 
-3.1079480128262613

>  <r_i_glide_metal>  (1) 
-0

>  <r_i_glide_rewards>  (1) 
-2.3537207219001526

>  <r_lp_Energy>  (1) 
27.112926999999999

>  <s_epik_cmdline>  (1) 
J2VwaWtfcHl0aG9uJywgJy1waHQnLCAnMS4wJywgJy1waCcsICc3LjQnLCAnLXRuJywgJzgnLCAnLW1hJywgJzUwMCcsICctaW1hZScsICc8aW5maWxlLm1hZT4nLCAnLW9tYWUnLCAnPG91dGZpbGUubWFlPic=

>  <s_epik_input>  (1) 
W0NIMl0xW0NIMl1bQ0gyXVtOSF1jKGMxMilbY0hdW2NIXVtjSF1jMk9bQ0gyXVtDQEhdM1tDSDJdW0NIMl1bQ0BIXShbQ0hdPVtDSF0zKVtDSDJdW0NASF0oQyg9TylbT0hdKVtDSDJdW05IXVtDQF0oW0NIM10pKFtDSDJdW09IXSlbQ0gyXVtDSDNd

>  <s_glide_docking_method>  (1) 
confgen

>  <s_i_glide_gridfile>  (1) 
gpcr_drd2_6luq_protein_autoprepared_prepared

>  <s_lp_Force_Field>  (1) 
S-OPLS

>  <s_lp_Variant>  (1) 
DiffSBDD_32-1

>  <s_m_source_file>  (1) 
generated_generic_title2_ligand_DiffSBDD_2026-06-23_prepared.sdf

>  <GenAI_Model>  (1) 
DiffSBDD

>  <Protein>  (1) 
generic_title2

$$$$
DiffSBDD_28
     RDKit          3D

  0  0  0  0  0  0  0  0  0  0999 V3000
M  V30 BEGIN CTAB
M  V30 COUNTS 79 86 0 0 1
M  V30 BEGIN ATOM
M  V30 1 F 11.653154 8.266317 -6.584004 0
M  V30 2 C 6.636734 5.653416 -19.401515 0 CFG=1
M  V30 3 C 6.985861 5.004239 -15.687868 0 CFG=2
M  V30 4 C 8.527947 4.000655 -20.601329 0 CFG=2
M  V30 5 C 7.478618 4.961876 -11.073572 0 CFG=1
M  V30 6 C 5.441972 4.707466 -19.568789 0
M  V30 7 C 8.242000 5.616548 -13.545452 0 CFG=2
M  V30 8 C 9.506771 7.081407 -8.613603 0 CFG=1
M  V30 9 C 6.400693 6.424919 -15.763404 0
M  V30 10 C 8.830514 5.366438 -10.472020 0 CFG=1
M  V30 11 C 7.396197 6.417909 -21.320731 0 CFG=1
M  V30 12 C 9.352949 4.947505 -15.720614 0
M  V30 13 C 7.695469 5.240526 -20.427582 0 CFG=1
M  V30 14 O 6.802910 6.014946 -22.536512 0
M  V30 15 C 11.802684 7.857780 -7.896572 0 CFG=1
M  V30 16 C 7.195550 5.102485 -12.567105 0 CFG=1
M  V30 17 O 7.519266 3.849197 -11.984975 0
M  V30 18 N 8.187478 4.845989 -14.825114 0 CFG=2 CHG=1
M  V30 19 O 10.128940 2.661505 -21.756993 0
M  V30 20 C 12.926419 8.430742 -8.648717 0
M  V30 21 O 9.065144 5.203347 -20.025172 0
M  V30 22 C 9.581867 6.252778 -11.501002 0
M  V30 23 C 6.461902 6.944779 -20.236033 0
M  V30 24 N 7.039292 5.865111 -17.978973 0
M  V30 25 C 9.083803 3.598768 -21.948821 0
M  V30 26 N 8.975408 7.307599 -7.260723 0 CHG=1
M  V30 27 C 9.630503 5.576335 -12.879024 0
M  V30 28 C 8.600962 5.986836 -6.748028 0
M  V30 29 C 8.376152 5.097794 -7.984986 0
M  V30 30 O 13.580181 7.990226 -9.584957 0
M  V30 31 C 8.894874 4.364071 -17.050114 0
M  V30 32 C 10.986683 6.707406 -8.442799 0
M  V30 33 O 11.773418 9.004595 -8.825373 0
M  V30 34 N 8.627696 5.990226 -9.125886 0 CFG=1 CHG=1
M  V30 35 C 5.990080 6.535980 -17.218164 0
M  V30 36 C 10.672322 2.205185 -22.981581 0
M  V30 37 C 7.394847 4.691976 -17.151755 0 CFG=1
M  V30 38 H 6.221446 4.309981 -15.339986 0
M  V30 39 H 8.345755 3.191323 -19.897067 0
M  V30 40 H 6.632146 4.912252 -10.389110 0
M  V30 41 H 5.246558 4.488643 -20.620479 0
M  V30 42 H 5.560159 3.743271 -19.078920 0
M  V30 43 H 4.547597 5.190044 -19.196132 0
M  V30 44 H 8.026660 6.667640 -13.725341 0
M  V30 45 H 9.384544 7.979494 -9.221313 0
M  V30 46 H 7.146109 7.194634 -15.584440 0
M  V30 47 H 5.570645 6.583143 -15.074237 0
M  V30 48 H 9.414509 4.455938 -10.326027 0
M  V30 49 H 8.248030 7.071335 -21.512313 0
M  V30 50 H 10.228900 4.429043 -15.331655 0
M  V30 51 H 9.618260 5.990233 -15.868271 0
M  V30 52 H 6.630339 6.798897 -23.036015 0
M  V30 53 H 6.154104 5.203247 -12.868663 0
M  V30 54 H 10.606817 6.449822 -11.224141 0
M  V30 55 H 9.105969 7.231158 -11.586285 0
M  V30 56 H 6.866459 7.831837 -19.750514 0
M  V30 57 H 5.440448 7.125945 -20.576074 0
M  V30 58 H 8.280241 3.152845 -22.537362 0
M  V30 59 H 9.441970 4.482335 -22.481737 0
M  V30 60 H 8.096176 7.811362 -7.350718 0
M  V30 61 H 9.969068 4.545468 -12.768036 0
M  V30 62 H 10.383417 6.063237 -13.495573 0
M  V30 63 H 7.736314 6.001221 -6.087221 0
M  V30 64 H 9.452150 5.623028 -6.175954 0
M  V30 65 H 7.375414 4.678362 -8.029428 0
M  V30 66 H 9.082606 4.268470 -7.985027 0
M  V30 67 H 9.028499 3.281961 -17.039778 0
M  V30 68 H 9.514586 4.758784 -17.845190 0
M  V30 69 H 11.117855 5.855684 -7.776691 0
M  V30 70 H 11.410533 6.401233 -9.377058 0
M  V30 71 H 5.866233 7.573376 -17.527450 0
M  V30 72 H 5.029018 6.037639 -17.335376 0
M  V30 73 H 11.487368 1.511427 -22.781857 0
M  V30 74 H 9.921275 1.678612 -23.571608 0
M  V30 75 H 11.067240 3.032815 -23.572443 0
M  V30 76 H 6.865263 3.800947 -17.480742 0
M  V30 77 H 8.177283 3.874477 -14.543733 0
M  V30 78 H 9.607146 7.808207 -6.650848 0
M  V30 79 H 7.765628 6.537296 -9.244237 0
M  V30 END ATOM
M  V30 BEGIN BOND
M  V30 1 1 2 6 CFG=1
M  V30 2 1 9 3
M  V30 3 1 10 5
M  V30 4 1 13 2
M  V30 5 1 13 4
M  V30 6 1 13 11
M  V30 7 1 14 11
M  V30 8 1 15 1 CFG=1
M  V30 9 1 16 5
M  V30 10 1 16 7
M  V30 11 1 17 5
M  V30 12 1 17 16
M  V30 13 1 18 3
M  V30 14 1 18 7
M  V30 15 1 18 12
M  V30 16 1 20 15
M  V30 17 1 21 4
M  V30 18 1 13 21 CFG=1
M  V30 19 1 22 10
M  V30 20 1 23 2
M  V30 21 1 23 11
M  V30 22 1 24 2
M  V30 23 1 25 4
M  V30 24 1 25 19
M  V30 25 1 26 8
M  V30 26 1 27 7
M  V30 27 1 27 22
M  V30 28 1 28 26
M  V30 29 1 29 28
M  V30 30 2 30 20
M  V30 31 1 31 12
M  V30 32 1 32 8
M  V30 33 1 32 15
M  V30 34 1 33 15
M  V30 35 1 33 20
M  V30 36 1 34 8
M  V30 37 1 34 10
M  V30 38 1 34 29
M  V30 39 1 35 9
M  V30 40 1 35 24
M  V30 41 1 36 19
M  V30 42 1 37 3
M  V30 43 1 37 24
M  V30 44 1 37 31
M  V30 45 1 3 38 CFG=1
M  V30 46 1 4 39 CFG=1
M  V30 47 1 5 40 CFG=1
M  V30 48 1 41 6
M  V30 49 1 42 6
M  V30 50 1 43 6
M  V30 51 1 7 44 CFG=3
M  V30 52 1 8 45 CFG=3
M  V30 53 1 46 9
M  V30 54 1 47 9
M  V30 55 1 10 48 CFG=1
M  V30 56 1 11 49 CFG=3
M  V30 57 1 50 12
M  V30 58 1 51 12
M  V30 59 1 52 14
M  V30 60 1 16 53 CFG=1
M  V30 61 1 54 22
M  V30 62 1 55 22
M  V30 63 1 56 23
M  V30 64 1 57 23
M  V30 65 1 58 25
M  V30 66 1 59 25
M  V30 67 1 60 26
M  V30 68 1 61 27
M  V30 69 1 62 27
M  V30 70 1 63 28
M  V30 71 1 64 28
M  V30 72 1 65 29
M  V30 73 1 66 29
M  V30 74 1 67 31
M  V30 75 1 68 31
M  V30 76 1 69 32
M  V30 77 1 70 32
M  V30 78 1 71 35
M  V30 79 1 72 35
M  V30 80 1 73 36
M  V30 81 1 74 36
M  V30 82 1 75 36
M  V30 83 1 37 76 CFG=3
M  V30 84 1 18 77 CFG=1
M  V30 85 1 78 26
M  V30 86 1 34 79 CFG=3
M  V30 END BOND
M  V30 END CTAB
M  END
>  <i_epik_Tot_Q>  (1) 
3

>  <i_epik_Tot_abs_Q>  (1) 
3

>  <i_i_glide_confnum>  (1) 
296

>  <i_i_glide_lignum>  (1) 
79

>  <i_i_glide_posenum>  (1) 
222

>  <i_i_glide_rotatable_bonds>  (1) 
8

>  <i_lp_mmshare_version>  (1) 
72125

>  <i_m_source_file_index>  (1) 
29

>  <i_f3d_flags>  (1) 
0

>  <num_sample>  (1) 
50

>  <b_lp_Chiralities_Consistent>  (1) 
1

>  <r_epik_Charging_Adjusted_Penalty>  (1) 
2.5241965566360229

>  <r_epik_Ionization_Penalty>  (1) 
2.0480993089750741

>  <r_epik_Ionization_Penalty_Charging>  (1) 
2.0477503768466887

>  <r_epik_Ionization_Penalty_Neutral>  (1) 
0.00034893212838530931

>  <r_epik_State_Penalty>  (1) 
0.4764461797893344

>  <r_glide_ring_energy>  (1) 
0.8191457475608499

>  <r_i_docking_score>  (1) 
-7.0964926850901691

>  <r_i_glide_ecoul>  (1) 
-12.137818568208708

>  <r_i_glide_eff_state_penalty>  (1) 
0.4764461797893344

>  <r_i_glide_einternal>  (1) 
19.199125268882767

>  <r_i_glide_emodel>  (1) 
-50.07048535665848

>  <r_i_glide_emodel_strain>  (1) 
1.4996895458025392

>  <r_i_glide_energy>  (1) 
-36.001640181641868

>  <r_i_glide_erotb>  (1) 
0.31289092967319998

>  <r_i_glide_esite>  (1) 
-0.27695839731406025

>  <r_i_glide_evdw>  (1) 
-23.86382161343316

>  <r_i_glide_gscore>  (1) 
-7.5729388648795037

>  <r_i_glide_gscore_strain>  (1) 
0

>  <r_i_glide_hbond>  (1) 
-0.36944335982292226

>  <r_i_glide_ligand_efficiency>  (1) 
-0.19179709959703159

>  <r_i_glide_ligand_efficiency_ln>  (1) 
-1.5390628980034351

>  <r_i_glide_ligand_efficiency_sa>  (1) 
-0.63911048635954404

>  <r_i_glide_lipo>  (1) 
-1.4098151411363851

>  <r_i_glide_metal>  (1) 
-0

>  <r_i_glide_rewards>  (1) 
-2.8157490303763719

>  <r_lp_Energy>  (1) 
81.803054000000003

>  <s_epik_Chemistry_Notes>  (1) 
This compound has an ester and may undergo hydrolysis at high or low pH. This compound contains an acetal/aminal-like group ( X-CH(R)-Y where X, Y are N, S, or O) that may be acid/base labile, releasing an aldehyde.

>  <s_epik_cmdline>  (1) 
J2VwaWtfcHl0aG9uJywgJy1waHQnLCAnMS4wJywgJy1waCcsICc3LjQnLCAnLXRuJywgJzgnLCAnLW1hJywgJzUwMCcsICctaW1hZScsICc8aW5maWxlLm1hZT4nLCAnLW9tYWUnLCAnPG91dGZpbGUubWFlPic=

>  <s_epik_input>  (1) 
Tz1DKE8xKUMxKEYpW0NIMl1bQ0BASF0yW05IXVtDSDJdW0NIMl1OMltDQEBIXTNbQ0gyXVtDSDJdW0NASF0oW0NAQEhdKE80KVtDQEhdMzQpTjVbQ0gyXVtDSDJdW0NAQEhdKFtDQEhdNTYpTihbQ0gyXVtDSDJdNilbQ0BAXShbQ0gzXSkoW0NIMl1bQ0BASF03W09IXSlbQ0BAXTc4W0NASF0oTzgpW0NIMl1PW0NIM10=

>  <s_glide_docking_method>  (1) 
confgen

>  <s_i_glide_gridfile>  (1) 
gpcr_drd2_6luq_protein_autoprepared_prepared

>  <s_lp_Force_Field>  (1) 
S-OPLS

>  <s_lp_Variant>  (1) 
DiffSBDD_28-2

>  <s_m_source_file>  (1) 
generated_generic_title2_ligand_DiffSBDD_2026-06-23_prepared.sdf

>  <GenAI_Model>  (1) 
DiffSBDD

>  <Protein>  (1) 
generic_title2

$$$$
DiffSBDD_17
     RDKit          3D

  0  0  0  0  0  0  0  0  0  0999 V3000
M  V30 BEGIN CTAB
M  V30 COUNTS 49 53 0 0 1
M  V30 BEGIN ATOM
M  V30 1 C 8.479520 5.170305 -14.123136 0
M  V30 2 N 8.975423 7.672147 -10.785025 0
M  V30 3 C 9.676321 6.391850 -7.041808 0
M  V30 4 O 11.453330 7.339982 -10.177153 0
M  V30 5 S 10.159338 7.588535 -9.526653 0
M  V30 6 C 5.443565 7.481893 -16.755682 0
M  V30 7 C 6.241995 4.283473 -19.442495 0
M  V30 8 C 9.348708 4.769096 -13.104418 0
M  V30 9 C 9.609741 6.124785 -8.551686 0
M  V30 10 C 8.254260 4.366490 -15.464701 0
M  V30 11 C 6.896051 4.306862 -18.188013 0
M  V30 12 O 9.960834 8.790195 -8.712991 0
M  V30 13 O 4.876856 5.016101 -21.027857 0
M  V30 14 C 6.623389 5.375599 -17.286883 0
M  V30 15 C 7.759310 6.330817 -14.025919 0
M  V30 16 C 6.382800 3.326623 -20.424735 0
M  V30 17 C 9.505829 5.600589 -11.975039 0
M  V30 18 C 6.099407 7.521550 -15.500866 0
M  V30 19 C 5.524220 3.793140 -21.414654 0
M  V30 20 C 5.707219 6.412360 -17.656630 0
M  V30 21 C 11.108991 6.802465 -4.986775 0
M  V30 22 C 7.882379 7.185182 -12.916100 0
M  V30 23 C 6.990810 6.487827 -15.171799 0
M  V30 24 C 7.237308 5.441767 -16.025822 0
M  V30 25 C 11.106113 6.515464 -6.491459 0
M  V30 26 C 5.372462 5.285073 -19.760206 0
M  V30 27 C 8.787312 6.824620 -11.883016 0
M  V30 28 C 5.075849 6.358775 -18.915026 0
M  V30 29 H 8.070490 7.990105 -10.398479 0
M  V30 30 H 9.106353 7.292477 -6.808640 0
M  V30 31 H 9.158120 5.591559 -6.522144 0
M  V30 32 H 4.753888 8.265462 -17.029259 0
M  V30 33 H 9.901001 3.848009 -13.183228 0
M  V30 34 H 8.566694 5.944326 -8.818774 0
M  V30 35 H 10.186427 5.249753 -8.843942 0
M  V30 36 H 7.791432 3.394360 -15.294425 0
M  V30 37 H 9.164198 4.288597 -16.060515 0
M  V30 38 H 7.586570 3.521301 -17.918168 0
M  V30 39 H 7.018339 2.454273 -20.376641 0
M  V30 40 H 10.175250 5.309419 -11.190259 0
M  V30 41 H 5.918833 8.331532 -14.815370 0
M  V30 42 H 5.252631 3.427929 -22.394589 0
M  V30 43 H 12.122284 6.895028 -4.596548 0
M  V30 44 H 10.587922 7.737668 -4.785154 0
M  V30 45 H 10.609543 6.007615 -4.430488 0
M  V30 46 H 7.325726 8.106023 -12.863039 0
M  V30 47 H 11.662146 5.597538 -6.688708 0
M  V30 48 H 11.636134 7.316405 -7.007924 0
M  V30 49 H 4.379296 7.125718 -19.219188 0
M  V30 END ATOM
M  V30 BEGIN BOND
M  V30 1 1 5 2
M  V30 2 2 5 4
M  V30 3 2 8 1
M  V30 4 1 9 3
M  V30 5 1 9 5
M  V30 6 1 10 1
M  V30 7 2 11 7
M  V30 8 2 12 5
M  V30 9 1 14 11
M  V30 10 1 15 1
M  V30 11 1 16 7
M  V30 12 1 17 8
M  V30 13 1 18 6
M  V30 14 1 19 13
M  V30 15 2 19 16
M  V30 16 2 20 6
M  V30 17 1 20 14
M  V30 18 2 22 15
M  V30 19 1 23 15
M  V30 20 2 23 18
M  V30 21 1 24 10
M  V30 22 2 24 14
M  V30 23 1 24 23
M  V30 24 1 25 3
M  V30 25 1 25 21
M  V30 26 1 26 7
M  V30 27 1 26 13
M  V30 28 1 27 2
M  V30 29 2 27 17
M  V30 30 1 27 22
M  V30 31 1 28 20
M  V30 32 2 28 26
M  V30 33 1 29 2
M  V30 34 1 30 3
M  V30 35 1 31 3
M  V30 36 1 32 6
M  V30 37 1 33 8
M  V30 38 1 34 9
M  V30 39 1 35 9
M  V30 40 1 36 10
M  V30 41 1 37 10
M  V30 42 1 38 11
M  V30 43 1 39 16
M  V30 44 1 40 17
M  V30 45 1 41 18
M  V30 46 1 42 19
M  V30 47 1 43 21
M  V30 48 1 44 21
M  V30 49 1 45 21
M  V30 50 1 46 22
M  V30 51 1 47 25
M  V30 52 1 48 25
M  V30 53 1 49 28
M  V30 END BOND
M  V30 END CTAB
M  END
>  <i_epik_Tot_Q>  (1) 
0

>  <i_epik_Tot_abs_Q>  (1) 
0

>  <i_i_glide_confnum>  (1) 
6

>  <i_i_glide_lignum>  (1) 
60

>  <i_i_glide_posenum>  (1) 
169

>  <i_i_glide_rotatable_bonds>  (1) 
5

>  <i_lp_mmshare_version>  (1) 
72125

>  <i_m_source_file_index>  (1) 
18

>  <i_f3d_flags>  (1) 
0

>  <num_sample>  (1) 
50

>  <b_lp_Chiralities_Consistent>  (1) 
1

>  <r_epik_Charging_Adjusted_Penalty>  (1) 
0.043283066486764811

>  <r_epik_Ionization_Penalty>  (1) 
0.043283066491373014

>  <r_epik_Ionization_Penalty_Charging>  (1) 
0

>  <r_epik_Ionization_Penalty_Neutral>  (1) 
0.043283066491373014

>  <r_epik_State_Penalty>  (1) 
0.043283066486764811

>  <r_glide_ring_energy>  (1) 
0

>  <r_i_docking_score>  (1) 
-7.0870007629852108

>  <r_i_glide_ecoul>  (1) 
-9.2366537408438099

>  <r_i_glide_eff_state_penalty>  (1) 
0.043283066486764811

>  <r_i_glide_einternal>  (1) 
1.9201428352876702

>  <r_i_glide_emodel>  (1) 
-50.279398837634055

>  <r_i_glide_emodel_strain>  (1) 
1.3586765752763483

>  <r_i_glide_energy>  (1) 
-38.110404609465206

>  <r_i_glide_erotb>  (1) 
0.38198521986113965

>  <r_i_glide_esite>  (1) 
-0.23641018550567097

>  <r_i_glide_evdw>  (1) 
-28.8737508686214

>  <r_i_glide_gscore>  (1) 
-7.1302838294719759

>  <r_i_glide_gscore_strain>  (1) 
0

>  <r_i_glide_hbond>  (1) 
-0.14744600121440743

>  <r_i_glide_ligand_efficiency>  (1) 
-0.25310717010661465

>  <r_i_glide_ligand_efficiency_ln>  (1) 
-1.6358878594811759

>  <r_i_glide_ligand_efficiency_sa>  (1) 
-0.7685824414484036

>  <r_i_glide_lipo>  (1) 
-2.9849852942295101

>  <r_i_glide_metal>  (1) 
-0

>  <r_i_glide_rewards>  (1) 
-1.3142419638258853

>  <r_lp_Energy>  (1) 
17.101319999999998

>  <s_epik_cmdline>  (1) 
J2VwaWtfcHl0aG9uJywgJy1waHQnLCAnMS4wJywgJy1waCcsICc3LjQnLCAnLXRuJywgJzgnLCAnLW1hJywgJzUwMCcsICctaW1hZScsICc8aW5maWxlLm1hZT4nLCAnLW9tYWUnLCAnPG91dGZpbGUubWFlPic=

>  <s_epik_input>  (1) 
W0NIM11bQ0gyXVtDSDJdW0NIMl1TKD1PKSg9TylbTkhdYyhbY0hdW2NIXTEpW2NIXWMoYzEyKWMzYyhbQ0gyXTIpYzRjKFtjSF1bY0hdMylbY0hdYzVjKFtjSF00KVtjSF1bY0hdbzU=

>  <s_glide_docking_method>  (1) 
confgen

>  <s_i_glide_gridfile>  (1) 
gpcr_drd2_6luq_protein_autoprepared_prepared

>  <s_lp_Force_Field>  (1) 
S-OPLS

>  <s_lp_Variant>  (1) 
DiffSBDD_17-1

>  <s_m_source_file>  (1) 
generated_generic_title2_ligand_DiffSBDD_2026-06-23_prepared.sdf

>  <GenAI_Model>  (1) 
DiffSBDD

>  <Protein>  (1) 
generic_title2

$$$$
DiffSBDD_17
     RDKit          3D

  0  0  0  0  0  0  0  0  0  0999 V3000
M  V30 BEGIN CTAB
M  V30 COUNTS 49 53 0 0 1
M  V30 BEGIN ATOM
M  V30 1 C 8.347844 4.896014 -14.126129 0
M  V30 2 N 8.975409 7.232637 -10.693955 0
M  V30 3 C 10.550459 8.113450 -6.881414 0
M  V30 4 O 9.700573 5.583557 -8.857069 0
M  V30 5 S 10.047583 6.919333 -9.365103 0
M  V30 6 C 5.575636 7.539824 -16.750262 0
M  V30 7 C 6.133775 4.356699 -19.514085 0
M  V30 8 C 9.157205 4.390272 -13.099158 0
M  V30 9 C 9.607493 8.178066 -8.097452 0
M  V30 10 C 8.078635 4.152361 -15.496954 0
M  V30 11 C 6.767664 4.289392 -18.250907 0
M  V30 12 O 11.398908 7.217228 -9.859915 0
M  V30 13 O 4.862863 5.247766 -21.096549 0
M  V30 14 C 6.575415 5.352852 -17.322050 0
M  V30 15 C 7.731911 6.114294 -14.009614 0
M  V30 16 C 6.205394 3.417132 -20.520240 0
M  V30 17 C 9.366442 5.172189 -11.947123 0
M  V30 18 C 6.208208 7.488538 -15.484656 0
M  V30 19 C 5.406344 3.982832 -21.508093 0
M  V30 20 C 5.759487 6.475503 -17.675878 0
M  V30 21 C 11.211582 6.804422 -4.759158 0
M  V30 22 C 7.902679 6.920440 -12.869129 0
M  V30 23 C 7.001991 6.371255 -15.167967 0
M  V30 24 C 7.171485 5.330248 -16.047226 0
M  V30 25 C 10.287924 6.896005 -5.976072 0
M  V30 26 C 5.360105 5.438326 -19.815094 0
M  V30 27 C 8.748761 6.447931 -11.827653 0
M  V30 28 C 5.145450 6.510549 -18.944487 0
M  V30 29 H 8.079038 7.590226 -10.312420 0
M  V30 30 H 11.587373 8.114077 -7.219841 0
M  V30 31 H 10.421876 9.021410 -6.291801 0
M  V30 32 H 4.964134 8.389443 -17.013747 0
M  V30 33 H 9.627952 3.427804 -13.185024 0
M  V30 34 H 9.651571 9.150103 -8.583749 0
M  V30 35 H 8.575576 8.008806 -7.792426 0
M  V30 36 H 7.526093 3.222003 -15.365466 0
M  V30 37 H 8.989373 4.010877 -16.078737 0
M  V30 38 H 7.382253 3.439422 -17.994073 0
M  V30 39 H 6.760897 2.491170 -20.487280 0
M  V30 40 H 10.001092 4.799447 -11.161320 0
M  V30 41 H 6.087835 8.294098 -14.785027 0
M  V30 42 H 5.118733 3.668215 -22.500757 0
M  V30 43 H 10.792509 6.132204 -4.009676 0
M  V30 44 H 12.175409 6.393655 -5.047062 0
M  V30 45 H 11.375333 7.775501 -4.291541 0
M  V30 46 H 7.422677 7.885140 -12.796175 0
M  V30 47 H 9.256190 6.929812 -5.637859 0
M  V30 48 H 10.386128 5.969358 -6.535693 0
M  V30 49 H 4.523029 7.343136 -19.237099 0
M  V30 END ATOM
M  V30 BEGIN BOND
M  V30 1 1 5 2
M  V30 2 2 5 4
M  V30 3 2 8 1
M  V30 4 1 9 3
M  V30 5 1 9 5
M  V30 6 1 10 1
M  V30 7 2 11 7
M  V30 8 2 12 5
M  V30 9 1 14 11
M  V30 10 1 15 1
M  V30 11 1 16 7
M  V30 12 1 17 8
M  V30 13 1 18 6
M  V30 14 1 19 13
M  V30 15 2 19 16
M  V30 16 2 20 6
M  V30 17 1 20 14
M  V30 18 2 22 15
M  V30 19 1 23 15
M  V30 20 2 23 18
M  V30 21 1 24 10
M  V30 22 2 24 14
M  V30 23 1 24 23
M  V30 24 1 25 3
M  V30 25 1 25 21
M  V30 26 1 26 7
M  V30 27 1 26 13
M  V30 28 1 27 2
M  V30 29 2 27 17
M  V30 30 1 27 22
M  V30 31 1 28 20
M  V30 32 2 28 26
M  V30 33 1 29 2
M  V30 34 1 30 3
M  V30 35 1 31 3
M  V30 36 1 32 6
M  V30 37 1 33 8
M  V30 38 1 34 9
M  V30 39 1 35 9
M  V30 40 1 36 10
M  V30 41 1 37 10
M  V30 42 1 38 11
M  V30 43 1 39 16
M  V30 44 1 40 17
M  V30 45 1 41 18
M  V30 46 1 42 19
M  V30 47 1 43 21
M  V30 48 1 44 21
M  V30 49 1 45 21
M  V30 50 1 46 22
M  V30 51 1 47 25
M  V30 52 1 48 25
M  V30 53 1 49 28
M  V30 END BOND
M  V30 END CTAB
M  END
>  <i_epik_Tot_Q>  (1) 
0

>  <i_epik_Tot_abs_Q>  (1) 
0

>  <i_i_glide_confnum>  (1) 
7

>  <i_i_glide_lignum>  (1) 
60

>  <i_i_glide_posenum>  (1) 
17

>  <i_i_glide_rotatable_bonds>  (1) 
5

>  <i_lp_mmshare_version>  (1) 
72125

>  <i_m_source_file_index>  (1) 
18

>  <i_f3d_flags>  (1) 
0

>  <num_sample>  (1) 
50

>  <b_lp_Chiralities_Consistent>  (1) 
1

>  <r_epik_Charging_Adjusted_Penalty>  (1) 
0.043283066486764811

>  <r_epik_Ionization_Penalty>  (1) 
0.043283066491373014

>  <r_epik_Ionization_Penalty_Charging>  (1) 
0

>  <r_epik_Ionization_Penalty_Neutral>  (1) 
0.043283066491373014

>  <r_epik_State_Penalty>  (1) 
0.043283066486764811

>  <r_glide_ring_energy>  (1) 
0

>  <r_i_docking_score>  (1) 
-7.0852556321308331

>  <r_i_glide_ecoul>  (1) 
-8.0148100924204471

>  <r_i_glide_eff_state_penalty>  (1) 
0.043283066486764811

>  <r_i_glide_einternal>  (1) 
3.3631088683815644

>  <r_i_glide_emodel>  (1) 
-47.006966416203426

>  <r_i_glide_emodel_strain>  (1) 
1.9912152572810982

>  <r_i_glide_energy>  (1) 
-36.195539749074356

>  <r_i_glide_erotb>  (1) 
0.38198521986113965

>  <r_i_glide_esite>  (1) 
-0.19034248734209705

>  <r_i_glide_evdw>  (1) 
-28.180729656653913

>  <r_i_glide_gscore>  (1) 
-7.1285386986175983

>  <r_i_glide_gscore_strain>  (1) 
0

>  <r_i_glide_hbond>  (1) 
-0.13849747955291875

>  <r_i_glide_ligand_efficiency>  (1) 
-0.25304484400467259

>  <r_i_glide_ligand_efficiency_ln>  (1) 
-1.635485032040717

>  <r_i_glide_ligand_efficiency_sa>  (1) 
-0.76839318269458634

>  <r_i_glide_lipo>  (1) 
-3.2055885470590355

>  <r_i_glide_metal>  (1) 
-0

>  <r_i_glide_rewards>  (1) 
-1.3648374078289243

>  <r_lp_Energy>  (1) 
17.101319999999998

>  <s_epik_cmdline>  (1) 
J2VwaWtfcHl0aG9uJywgJy1waHQnLCAnMS4wJywgJy1waCcsICc3LjQnLCAnLXRuJywgJzgnLCAnLW1hJywgJzUwMCcsICctaW1hZScsICc8aW5maWxlLm1hZT4nLCAnLW9tYWUnLCAnPG91dGZpbGUubWFlPic=

>  <s_epik_input>  (1) 
W0NIM11bQ0gyXVtDSDJdW0NIMl1TKD1PKSg9TylbTkhdYyhbY0hdW2NIXTEpW2NIXWMoYzEyKWMzYyhbQ0gyXTIpYzRjKFtjSF1bY0hdMylbY0hdYzVjKFtjSF00KVtjSF1bY0hdbzU=

>  <s_glide_docking_method>  (1) 
confgen

>  <s_i_glide_gridfile>  (1) 
gpcr_drd2_6luq_protein_autoprepared_prepared

>  <s_lp_Force_Field>  (1) 
S-OPLS

>  <s_lp_Variant>  (1) 
DiffSBDD_17-1

>  <s_m_source_file>  (1) 
generated_generic_title2_ligand_DiffSBDD_2026-06-23_prepared.sdf

>  <GenAI_Model>  (1) 
DiffSBDD

>  <Protein>  (1) 
generic_title2

$$$$
DiffSBDD_17
     RDKit          3D

  0  0  0  0  0  0  0  0  0  0999 V3000
M  V30 BEGIN CTAB
M  V30 COUNTS 49 53 0 0 1
M  V30 BEGIN ATOM
M  V30 1 C 8.458882 4.515605 -13.432059 0
M  V30 2 N 8.575410 5.990256 -9.508001 0
M  V30 3 C 10.488679 8.672213 -6.819439 0
M  V30 4 O 10.485189 5.590155 -7.822990 0
M  V30 5 S 9.991545 6.640976 -8.718872 0
M  V30 6 C 5.531228 7.412536 -15.553792 0
M  V30 7 C 6.364817 4.902935 -18.880567 0
M  V30 8 C 9.246821 3.853585 -12.482045 0
M  V30 9 C 9.379087 8.038061 -7.687459 0
M  V30 10 C 8.327745 4.078630 -14.949411 0
M  V30 11 C 7.008162 4.645064 -17.646013 0
M  V30 12 O 10.856175 7.191545 -9.773704 0
M  V30 13 O 5.015540 5.973094 -20.275424 0
M  V30 14 C 6.727322 5.484066 -16.530874 0
M  V30 15 C 7.725824 5.618398 -13.094902 0
M  V30 16 C 6.508623 4.184835 -20.048203 0
M  V30 17 C 9.282172 4.351677 -11.159292 0
M  V30 18 C 6.147005 7.144575 -14.303899 0
M  V30 19 C 5.656160 4.859449 -20.916142 0
M  V30 20 C 5.814427 6.579635 -16.670311 0
M  V30 21 C 11.771860 8.553028 -4.610341 0
M  V30 22 C 7.736284 6.143329 -11.795720 0
M  V30 23 C 7.031797 6.063701 -14.204267 0
M  V30 24 C 7.318073 5.256664 -15.274081 0
M  V30 25 C 11.009544 7.769680 -5.687059 0
M  V30 26 C 5.500866 5.952940 -18.975887 0
M  V30 27 C 8.531554 5.499386 -10.811979 0
M  V30 28 C 5.197693 6.811692 -17.917185 0
M  V30 29 H 7.809452 6.672428 -9.388434 0
M  V30 30 H 11.320251 8.986875 -7.450767 0
M  V30 31 H 10.109909 9.588970 -6.372376 0
M  V30 32 H 4.840284 8.238157 -15.651655 0
M  V30 33 H 9.815900 2.980176 -12.751318 0
M  V30 34 H 8.957347 8.779621 -8.364452 0
M  V30 35 H 8.571917 7.656365 -7.062844 0
M  V30 36 H 7.888258 3.086274 -15.063925 0
M  V30 37 H 9.267320 4.178631 -15.491864 0
M  V30 38 H 7.692986 3.815284 -17.552329 0
M  V30 39 H 7.138521 3.320291 -20.187885 0
M  V30 40 H 9.876628 3.856345 -10.411068 0
M  V30 41 H 5.929823 7.751184 -13.441403 0
M  V30 42 H 5.385944 4.717739 -21.951623 0
M  V30 43 H 12.178429 7.876430 -3.857591 0
M  V30 44 H 12.596697 9.121138 -5.040869 0
M  V30 45 H 11.117578 9.259799 -4.099769 0
M  V30 46 H 7.153964 7.018797 -11.551142 0
M  V30 47 H 10.180174 7.239998 -5.216389 0
M  V30 48 H 11.667841 7.003860 -6.097876 0
M  V30 49 H 4.501809 7.627864 -18.050704 0
M  V30 END ATOM
M  V30 BEGIN BOND
M  V30 1 1 5 2
M  V30 2 2 5 4
M  V30 3 2 8 1
M  V30 4 1 9 3
M  V30 5 1 9 5
M  V30 6 1 10 1
M  V30 7 2 11 7
M  V30 8 2 12 5
M  V30 9 1 14 11
M  V30 10 1 15 1
M  V30 11 1 16 7
M  V30 12 1 17 8
M  V30 13 1 18 6
M  V30 14 1 19 13
M  V30 15 2 19 16
M  V30 16 2 20 6
M  V30 17 1 20 14
M  V30 18 2 22 15
M  V30 19 1 23 15
M  V30 20 2 23 18
M  V30 21 1 24 10
M  V30 22 2 24 14
M  V30 23 1 24 23
M  V30 24 1 25 3
M  V30 25 1 25 21
M  V30 26 1 26 7
M  V30 27 1 26 13
M  V30 28 1 27 2
M  V30 29 2 27 17
M  V30 30 1 27 22
M  V30 31 1 28 20
M  V30 32 2 28 26
M  V30 33 1 29 2
M  V30 34 1 30 3
M  V30 35 1 31 3
M  V30 36 1 32 6
M  V30 37 1 33 8
M  V30 38 1 34 9
M  V30 39 1 35 9
M  V30 40 1 36 10
M  V30 41 1 37 10
M  V30 42 1 38 11
M  V30 43 1 39 16
M  V30 44 1 40 17
M  V30 45 1 41 18
M  V30 46 1 42 19
M  V30 47 1 43 21
M  V30 48 1 44 21
M  V30 49 1 45 21
M  V30 50 1 46 22
M  V30 51 1 47 25
M  V30 52 1 48 25
M  V30 53 1 49 28
M  V30 END BOND
M  V30 END CTAB
M  END
>  <i_epik_Tot_Q>  (1) 
0

>  <i_epik_Tot_abs_Q>  (1) 
0

>  <i_i_glide_confnum>  (1) 
19

>  <i_i_glide_lignum>  (1) 
60

>  <i_i_glide_posenum>  (1) 
252

>  <i_i_glide_rotatable_bonds>  (1) 
5

>  <i_lp_mmshare_version>  (1) 
72125

>  <i_m_source_file_index>  (1) 
18

>  <i_f3d_flags>  (1) 
0

>  <num_sample>  (1) 
50

>  <b_lp_Chiralities_Consistent>  (1) 
1

>  <r_epik_Charging_Adjusted_Penalty>  (1) 
0.043283066486764811

>  <r_epik_Ionization_Penalty>  (1) 
0.043283066491373014

>  <r_epik_Ionization_Penalty_Charging>  (1) 
0

>  <r_epik_Ionization_Penalty_Neutral>  (1) 
0.043283066491373014

>  <r_epik_State_Penalty>  (1) 
0.043283066486764811

>  <r_glide_ring_energy>  (1) 
0

>  <r_i_docking_score>  (1) 
-7.0629812079219363

>  <r_i_glide_ecoul>  (1) 
-7.8107262274489724

>  <r_i_glide_eff_state_penalty>  (1) 
0.043283066486764811

>  <r_i_glide_einternal>  (1) 
6.1295991727266479

>  <r_i_glide_emodel>  (1) 
-47.750134195677305

>  <r_i_glide_emodel_strain>  (1) 
0.92539452219212137

>  <r_i_glide_energy>  (1) 
-37.301390468823797

>  <r_i_glide_erotb>  (1) 
0.38198521986113965

>  <r_i_glide_esite>  (1) 
-0.15455375745535704

>  <r_i_glide_evdw>  (1) 
-29.490664241374827

>  <r_i_glide_gscore>  (1) 
-7.1062642744087015

>  <r_i_glide_gscore_strain>  (1) 
0

>  <r_i_glide_hbond>  (1) 
-0.13168996329375643

>  <r_i_glide_ligand_efficiency>  (1) 
-0.25224932885435486

>  <r_i_glide_ligand_efficiency_ln>  (1) 
-1.6303434409277906

>  <r_i_glide_ligand_efficiency_sa>  (1) 
-0.7659775301621714

>  <r_i_glide_lipo>  (1) 
-3.1593906064253368

>  <r_i_glide_metal>  (1) 
-0

>  <r_i_glide_rewards>  (1) 
-1.3964730209093039

>  <r_lp_Energy>  (1) 
17.101319999999998

>  <s_epik_cmdline>  (1) 
J2VwaWtfcHl0aG9uJywgJy1waHQnLCAnMS4wJywgJy1waCcsICc3LjQnLCAnLXRuJywgJzgnLCAnLW1hJywgJzUwMCcsICctaW1hZScsICc8aW5maWxlLm1hZT4nLCAnLW9tYWUnLCAnPG91dGZpbGUubWFlPic=

>  <s_epik_input>  (1) 
W0NIM11bQ0gyXVtDSDJdW0NIMl1TKD1PKSg9TylbTkhdYyhbY0hdW2NIXTEpW2NIXWMoYzEyKWMzYyhbQ0gyXTIpYzRjKFtjSF1bY0hdMylbY0hdYzVjKFtjSF00KVtjSF1bY0hdbzU=

>  <s_glide_docking_method>  (1) 
confgen

>  <s_i_glide_gridfile>  (1) 
gpcr_drd2_6luq_protein_autoprepared_prepared

>  <s_lp_Force_Field>  (1) 
S-OPLS

>  <s_lp_Variant>  (1) 
DiffSBDD_17-1

>  <s_m_source_file>  (1) 
generated_generic_title2_ligand_DiffSBDD_2026-06-23_prepared.sdf

>  <GenAI_Model>  (1) 
DiffSBDD

>  <Protein>  (1) 
generic_title2

$$$$
DiffSBDD_15
     RDKit          3D

  0  0  0  0  0  0  0  0  0  0999 V3000
M  V30 BEGIN CTAB
M  V30 COUNTS 47 48 0 0 1
M  V30 BEGIN ATOM
M  V30 1 C 11.139222 8.958645 -5.185026 0
M  V30 2 C 8.896159 5.212841 -9.908764 0
M  V30 3 Cl 8.410317 3.824634 -12.231062 0
M  V30 4 C 11.920687 9.016647 -4.092925 0
M  V30 5 C 11.577332 6.507932 -3.662030 0
M  V30 6 C 10.430770 7.631370 -7.294851 0 CFG=2
M  V30 7 N 7.679962 7.155563 -11.844764 0 CFG=2 CHG=1
M  V30 8 C 10.558684 7.664720 -5.744099 0 CFG=1
M  V30 9 O 5.375413 7.855590 -11.585058 0
M  V30 10 C 9.213095 5.198666 -11.439187 0 CFG=1
M  V30 11 P 6.173847 6.790222 -12.601467 0
M  V30 12 C 8.275705 8.439371 -12.176060 0
M  V30 13 C 9.631379 7.768835 -12.021719 0
M  V30 14 N 9.375404 6.436630 -9.222264 0 CHG=1
M  V30 15 O 12.504414 8.790255 -7.736534 0
M  V30 16 O 5.775579 5.586158 -11.521529 0
M  V30 17 C 9.732797 6.332850 -7.794470 0
M  V30 18 C 12.324244 7.800586 -3.275015 0
M  V30 19 C 11.751456 7.875470 -8.052877 0
M  V30 20 C 8.888420 6.453528 -12.257839 0 CFG=2
M  V30 21 C 11.270625 6.426528 -5.164341 0
M  V30 22 H 10.893185 9.868715 -5.713686 0
M  V30 23 H 7.826000 5.109304 -9.723280 0
M  V30 24 H 9.375412 4.346464 -9.455231 0
M  V30 25 H 12.297600 9.971453 -3.756474 0
M  V30 26 H 12.175267 5.647336 -3.359897 0
M  V30 27 H 10.646788 6.390235 -3.103594 0
M  V30 28 H 9.783649 8.467742 -7.562480 0
M  V30 29 H 9.537400 7.643240 -5.373374 0
M  V30 30 H 5.821879 7.912898 -10.737211 0
M  V30 31 H 10.268170 4.985915 -11.585037 0
M  V30 32 H 8.047610 8.771663 -13.185049 0
M  V30 33 H 8.051258 9.190222 -11.422369 0
M  V30 34 H 10.363435 7.990121 -12.785023 0
M  V30 35 H 10.067976 7.927516 -11.040323 0
M  V30 36 H 10.194691 6.762095 -9.712874 0
M  V30 37 H 4.852437 5.661969 -11.327579 0
M  V30 38 H 8.821351 6.143400 -7.224776 0
M  V30 39 H 10.387985 5.472349 -7.651339 0
M  V30 40 H 13.392231 7.653758 -3.415560 0
M  V30 41 H 12.176497 8.012362 -2.215944 0
M  V30 42 H 11.955255 7.190247 -8.875145 0
M  V30 43 H 8.856925 6.251077 -13.331342 0
M  V30 44 H 10.606552 5.590226 -5.313863 0
M  V30 45 H 12.175409 6.200295 -5.721592 0
M  V30 46 H 7.541084 7.142591 -10.839379 0
M  V30 47 H 8.646389 7.144523 -9.269467 0
M  V30 END ATOM
M  V30 BEGIN BOND
M  V30 1 2 4 1
M  V30 2 1 8 1
M  V30 3 1 8 6
M  V30 4 1 10 2
M  V30 5 1 10 3
M  V30 6 1 11 7
M  V30 7 1 11 9
M  V30 8 1 12 7
M  V30 9 1 13 12
M  V30 10 1 14 2
M  V30 11 1 16 11
M  V30 12 1 17 6
M  V30 13 1 17 14
M  V30 14 1 18 4
M  V30 15 1 18 5
M  V30 16 1 19 6
M  V30 17 2 19 15
M  V30 18 1 20 7
M  V30 19 1 20 10
M  V30 20 1 20 13
M  V30 21 1 21 5
M  V30 22 1 21 8
M  V30 23 1 22 1
M  V30 24 1 23 2
M  V30 25 1 24 2
M  V30 26 1 25 4
M  V30 27 1 26 5
M  V30 28 1 27 5
M  V30 29 1 6 28 CFG=3
M  V30 30 1 8 29 CFG=1
M  V30 31 1 30 9
M  V30 32 1 10 31 CFG=1
M  V30 33 1 32 12
M  V30 34 1 33 12
M  V30 35 1 34 13
M  V30 36 1 35 13
M  V30 37 1 36 14
M  V30 38 1 37 16
M  V30 39 1 38 17
M  V30 40 1 39 17
M  V30 41 1 40 18
M  V30 42 1 41 18
M  V30 43 1 42 19
M  V30 44 1 20 43 CFG=3
M  V30 45 1 44 21
M  V30 46 1 45 21
M  V30 47 1 7 46 CFG=1
M  V30 48 1 47 14
M  V30 END BOND
M  V30 END CTAB
M  END
>  <i_epik_Tot_Q>  (1) 
2

>  <i_epik_Tot_abs_Q>  (1) 
2

>  <i_i_glide_confnum>  (1) 
58

>  <i_i_glide_lignum>  (1) 
54

>  <i_i_glide_posenum>  (1) 
13

>  <i_i_glide_rotatable_bonds>  (1) 
10

>  <i_lp_mmshare_version>  (1) 
72125

>  <i_m_source_file_index>  (1) 
16

>  <i_f3d_flags>  (1) 
0

>  <num_sample>  (1) 
50

>  <b_lp_Chiralities_Consistent>  (1) 
1

>  <r_epik_Charging_Adjusted_Penalty>  (1) 
0.82033889234892232

>  <r_epik_Ionization_Penalty>  (1) 
0.44833786363099537

>  <r_epik_Ionization_Penalty_Charging>  (1) 
0.44828572222584073

>  <r_epik_Ionization_Penalty_Neutral>  (1) 
5.214140515465987e-05

>  <r_epik_State_Penalty>  (1) 
0.37205317012308153

>  <r_glide_ring_energy>  (1) 
0

>  <r_i_docking_score>  (1) 
-7.0113051885969586

>  <r_i_glide_ecoul>  (1) 
-13.23073900333708

>  <r_i_glide_eff_state_penalty>  (1) 
0.37205317012308153

>  <r_i_glide_einternal>  (1) 
7.4457023749314191

>  <r_i_glide_emodel>  (1) 
-69.230921183860701

>  <r_i_glide_emodel_strain>  (1) 
1.5136819697933852

>  <r_i_glide_energy>  (1) 
-44.348799546250376

>  <r_i_glide_erotb>  (1) 
0.99921442309273578

>  <r_i_glide_esite>  (1) 
-0.23933877399757664

>  <r_i_glide_evdw>  (1) 
-31.118060542913298

>  <r_i_glide_gscore>  (1) 
-7.3833583587200398

>  <r_i_glide_gscore_strain>  (1) 
0

>  <r_i_glide_hbond>  (1) 
-0.55898317846014589

>  <r_i_glide_ligand_efficiency>  (1) 
-0.33387167564747422

>  <r_i_glide_ligand_efficiency_ln>  (1) 
-1.7335310402044588

>  <r_i_glide_ligand_efficiency_sa>  (1) 
-0.92112663775269255

>  <r_i_glide_lipo>  (1) 
-2.0357943475737637

>  <r_i_glide_metal>  (1) 
-0

>  <r_i_glide_rewards>  (1) 
-2.0079426041350623

>  <r_lp_Energy>  (1) 
18.968132999999998

>  <r_lp_tautomer_probability>  (1) 
0.99990000499974985

>  <s_epik_cmdline>  (1) 
J2VwaWtfcHl0aG9uJywgJy1waHQnLCAnMS4wJywgJy1waCcsICc3LjQnLCAnLXRuJywgJzgnLCAnLW1hJywgJzUwMCcsICctaW1hZScsICc8aW5maWxlLm1hZT4nLCAnLW9tYWUnLCAnPG91dGZpbGUubWFlPic=

>  <s_epik_input>  (1) 
W0NIMl0xW0NIMl1bQ0gyXVtDSF09W0NIXVtDQEhdMVtDQEBIXShbQ0hdPU8pW0NIMl1bTkhdW0NIMl1bQ0BASF0oQ2wpW0NAQEhdMltDSDJdW0NIMl1OMlAoW09IXSlbT0hd

>  <s_glide_docking_method>  (1) 
confgen

>  <s_i_glide_gridfile>  (1) 
gpcr_drd2_6luq_protein_autoprepared_prepared

>  <s_lp_Force_Field>  (1) 
S-OPLS

>  <s_lp_Variant>  (1) 
DiffSBDD_15-1

>  <s_m_source_file>  (1) 
generated_generic_title2_ligand_DiffSBDD_2026-06-23_prepared.sdf

>  <GenAI_Model>  (1) 
DiffSBDD

>  <Protein>  (1) 
generic_title2

$$$$
DiffSBDD_27
     RDKit          3D

  0  0  0  0  0  0  0  0  0  0999 V3000
M  V30 BEGIN CTAB
M  V30 COUNTS 50 50 0 0 1
M  V30 BEGIN ATOM
M  V30 1 F 12.970112 9.195615 -2.960107 0
M  V30 2 C 9.621484 6.961377 -6.975348 0
M  V30 3 C 8.575411 3.419483 -15.847927 0
M  V30 4 C 10.902108 8.911045 -5.982379 0
M  V30 5 C 6.656832 5.620188 -15.282901 0
M  V30 6 O 5.162169 7.362590 -15.985024 0
M  V30 7 O 6.273939 5.990229 -11.185026 0
M  V30 8 C 8.005090 2.335919 -13.598768 0
M  V30 9 C 9.306271 6.119027 -10.985572 0 CFG=2
M  V30 10 O 8.975415 7.481570 -11.185045 0
M  V30 11 F 12.229161 6.536012 -2.820612 0
M  V30 12 C 10.975411 6.754477 -4.844096 0
M  V30 13 C 7.576480 3.343043 -14.676093 0
M  V30 14 C 8.213400 5.518396 -13.281882 0
M  V30 15 C 8.392786 5.141167 -11.781961 0 CFG=2
M  V30 16 C 9.328988 5.832169 -9.472612 0
M  V30 17 S 10.482828 6.906662 -8.566258 0
M  V30 18 C 11.728001 9.463801 -4.986786 0
M  V30 19 C 5.559543 6.592278 -14.866780 0
M  V30 20 C 7.158407 4.732894 -14.119212 0 CFG=1
M  V30 21 C 11.798546 7.307150 -3.847648 0
M  V30 22 C 12.175479 8.663349 -3.917935 0
M  V30 23 O 7.182192 4.857769 -11.081746 0
M  V30 24 C 10.522815 7.555505 -5.911765 0
M  V30 25 H 8.711121 7.555244 -7.069541 0
M  V30 26 H 9.319502 5.953038 -6.693585 0
M  V30 27 H 9.464154 3.990260 -15.585035 0
M  V30 28 H 8.890912 2.425324 -16.165615 0
M  V30 29 H 8.139079 3.895845 -16.725064 0
M  V30 30 H 10.556008 9.526557 -6.796371 0
M  V30 31 H 7.491983 6.154373 -15.736595 0
M  V30 32 H 6.234412 5.001071 -16.073147 0
M  V30 33 H 5.869455 7.942827 -16.222776 0
M  V30 34 H 6.575068 6.557670 -10.471806 0
M  V30 35 H 8.975429 2.578635 -13.176645 0
M  V30 36 H 7.280780 2.295828 -12.784996 0
M  V30 37 H 8.082377 1.331409 -14.015661 0
M  V30 38 H 10.312230 6.009715 -11.387988 0
M  V30 39 H 8.270354 7.704384 -10.578839 0
M  V30 40 H 10.686113 5.716505 -4.786147 0
M  V30 41 H 6.667669 2.911152 -15.098178 0
M  V30 42 H 7.931823 6.569917 -13.309956 0
M  V30 43 H 9.182984 5.484925 -13.778636 0
M  V30 44 H 8.919962 4.190814 -11.748793 0
M  V30 45 H 8.330944 5.977302 -9.057821 0
M  V30 46 H 9.598778 4.793425 -9.280653 0
M  V30 47 H 12.015538 10.500729 -5.042442 0
M  V30 48 H 4.727906 5.990225 -14.500585 0
M  V30 49 H 5.876567 7.252362 -14.059091 0
M  V30 50 H 6.299986 4.545197 -13.473122 0
M  V30 END ATOM
M  V30 BEGIN BOND
M  V30 1 1 10 9
M  V30 2 1 13 3
M  V30 3 1 13 8
M  V30 4 1 15 9
M  V30 5 1 15 14
M  V30 6 1 16 9
M  V30 7 1 17 2
M  V30 8 1 17 16
M  V30 9 2 18 4
M  V30 10 1 19 5
M  V30 11 1 19 6
M  V30 12 1 20 5
M  V30 13 1 20 13
M  V30 14 1 20 14
M  V30 15 1 21 11
M  V30 16 1 21 12
M  V30 17 1 22 1
M  V30 18 1 22 18
M  V30 19 2 22 21
M  V30 20 1 23 7
M  V30 21 1 23 15
M  V30 22 1 24 2
M  V30 23 1 24 4
M  V30 24 2 24 12
M  V30 25 1 25 2
M  V30 26 1 26 2
M  V30 27 1 27 3
M  V30 28 1 28 3
M  V30 29 1 29 3
M  V30 30 1 30 4
M  V30 31 1 31 5
M  V30 32 1 32 5
M  V30 33 1 33 6
M  V30 34 1 34 7
M  V30 35 1 35 8
M  V30 36 1 36 8
M  V30 37 1 37 8
M  V30 38 1 9 38 CFG=3
M  V30 39 1 39 10
M  V30 40 1 40 12
M  V30 41 1 41 13
M  V30 42 1 42 14
M  V30 43 1 43 14
M  V30 44 1 15 44 CFG=3
M  V30 45 1 45 16
M  V30 46 1 46 16
M  V30 47 1 47 18
M  V30 48 1 48 19
M  V30 49 1 49 19
M  V30 50 1 20 50 CFG=1
M  V30 END BOND
M  V30 END CTAB
M  END
>  <i_epik_Tot_Q>  (1) 
0

>  <i_epik_Tot_abs_Q>  (1) 
0

>  <i_i_glide_confnum>  (1) 
1923

>  <i_i_glide_lignum>  (1) 
77

>  <i_i_glide_posenum>  (1) 
56

>  <i_i_glide_rotatable_bonds>  (1) 
14

>  <i_lp_mmshare_version>  (1) 
72125

>  <i_m_source_file_index>  (1) 
28

>  <i_f3d_flags>  (1) 
0

>  <num_sample>  (1) 
50

>  <b_lp_Chiralities_Consistent>  (1) 
1

>  <r_epik_Charging_Adjusted_Penalty>  (1) 
0

>  <r_epik_Ionization_Penalty>  (1) 
1.248774447628934e-05

>  <r_epik_Ionization_Penalty_Charging>  (1) 
0

>  <r_epik_Ionization_Penalty_Neutral>  (1) 
1.248774447628934e-05

>  <r_epik_State_Penalty>  (1) 
-0

>  <r_glide_ring_energy>  (1) 
0

>  <r_i_docking_score>  (1) 
-7.0069770597372045

>  <r_i_glide_ecoul>  (1) 
-10.498614437340175

>  <r_i_glide_eff_state_penalty>  (1) 
-0

>  <r_i_glide_einternal>  (1) 
5.6251704618167793

>  <r_i_glide_emodel>  (1) 
-57.105193747545471

>  <r_i_glide_emodel_strain>  (1) 
0.80777931670812819

>  <r_i_glide_energy>  (1) 
-42.436851684034181

>  <r_i_glide_erotb>  (1) 
1.3026288034546341

>  <r_i_glide_esite>  (1) 
-0.14692712155059698

>  <r_i_glide_evdw>  (1) 
-31.938237246694008

>  <r_i_glide_gscore>  (1) 
-7.0069770597372045

>  <r_i_glide_gscore_strain>  (1) 
0

>  <r_i_glide_hbond>  (1) 
-0.30399999999999999

>  <r_i_glide_ligand_efficiency>  (1) 
-0.29195737748905021

>  <r_i_glide_ligand_efficiency_ln>  (1) 
-1.6770911396212596

>  <r_i_glide_ligand_efficiency_sa>  (1) 
-0.84215080446332091

>  <r_i_glide_lipo>  (1) 
-2.4033389674198489

>  <r_i_glide_metal>  (1) 
-0

>  <r_i_glide_rewards>  (1) 
-2.2836357462856656

>  <r_lp_Energy>  (1) 
13.121089999999999

>  <r_lp_tautomer_probability>  (1) 
1

>  <s_epik_cmdline>  (1) 
J2VwaWtfcHl0aG9uJywgJy1waHQnLCAnMS4wJywgJy1waCcsICc3LjQnLCAnLXRuJywgJzgnLCAnLW1hJywgJzUwMCcsICctaW1hZScsICc8aW5maWxlLm1hZT4nLCAnLW9tYWUnLCAnPG91dGZpbGUubWFlPic=

>  <s_epik_input>  (1) 
RmMxW2NIXVtjSF1jKFtjSF1jMUYpW0NIMl1TW0NIMl1bQ0BIXShbT0hdKVtDQEBIXShPW09IXSlbQ0gyXVtDQEhdKFtDSF0oW0NIM10pW0NIM10pW0NIMl1bQ0gyXVtPSF0=

>  <s_glide_docking_method>  (1) 
confgen

>  <s_i_glide_gridfile>  (1) 
gpcr_drd2_6luq_protein_autoprepared_prepared

>  <s_lp_Force_Field>  (1) 
S-OPLS

>  <s_lp_Variant>  (1) 
DiffSBDD_27-1

>  <s_m_source_file>  (1) 
generated_generic_title2_ligand_DiffSBDD_2026-06-23_prepared.sdf

>  <GenAI_Model>  (1) 
DiffSBDD

>  <Protein>  (1) 
generic_title2

$$$$
DiffSBDD_27
     RDKit          3D

  0  0  0  0  0  0  0  0  0  0999 V3000
M  V30 BEGIN CTAB
M  V30 COUNTS 50 50 0 0 1
M  V30 BEGIN ATOM
M  V30 1 F 12.974582 9.190284 -2.973004 0
M  V30 2 C 9.606134 6.942001 -6.962876 0
M  V30 3 C 8.575410 3.398552 -15.848487 0
M  V30 4 C 10.886534 8.896050 -5.980580 0
M  V30 5 C 6.688644 5.612335 -15.286177 0
M  V30 6 O 5.277114 7.410226 -15.985021 0
M  V30 7 O 6.271495 5.990227 -11.185030 0
M  V30 8 C 8.001806 2.317318 -13.601604 0
M  V30 9 C 9.295348 6.099220 -10.974611 0 CFG=2
M  V30 10 O 8.975409 7.462391 -11.185023 0
M  V30 11 F 12.243757 6.528848 -2.825752 0
M  V30 12 C 10.975438 6.740522 -4.841227 0
M  V30 13 C 7.574874 3.324379 -14.679097 0
M  V30 14 C 8.223860 5.489431 -13.276171 0
M  V30 15 C 8.385254 5.119869 -11.773156 0 CFG=2
M  V30 16 C 9.303073 5.817549 -9.460651 0
M  V30 17 S 10.465538 6.879448 -8.553988 0
M  V30 18 C 11.718119 9.452410 -4.991417 0
M  V30 19 C 5.596029 6.590544 -14.877250 0
M  V30 20 C 7.165994 4.715697 -14.120856 0 CFG=1
M  V30 21 C 11.803464 7.297214 -3.850768 0
M  V30 22 C 12.175423 8.654458 -3.924973 0
M  V30 23 O 7.166600 4.846860 -11.082071 0
M  V30 24 C 10.512440 7.539362 -5.906240 0
M  V30 25 H 8.697912 7.539278 -7.057092 0
M  V30 26 H 9.301032 5.936627 -6.674666 0
M  V30 27 H 9.451785 3.990229 -15.588016 0
M  V30 28 H 8.908795 2.404612 -16.147885 0
M  V30 29 H 8.135314 3.853783 -16.735174 0
M  V30 30 H 10.532637 9.509479 -6.792759 0
M  V30 31 H 7.534950 6.145399 -15.721640 0
M  V30 32 H 6.273744 5.004976 -16.089352 0
M  V30 33 H 4.686848 8.093148 -15.703567 0
M  V30 34 H 6.574020 6.551221 -10.467449 0
M  V30 35 H 8.975421 2.556899 -13.184800 0
M  V30 36 H 7.280640 2.284843 -12.785039 0
M  V30 37 H 8.070645 1.310465 -14.014457 0
M  V30 38 H 10.304582 5.990223 -11.367653 0
M  V30 39 H 8.272746 7.695305 -10.580035 0
M  V30 40 H 10.690514 5.701268 -4.780652 0
M  V30 41 H 6.665602 2.896762 -15.104876 0
M  V30 42 H 7.958897 6.544790 -13.313214 0
M  V30 43 H 9.197479 5.437797 -13.762846 0
M  V30 44 H 8.906762 4.166499 -11.730195 0
M  V30 45 H 8.304086 5.976234 -9.052231 0
M  V30 46 H 9.558222 4.776273 -9.262598 0
M  V30 47 H 12.002849 10.490268 -5.050097 0
M  V30 48 H 4.740164 5.990225 -14.565293 0
M  V30 49 H 5.899752 7.214891 -14.036863 0
M  V30 50 H 6.300408 4.536096 -13.482434 0
M  V30 END ATOM
M  V30 BEGIN BOND
M  V30 1 1 10 9
M  V30 2 1 13 3
M  V30 3 1 13 8
M  V30 4 1 15 9
M  V30 5 1 15 14
M  V30 6 1 16 9
M  V30 7 1 17 2
M  V30 8 1 17 16
M  V30 9 2 18 4
M  V30 10 1 19 5
M  V30 11 1 19 6
M  V30 12 1 20 5
M  V30 13 1 20 13
M  V30 14 1 20 14
M  V30 15 1 21 11
M  V30 16 1 21 12
M  V30 17 1 22 1
M  V30 18 1 22 18
M  V30 19 2 22 21
M  V30 20 1 23 7
M  V30 21 1 23 15
M  V30 22 1 24 2
M  V30 23 1 24 4
M  V30 24 2 24 12
M  V30 25 1 25 2
M  V30 26 1 26 2
M  V30 27 1 27 3
M  V30 28 1 28 3
M  V30 29 1 29 3
M  V30 30 1 30 4
M  V30 31 1 31 5
M  V30 32 1 32 5
M  V30 33 1 33 6
M  V30 34 1 34 7
M  V30 35 1 35 8
M  V30 36 1 36 8
M  V30 37 1 37 8
M  V30 38 1 9 38 CFG=3
M  V30 39 1 39 10
M  V30 40 1 40 12
M  V30 41 1 41 13
M  V30 42 1 42 14
M  V30 43 1 43 14
M  V30 44 1 15 44 CFG=3
M  V30 45 1 45 16
M  V30 46 1 46 16
M  V30 47 1 47 18
M  V30 48 1 48 19
M  V30 49 1 49 19
M  V30 50 1 20 50 CFG=1
M  V30 END BOND
M  V30 END CTAB
M  END
>  <i_epik_Tot_Q>  (1) 
0

>  <i_epik_Tot_abs_Q>  (1) 
0

>  <i_i_glide_confnum>  (1) 
1923

>  <i_i_glide_lignum>  (1) 
77

>  <i_i_glide_posenum>  (1) 
56

>  <i_i_glide_rotatable_bonds>  (1) 
14

>  <i_lp_mmshare_version>  (1) 
72125

>  <i_m_source_file_index>  (1) 
28

>  <i_f3d_flags>  (1) 
0

>  <num_sample>  (1) 
50

>  <b_lp_Chiralities_Consistent>  (1) 
1

>  <r_epik_Charging_Adjusted_Penalty>  (1) 
0

>  <r_epik_Ionization_Penalty>  (1) 
1.248774447628934e-05

>  <r_epik_Ionization_Penalty_Charging>  (1) 
0

>  <r_epik_Ionization_Penalty_Neutral>  (1) 
1.248774447628934e-05

>  <r_epik_State_Penalty>  (1) 
-0

>  <r_glide_ring_energy>  (1) 
0

>  <r_i_docking_score>  (1) 
-6.9555530809743829

>  <r_i_glide_ecoul>  (1) 
-10.286352799133406

>  <r_i_glide_eff_state_penalty>  (1) 
-0

>  <r_i_glide_einternal>  (1) 
6.1562712891965869

>  <r_i_glide_emodel>  (1) 
-56.712056168337796

>  <r_i_glide_emodel_strain>  (1) 
0.92897737079568188

>  <r_i_glide_energy>  (1) 
-42.564682800863906

>  <r_i_glide_erotb>  (1) 
1.3026288034546341

>  <r_i_glide_esite>  (1) 
-0.1461919035941584

>  <r_i_glide_evdw>  (1) 
-32.278330001730502

>  <r_i_glide_gscore>  (1) 
-6.9555530809743829

>  <r_i_glide_gscore_strain>  (1) 
0

>  <r_i_glide_hbond>  (1) 
-0.30399999999999999

>  <r_i_glide_ligand_efficiency>  (1) 
-0.28981471170726597

>  <r_i_glide_ligand_efficiency_ln>  (1) 
-1.6647830218106907

>  <r_i_glide_ligand_efficiency_sa>  (1) 
-0.83597028685713948

>  <r_i_glide_lipo>  (1) 
-2.4136880101808416

>  <r_i_glide_metal>  (1) 
-0

>  <r_i_glide_rewards>  (1) 
-2.2374325506974806

>  <r_lp_Energy>  (1) 
13.121089999999999

>  <r_lp_tautomer_probability>  (1) 
1

>  <s_epik_cmdline>  (1) 
J2VwaWtfcHl0aG9uJywgJy1waHQnLCAnMS4wJywgJy1waCcsICc3LjQnLCAnLXRuJywgJzgnLCAnLW1hJywgJzUwMCcsICctaW1hZScsICc8aW5maWxlLm1hZT4nLCAnLW9tYWUnLCAnPG91dGZpbGUubWFlPic=

>  <s_epik_input>  (1) 
RmMxW2NIXVtjSF1jKFtjSF1jMUYpW0NIMl1TW0NIMl1bQ0BIXShbT0hdKVtDQEBIXShPW09IXSlbQ0gyXVtDQEhdKFtDSF0oW0NIM10pW0NIM10pW0NIMl1bQ0gyXVtPSF0=

>  <s_glide_docking_method>  (1) 
confgen

>  <s_i_glide_gridfile>  (1) 
gpcr_drd2_6luq_protein_autoprepared_prepared

>  <s_lp_Force_Field>  (1) 
S-OPLS

>  <s_lp_Variant>  (1) 
DiffSBDD_27-1

>  <s_m_source_file>  (1) 
generated_generic_title2_ligand_DiffSBDD_2026-06-23_prepared.sdf

>  <GenAI_Model>  (1) 
DiffSBDD

>  <Protein>  (1) 
generic_title2

$$$$
DiffSBDD_8
     RDKit          3D

  0  0  0  0  0  0  0  0  0  0999 V3000
M  V30 BEGIN CTAB
M  V30 COUNTS 70 73 0 0 1
M  V30 BEGIN ATOM
M  V30 1 N 7.404742 3.642230 -13.673019 0
M  V30 2 C 6.310612 7.123984 -14.322444 0
M  V30 3 C 6.751016 5.402730 -11.266330 0 CFG=1
M  V30 4 N 5.685435 6.538158 -16.522662 0
M  V30 5 O 9.948628 5.630305 -12.042049 0
M  V30 6 C 9.322557 7.044326 -7.943411 0
M  V30 7 F 6.975422 4.655495 -16.815791 0
M  V30 8 C 10.201582 6.503204 -6.816450 0
M  V30 9 N 8.574809 5.990204 -8.643875 0 CHG=1
M  V30 10 C 9.068953 5.468538 -9.931308 0 CFG=1
M  V30 11 C 6.952983 5.867952 -16.259786 0 CFG=2
M  V30 12 C 12.779065 8.820217 -10.185487 0
M  V30 13 C 8.069420 4.753484 -10.837897 0 CFG=2
M  V30 14 O 8.976043 7.562354 -11.184998 0
M  V30 15 O 5.810504 7.109352 -17.836533 0
M  V30 16 C 10.916523 7.633877 -6.064872 0
M  V30 17 C 9.516282 3.243884 -12.331868 0
M  V30 18 C 6.937149 2.293025 -13.317020 0
M  V30 19 C 8.761607 3.933127 -13.428412 0 CFG=2
M  V30 20 C 7.114047 5.874751 -14.721879 0 CFG=2
M  V30 21 C 6.539423 4.574947 -14.094338 0
M  V30 22 C 5.494658 4.498981 -11.253825 0
M  V30 23 C 9.752582 6.412920 -10.907592 0 CFG=2
M  V30 24 C 8.963042 4.604682 -12.065315 0 CFG=2
M  V30 25 O 13.775388 8.790072 -11.184670 0
M  V30 26 O 5.338244 4.422555 -13.994078 0
M  V30 27 C 13.342733 8.388656 -8.824784 0
M  V30 28 C 4.619832 6.818404 -18.540849 0
M  V30 29 C 5.745211 7.682789 -15.627489 0
M  V30 30 O 12.337505 7.839058 -7.986236 0
M  V30 31 C 11.775423 8.518436 -6.966623 0
M  V30 32 N 5.649749 5.590303 -10.385027 0 CHG=1
M  V30 33 O 11.924377 9.712927 -6.744468 0
M  V30 34 H 5.484324 6.912527 -13.642391 0
M  V30 35 H 6.956101 7.849130 -13.828955 0
M  V30 36 H 6.801936 6.291832 -11.885313 0
M  V30 37 H 8.577332 7.697486 -7.485772 0
M  V30 38 H 9.850424 7.683899 -8.645529 0
M  V30 39 H 10.918030 5.772504 -7.192605 0
M  V30 40 H 9.567215 5.984956 -6.100195 0
M  V30 41 H 8.334403 5.247426 -8.002972 0
M  V30 42 H 9.823213 4.735623 -9.644951 0
M  V30 43 H 7.775445 6.390180 -16.727175 0
M  V30 44 H 12.331833 9.812303 -10.112183 0
M  V30 45 H 12.006029 8.165491 -10.534541 0
M  V30 46 H 7.842460 3.798962 -10.407244 0
M  V30 47 H 8.272663 7.641233 -10.543545 0
M  V30 48 H 11.539092 7.223311 -5.269779 0
M  V30 49 H 10.174992 8.272241 -5.587636 0
M  V30 50 H 10.575352 3.205927 -12.385331 0
M  V30 51 H 9.053242 2.391499 -11.851974 0
M  V30 52 H 6.145506 1.957711 -13.986421 0
M  V30 53 H 7.729576 1.550734 -13.421936 0
M  V30 54 H 6.554566 2.239541 -12.302079 0
M  V30 55 H 9.362878 4.288025 -14.264370 0
M  V30 56 H 8.159083 6.056642 -14.481795 0
M  V30 57 H 4.579480 4.737340 -11.780499 0
M  V30 58 H 5.475625 3.592534 -10.649701 0
M  V30 59 H 10.702240 6.730759 -10.518400 0
M  V30 60 H 14.408199 9.452250 -10.931927 0
M  V30 61 H 14.068001 7.591543 -8.989467 0
M  V30 62 H 13.892300 9.190185 -8.337460 0
M  V30 63 H 4.629489 7.337078 -19.499539 0
M  V30 64 H 4.565315 5.749140 -18.742472 0
M  V30 65 H 3.727322 7.139053 -17.997273 0
M  V30 66 H 4.770571 8.157745 -15.504385 0
M  V30 67 H 6.433291 8.429802 -16.027020 0
M  V30 68 H 5.662463 5.246889 -9.426461 0
M  V30 69 H 7.722247 6.513499 -8.863726 0
M  V30 70 H 5.049079 6.374644 -10.598044 0
M  V30 END ATOM
M  V30 BEGIN BOND
M  V30 1 1 8 6
M  V30 2 1 9 6
M  V30 3 1 10 9
M  V30 4 1 11 4
M  V30 5 1 11 7
M  V30 6 1 13 3
M  V30 7 1 13 10
M  V30 8 1 15 4
M  V30 9 1 16 8
M  V30 10 1 18 1
M  V30 11 1 19 1
M  V30 12 1 19 17
M  V30 13 1 20 2
M  V30 14 1 20 11
M  V30 15 1 21 1
M  V30 16 1 21 20
M  V30 17 1 22 3
M  V30 18 1 23 5
M  V30 19 1 23 10
M  V30 20 1 23 14
M  V30 21 1 24 5 CFG=3
M  V30 22 1 24 13
M  V30 23 1 24 17
M  V30 24 1 24 19
M  V30 25 1 25 12
M  V30 26 2 26 21
M  V30 27 1 27 12
M  V30 28 1 28 15
M  V30 29 1 29 2
M  V30 30 1 29 4
M  V30 31 1 30 27
M  V30 32 1 31 16
M  V30 33 1 31 30
M  V30 34 1 32 3
M  V30 35 1 32 22
M  V30 36 2 33 31
M  V30 37 1 34 2
M  V30 38 1 35 2
M  V30 39 1 3 36 CFG=3
M  V30 40 1 37 6
M  V30 41 1 38 6
M  V30 42 1 39 8
M  V30 43 1 40 8
M  V30 44 1 41 9
M  V30 45 1 10 42 CFG=1
M  V30 46 1 11 43 CFG=3
M  V30 47 1 44 12
M  V30 48 1 45 12
M  V30 49 1 13 46 CFG=1
M  V30 50 1 47 14
M  V30 51 1 48 16
M  V30 52 1 49 16
M  V30 53 1 50 17
M  V30 54 1 51 17
M  V30 55 1 52 18
M  V30 56 1 53 18
M  V30 57 1 54 18
M  V30 58 1 19 55 CFG=3
M  V30 59 1 20 56 CFG=3
M  V30 60 1 57 22
M  V30 61 1 58 22
M  V30 62 1 23 59 CFG=1
M  V30 63 1 60 25
M  V30 64 1 61 27
M  V30 65 1 62 27
M  V30 66 1 63 28
M  V30 67 1 64 28
M  V30 68 1 65 28
M  V30 69 1 66 29
M  V30 70 1 67 29
M  V30 71 1 68 32
M  V30 72 1 69 9
M  V30 73 1 70 32
M  V30 END BOND
M  V30 END CTAB
M  END
>  <i_epik_Tot_Q>  (1) 
2

>  <i_epik_Tot_abs_Q>  (1) 
2

>  <i_i_glide_confnum>  (1) 
1466

>  <i_i_glide_lignum>  (1) 
42

>  <i_i_glide_posenum>  (1) 
250

>  <i_i_glide_rotatable_bonds>  (1) 
15

>  <i_lp_mmshare_version>  (1) 
72125

>  <i_m_source_file_index>  (1) 
9

>  <i_f3d_flags>  (1) 
0

>  <num_sample>  (1) 
50

>  <b_lp_Chiralities_Consistent>  (1) 
1

>  <r_epik_Charging_Adjusted_Penalty>  (1) 
2.8797985042560583

>  <r_epik_Ionization_Penalty>  (1) 
1.6442763990741283

>  <r_epik_Ionization_Penalty_Charging>  (1) 
1.6439676131770962

>  <r_epik_Ionization_Penalty_Neutral>  (1) 
0.00030878589703216643

>  <r_epik_State_Penalty>  (1) 
1.2358308910789622

>  <r_glide_ring_energy>  (1) 
0

>  <r_i_docking_score>  (1) 
-6.9501000700570206

>  <r_i_glide_ecoul>  (1) 
-21.102179247758606

>  <r_i_glide_eff_state_penalty>  (1) 
1.2358308910789622

>  <r_i_glide_einternal>  (1) 
12.536819600940383

>  <r_i_glide_emodel>  (1) 
-52.884967365672239

>  <r_i_glide_emodel_strain>  (1) 
7.0625542570890048

>  <r_i_glide_energy>  (1) 
-42.647206565982444

>  <r_i_glide_erotb>  (1) 
0.74903110581552834

>  <r_i_glide_esite>  (1) 
-0.2204214054488717

>  <r_i_glide_evdw>  (1) 
-21.545027318223841

>  <r_i_glide_gscore>  (1) 
-8.1859309611359823

>  <r_i_glide_gscore_strain>  (1) 
0.76563856427225119

>  <r_i_glide_hbond>  (1) 
-0.64535419205976741

>  <r_i_glide_ligand_efficiency>  (1) 
-0.21060909303203093

>  <r_i_glide_ligand_efficiency_ln>  (1) 
-1.5456662698884314

>  <r_i_glide_ligand_efficiency_sa>  (1) 
-0.67553589610952403

>  <r_i_glide_lipo>  (1) 
-2.0438398985671147

>  <r_i_glide_metal>  (1) 
-0

>  <r_i_glide_rewards>  (1) 
-2.5484068820730275

>  <r_lp_Energy>  (1) 
51.627417999999999

>  <s_epik_Chemistry_Notes>  (1) 
This compound has an ester and may undergo hydrolysis at high or low pH. This compound contains an acetal/aminal-like group ( X-CH(R)-Y where X, Y are N, S, or O) that may be acid/base labile, releasing an aldehyde. This compound has a N-S or N-O group and may undergo hydrolysis at high or low pH.

>  <s_epik_cmdline>  (1) 
J2VwaWtfcHl0aG9uJywgJy1waHQnLCAnMS4wJywgJy1waCcsICc3LjQnLCAnLXRuJywgJzgnLCAnLW1hJywgJzUwMCcsICctaW1hZScsICc8aW5maWxlLm1hZT4nLCAnLW9tYWUnLCAnPG91dGZpbGUubWFlPic=

>  <s_epik_input>  (1) 
W0NIM11PTjFbQ0BIXShGKVtDQEBIXShbQ0gyXVtDSDJdMSlDKD1PKU4oW0NIM10pW0NASF0yW0NIMl1DMjNPW0NAQEhdKFtPSF0pW0NASF0oW0NASF0zW0NASF00W0NIMl1bTkhdNClbTkhdW0NIMl1bQ0gyXVtDSDJdQyg9TylPW0NIMl1bQ0gyXVtPSF0=

>  <s_glide_docking_method>  (1) 
confgen

>  <s_i_glide_gridfile>  (1) 
gpcr_drd2_6luq_protein_autoprepared_prepared

>  <s_lp_Force_Field>  (1) 
S-OPLS

>  <s_lp_Variant>  (1) 
DiffSBDD_8-11

>  <s_m_source_file>  (1) 
generated_generic_title2_ligand_DiffSBDD_2026-06-23_prepared.sdf

>  <GenAI_Model>  (1) 
DiffSBDD

>  <Protein>  (1) 
generic_title2

$$$$
DiffSBDD_17
     RDKit          3D

  0  0  0  0  0  0  0  0  0  0999 V3000
M  V30 BEGIN CTAB
M  V30 COUNTS 49 53 0 0 1
M  V30 BEGIN ATOM
M  V30 1 C 7.833214 4.358760 -14.138278 0
M  V30 2 N 7.741494 5.590227 -10.121460 0
M  V30 3 C 10.746739 6.954498 -7.490420 0
M  V30 4 O 7.933393 5.190226 -7.602115 0
M  V30 5 S 8.797495 5.402145 -8.766339 0
M  V30 6 C 5.354604 7.624775 -16.285761 0
M  V30 7 C 6.234856 5.236268 -19.688404 0
M  V30 8 C 8.482842 3.572993 -13.183081 0
M  V30 9 C 9.689160 7.009526 -8.605414 0
M  V30 10 C 7.779033 4.018650 -15.682378 0
M  V30 11 C 6.740366 4.846855 -18.425536 0
M  V30 12 O 9.775410 4.390226 -9.127647 0
M  V30 13 O 5.118302 6.511867 -21.116353 0
M  V30 14 C 6.444878 5.647084 -17.286666 0
M  V30 15 C 7.178413 5.505828 -13.784844 0
M  V30 16 C 6.420419 4.578981 -20.885352 0
M  V30 17 C 8.474446 3.990231 -11.832860 0
M  V30 18 C 5.842438 7.238842 -15.014483 0
M  V30 19 C 5.718409 5.385075 -21.775128 0
M  V30 20 C 5.650509 6.829821 -17.426963 0
M  V30 21 C 11.247836 6.850629 -4.985889 0
M  V30 22 C 7.131197 5.950264 -12.454290 0
M  V30 23 C 6.614090 6.073977 -14.912891 0
M  V30 24 C 6.909986 5.300159 -16.006585 0
M  V30 25 C 10.165266 6.884866 -6.067593 0
M  V30 26 C 5.480878 6.368432 -19.785067 0
M  V30 27 C 7.790169 5.181828 -11.459156 0
M  V30 28 C 5.165873 7.189795 -18.700270 0
M  V30 29 H 7.257679 6.494730 -9.985044 0
M  V30 30 H 11.375793 6.082279 -7.656567 0
M  V30 31 H 11.395254 7.827163 -7.569935 0
M  V30 32 H 4.755318 8.516789 -16.385029 0
M  V30 33 H 8.975410 2.661534 -13.468086 0
M  V30 34 H 10.153401 7.215318 -9.568240 0
M  V30 35 H 8.975409 7.805765 -8.413903 0
M  V30 36 H 7.253672 3.086363 -15.890558 0
M  V30 37 H 8.763216 4.050122 -16.150040 0
M  V30 38 H 7.338030 3.952711 -18.330160 0
M  V30 39 H 6.982769 3.668151 -21.030250 0
M  V30 40 H 8.975395 3.392275 -11.090575 0
M  V30 41 H 5.618165 7.827395 -14.140601 0
M  V30 42 H 5.538236 5.334843 -22.838623 0
M  V30 43 H 10.812365 6.654069 -4.006813 0
M  V30 44 H 11.971925 6.059116 -5.180493 0
M  V30 45 H 11.775464 7.802310 -4.933249 0
M  V30 46 H 6.601668 6.854611 -12.191412 0
M  V30 47 H 9.497826 7.730262 -5.897166 0
M  V30 48 H 9.557864 5.990235 -5.953018 0
M  V30 49 H 4.563748 8.075621 -18.834559 0
M  V30 END ATOM
M  V30 BEGIN BOND
M  V30 1 1 5 2
M  V30 2 2 5 4
M  V30 3 2 8 1
M  V30 4 1 9 3
M  V30 5 1 9 5
M  V30 6 1 10 1
M  V30 7 2 11 7
M  V30 8 2 12 5
M  V30 9 1 14 11
M  V30 10 1 15 1
M  V30 11 1 16 7
M  V30 12 1 17 8
M  V30 13 1 18 6
M  V30 14 1 19 13
M  V30 15 2 19 16
M  V30 16 2 20 6
M  V30 17 1 20 14
M  V30 18 2 22 15
M  V30 19 1 23 15
M  V30 20 2 23 18
M  V30 21 1 24 10
M  V30 22 2 24 14
M  V30 23 1 24 23
M  V30 24 1 25 3
M  V30 25 1 25 21
M  V30 26 1 26 7
M  V30 27 1 26 13
M  V30 28 1 27 2
M  V30 29 2 27 17
M  V30 30 1 27 22
M  V30 31 1 28 20
M  V30 32 2 28 26
M  V30 33 1 29 2
M  V30 34 1 30 3
M  V30 35 1 31 3
M  V30 36 1 32 6
M  V30 37 1 33 8
M  V30 38 1 34 9
M  V30 39 1 35 9
M  V30 40 1 36 10
M  V30 41 1 37 10
M  V30 42 1 38 11
M  V30 43 1 39 16
M  V30 44 1 40 17
M  V30 45 1 41 18
M  V30 46 1 42 19
M  V30 47 1 43 21
M  V30 48 1 44 21
M  V30 49 1 45 21
M  V30 50 1 46 22
M  V30 51 1 47 25
M  V30 52 1 48 25
M  V30 53 1 49 28
M  V30 END BOND
M  V30 END CTAB
M  END
>  <i_epik_Tot_Q>  (1) 
0

>  <i_epik_Tot_abs_Q>  (1) 
0

>  <i_i_glide_confnum>  (1) 
7

>  <i_i_glide_lignum>  (1) 
60

>  <i_i_glide_posenum>  (1) 
343

>  <i_i_glide_rotatable_bonds>  (1) 
5

>  <i_lp_mmshare_version>  (1) 
72125

>  <i_m_source_file_index>  (1) 
18

>  <i_f3d_flags>  (1) 
0

>  <num_sample>  (1) 
50

>  <b_lp_Chiralities_Consistent>  (1) 
1

>  <r_epik_Charging_Adjusted_Penalty>  (1) 
0.043283066486764811

>  <r_epik_Ionization_Penalty>  (1) 
0.043283066491373014

>  <r_epik_Ionization_Penalty_Charging>  (1) 
0

>  <r_epik_Ionization_Penalty_Neutral>  (1) 
0.043283066491373014

>  <r_epik_State_Penalty>  (1) 
0.043283066486764811

>  <r_glide_ring_energy>  (1) 
0

>  <r_i_docking_score>  (1) 
-6.9292112128638967

>  <r_i_glide_ecoul>  (1) 
-6.5810492457039702

>  <r_i_glide_eff_state_penalty>  (1) 
0.043283066486764811

>  <r_i_glide_einternal>  (1) 
3.659995776063897

>  <r_i_glide_emodel>  (1) 
-44.768372007435026

>  <r_i_glide_emodel_strain>  (1) 
0.81784744297500822

>  <r_i_glide_energy>  (1) 
-33.249081474969501

>  <r_i_glide_erotb>  (1) 
0.38198521986113965

>  <r_i_glide_esite>  (1) 
-0.22831900998062327

>  <r_i_glide_evdw>  (1) 
-26.668032229265528

>  <r_i_glide_gscore>  (1) 
-6.9724942793506619

>  <r_i_glide_gscore_strain>  (1) 
0

>  <r_i_glide_hbond>  (1) 
-0.14541914684859081

>  <r_i_glide_ligand_efficiency>  (1) 
-0.24747182903085346

>  <r_i_glide_ligand_efficiency_ln>  (1) 
-1.5994653984106728

>  <r_i_glide_ligand_efficiency_sa>  (1) 
-0.7514702268849891

>  <r_i_glide_lipo>  (1) 
-3.0676351413577549

>  <r_i_glide_metal>  (1) 
-0

>  <r_i_glide_rewards>  (1) 
-1.5925472027059604

>  <r_lp_Energy>  (1) 
17.101319999999998

>  <s_epik_cmdline>  (1) 
J2VwaWtfcHl0aG9uJywgJy1waHQnLCAnMS4wJywgJy1waCcsICc3LjQnLCAnLXRuJywgJzgnLCAnLW1hJywgJzUwMCcsICctaW1hZScsICc8aW5maWxlLm1hZT4nLCAnLW9tYWUnLCAnPG91dGZpbGUubWFlPic=

>  <s_epik_input>  (1) 
W0NIM11bQ0gyXVtDSDJdW0NIMl1TKD1PKSg9TylbTkhdYyhbY0hdW2NIXTEpW2NIXWMoYzEyKWMzYyhbQ0gyXTIpYzRjKFtjSF1bY0hdMylbY0hdYzVjKFtjSF00KVtjSF1bY0hdbzU=

>  <s_glide_docking_method>  (1) 
confgen

>  <s_i_glide_gridfile>  (1) 
gpcr_drd2_6luq_protein_autoprepared_prepared

>  <s_lp_Force_Field>  (1) 
S-OPLS

>  <s_lp_Variant>  (1) 
DiffSBDD_17-1

>  <s_m_source_file>  (1) 
generated_generic_title2_ligand_DiffSBDD_2026-06-23_prepared.sdf

>  <GenAI_Model>  (1) 
DiffSBDD

>  <Protein>  (1) 
generic_title2

$$$$
DiffSBDD_15
     RDKit          3D

  0  0  0  0  0  0  0  0  0  0999 V3000
M  V30 BEGIN CTAB
M  V30 COUNTS 47 48 0 0 1
M  V30 BEGIN ATOM
M  V30 1 C 10.790537 8.978003 -5.869959 0
M  V30 2 C 8.831467 5.169322 -10.695975 0
M  V30 3 Cl 10.381695 6.520588 -12.385025 0
M  V30 4 C 11.558505 9.089453 -4.772750 0
M  V30 5 C 11.380727 6.567479 -4.372923 0
M  V30 6 C 10.087503 7.612972 -7.957738 0 CFG=2
M  V30 7 N 7.662145 3.891019 -13.720921 0 CFG=2 CHG=1
M  V30 8 C 10.276227 7.648802 -6.413605 0 CFG=1
M  V30 9 O 8.565101 1.418006 -13.185027 0
M  V30 10 C 8.878133 5.578864 -12.190236 0 CFG=1
M  V30 11 P 7.159797 2.321406 -13.113952 0
M  V30 12 C 8.127393 3.892054 -15.109227 0
M  V30 13 C 9.155304 4.924357 -14.702340 0
M  V30 14 N 8.975409 6.390227 -9.858073 0 CHG=1
M  V30 15 O 11.405408 8.052040 -9.925262 0
M  V30 16 O 6.575418 1.590372 -14.494936 0
M  V30 17 C 9.508102 6.258571 -8.483094 0
M  V30 18 C 12.008768 7.906606 -3.930050 0
M  V30 19 C 11.373577 8.014893 -8.698549 0
M  V30 20 C 8.949041 4.459712 -13.254116 0 CFG=2
M  V30 21 C 11.158622 6.503730 -5.889630 0
M  V30 22 H 10.508486 9.866284 -6.408357 0
M  V30 23 H 7.903029 4.654810 -10.445502 0
M  V30 24 H 9.651706 4.481620 -10.485077 0
M  V30 25 H 11.885298 10.065423 -4.447870 0
M  V30 26 H 12.016898 5.743812 -4.052127 0
M  V30 27 H 10.427134 6.390229 -3.873550 0
M  V30 28 H 9.354922 8.387322 -8.192304 0
M  V30 29 H 9.280803 7.532244 -5.984615 0
M  V30 30 H 8.860610 1.209987 -12.301732 0
M  V30 31 H 8.059662 6.266944 -12.411033 0
M  V30 32 H 8.575406 2.953644 -15.437302 0
M  V30 33 H 7.378696 4.246537 -15.818221 0
M  V30 34 H 10.159372 4.768150 -15.099110 0
M  V30 35 H 8.806224 5.941467 -14.890069 0
M  V30 36 H 9.632183 6.989762 -10.343803 0
M  V30 37 H 6.671841 0.653301 -14.397346 0
M  V30 38 H 8.698959 5.912169 -7.838071 0
M  V30 39 H 10.282384 5.490612 -8.463059 0
M  V30 40 H 13.094134 7.854030 -3.985014 0
M  V30 41 H 11.775391 8.098672 -2.882495 0
M  V30 42 H 12.228422 8.257822 -8.067269 0
M  V30 43 H 9.681606 3.690462 -13.006467 0
M  V30 44 H 10.649249 5.590224 -6.133224 0
M  V30 45 H 12.118316 6.467333 -6.404778 0
M  V30 46 H 6.920354 4.569339 -13.628317 0
M  V30 47 H 8.084675 6.908997 -9.788682 0
M  V30 END ATOM
M  V30 BEGIN BOND
M  V30 1 2 4 1
M  V30 2 1 8 1
M  V30 3 1 8 6
M  V30 4 1 10 2
M  V30 5 1 10 3
M  V30 6 1 11 7
M  V30 7 1 11 9
M  V30 8 1 12 7
M  V30 9 1 13 12
M  V30 10 1 14 2
M  V30 11 1 16 11
M  V30 12 1 17 6
M  V30 13 1 17 14
M  V30 14 1 18 4
M  V30 15 1 18 5
M  V30 16 1 19 6
M  V30 17 2 19 15
M  V30 18 1 20 7
M  V30 19 1 20 10
M  V30 20 1 20 13
M  V30 21 1 21 5
M  V30 22 1 21 8
M  V30 23 1 22 1
M  V30 24 1 23 2
M  V30 25 1 24 2
M  V30 26 1 25 4
M  V30 27 1 26 5
M  V30 28 1 27 5
M  V30 29 1 6 28 CFG=1
M  V30 30 1 8 29 CFG=1
M  V30 31 1 30 9
M  V30 32 1 10 31 CFG=3
M  V30 33 1 32 12
M  V30 34 1 33 12
M  V30 35 1 34 13
M  V30 36 1 35 13
M  V30 37 1 36 14
M  V30 38 1 37 16
M  V30 39 1 38 17
M  V30 40 1 39 17
M  V30 41 1 40 18
M  V30 42 1 41 18
M  V30 43 1 42 19
M  V30 44 1 20 43 CFG=1
M  V30 45 1 44 21
M  V30 46 1 45 21
M  V30 47 1 7 46 CFG=3
M  V30 48 1 47 14
M  V30 END BOND
M  V30 END CTAB
M  END
>  <i_epik_Tot_Q>  (1) 
2

>  <i_epik_Tot_abs_Q>  (1) 
2

>  <i_i_glide_confnum>  (1) 
46

>  <i_i_glide_lignum>  (1) 
54

>  <i_i_glide_posenum>  (1) 
348

>  <i_i_glide_rotatable_bonds>  (1) 
10

>  <i_lp_mmshare_version>  (1) 
72125

>  <i_m_source_file_index>  (1) 
16

>  <i_f3d_flags>  (1) 
0

>  <num_sample>  (1) 
50

>  <b_lp_Chiralities_Consistent>  (1) 
1

>  <r_epik_Charging_Adjusted_Penalty>  (1) 
0.82033889234892232

>  <r_epik_Ionization_Penalty>  (1) 
0.44833786363099537

>  <r_epik_Ionization_Penalty_Charging>  (1) 
0.44828572222584073

>  <r_epik_Ionization_Penalty_Neutral>  (1) 
5.214140515465987e-05

>  <r_epik_State_Penalty>  (1) 
0.37205317012308153

>  <r_glide_ring_energy>  (1) 
0

>  <r_i_docking_score>  (1) 
-6.9240121009470545

>  <r_i_glide_ecoul>  (1) 
-12.832244321314894

>  <r_i_glide_eff_state_penalty>  (1) 
0.37205317012308153

>  <r_i_glide_einternal>  (1) 
13.870960963928713

>  <r_i_glide_emodel>  (1) 
-62.709714040497595

>  <r_i_glide_emodel_strain>  (1) 
2.0191065851230192

>  <r_i_glide_energy>  (1) 
-41.901737707060597

>  <r_i_glide_erotb>  (1) 
0.99921442309273578

>  <r_i_glide_esite>  (1) 
-0.10000000000000001

>  <r_i_glide_evdw>  (1) 
-29.069493385745702

>  <r_i_glide_gscore>  (1) 
-7.2960652710701357

>  <r_i_glide_gscore_strain>  (1) 
0

>  <r_i_glide_hbond>  (1) 
-0.52000000000000002

>  <r_i_glide_ligand_efficiency>  (1) 
-0.32971486194985972

>  <r_i_glide_ligand_efficiency_ln>  (1) 
-1.7119480006753125

>  <r_i_glide_ligand_efficiency_sa>  (1) 
-0.90965830394563185

>  <r_i_glide_lipo>  (1) 
-2.215737455681424

>  <r_i_glide_metal>  (1) 
-0

>  <r_i_glide_rewards>  (1) 
-2.0812309209969282

>  <r_lp_Energy>  (1) 
18.968132999999998

>  <r_lp_tautomer_probability>  (1) 
0.99990000499974985

>  <s_epik_cmdline>  (1) 
J2VwaWtfcHl0aG9uJywgJy1waHQnLCAnMS4wJywgJy1waCcsICc3LjQnLCAnLXRuJywgJzgnLCAnLW1hJywgJzUwMCcsICctaW1hZScsICc8aW5maWxlLm1hZT4nLCAnLW9tYWUnLCAnPG91dGZpbGUubWFlPic=

>  <s_epik_input>  (1) 
W0NIMl0xW0NIMl1bQ0gyXVtDSF09W0NIXVtDQEhdMVtDQEBIXShbQ0hdPU8pW0NIMl1bTkhdW0NIMl1bQ0BASF0oQ2wpW0NAQEhdMltDSDJdW0NIMl1OMlAoW09IXSlbT0hd

>  <s_glide_docking_method>  (1) 
confgen

>  <s_i_glide_gridfile>  (1) 
gpcr_drd2_6luq_protein_autoprepared_prepared

>  <s_lp_Force_Field>  (1) 
S-OPLS

>  <s_lp_Variant>  (1) 
DiffSBDD_15-1

>  <s_m_source_file>  (1) 
generated_generic_title2_ligand_DiffSBDD_2026-06-23_prepared.sdf

>  <GenAI_Model>  (1) 
DiffSBDD

>  <Protein>  (1) 
generic_title2

$$$$
DiffSBDD_25
     RDKit          3D

  0  0  0  0  0  0  0  0  0  0999 V3000
M  V30 BEGIN CTAB
M  V30 COUNTS 44 46 0 0 1
M  V30 BEGIN ATOM
M  V30 1 C 9.480437 6.695837 -7.936473 0 CFG=2
M  V30 2 C 11.485851 9.418051 -6.188981 0
M  V30 3 C 11.794008 8.801069 -4.966554 0
M  V30 4 C 10.300351 7.408765 -6.914767 0
M  V30 5 N 6.278270 7.590185 -11.985025 0 CHG=1
M  V30 6 N 8.975410 6.606521 -10.385021 0 CHG=1
M  V30 7 C 10.625148 6.790212 -5.690314 0
M  V30 8 C 9.775412 5.291795 -8.385022 0
M  V30 9 C 5.875832 5.238234 -11.427868 0
M  V30 10 C 6.557987 6.211634 -12.406043 0 CFG=2
M  V30 11 C 9.074619 5.710729 -11.562641 0 CFG=1
M  V30 12 C 10.002150 6.451306 -9.334335 0 CFG=2
M  V30 13 C 11.375410 7.481981 -4.722184 0
M  V30 14 C 8.559112 3.584457 -12.626434 0
M  V30 15 C 8.283963 4.745288 -13.592352 0
M  V30 16 C 8.901260 4.219889 -11.275641 0
M  V30 17 C 10.744644 8.719864 -7.161252 0
M  V30 18 C 8.077123 5.994459 -12.716625 0 CFG=1
M  V30 19 H 8.434276 6.921013 -7.780842 0
M  V30 20 H 11.816418 10.428185 -6.382944 0
M  V30 21 H 12.362755 9.334836 -4.220372 0
M  V30 22 H 6.575389 7.736134 -11.012608 0
M  V30 23 H 6.739610 8.251880 -12.590491 0
M  V30 24 H 8.058388 6.566079 -9.945630 0
M  V30 25 H 10.292344 5.785805 -5.490657 0
M  V30 26 H 10.660485 4.806498 -7.985024 0
M  V30 27 H 8.914561 4.643839 -8.526387 0
M  V30 28 H 5.945722 4.204866 -11.763143 0
M  V30 29 H 6.284434 5.309688 -10.419411 0
M  V30 30 H 4.814459 5.463581 -11.337790 0
M  V30 31 H 6.030843 6.117823 -13.356229 0
M  V30 32 H 10.080448 5.845189 -11.966820 0
M  V30 33 H 11.004884 6.784836 -9.597369 0
M  V30 34 H 11.619091 7.002121 -3.784746 0
M  V30 35 H 9.375422 2.959946 -12.978481 0
M  V30 36 H 7.690969 2.931798 -12.535306 0
M  V30 37 H 9.163407 4.890398 -14.222178 0
M  V30 38 H 7.449416 4.535709 -14.264280 0
M  V30 39 H 9.775413 3.763574 -10.824052 0
M  V30 40 H 8.085699 4.042819 -10.579871 0
M  V30 41 H 10.506525 9.190240 -8.099459 0
M  V30 42 H 8.420536 6.863439 -13.278634 0
M  V30 43 H 5.280499 7.747159 -12.024165 0
M  V30 44 H 9.074288 7.556198 -10.712611 0
M  V30 END ATOM
M  V30 BEGIN BOND
M  V30 1 2 3 2
M  V30 2 1 4 1
M  V30 3 1 7 4
M  V30 4 1 8 1
M  V30 5 1 10 5
M  V30 6 1 10 9
M  V30 7 1 11 6
M  V30 8 1 12 1
M  V30 9 1 12 6
M  V30 10 1 12 8
M  V30 11 1 13 3
M  V30 12 2 13 7
M  V30 13 1 15 14
M  V30 14 1 16 11
M  V30 15 1 16 14
M  V30 16 1 17 2
M  V30 17 2 17 4
M  V30 18 1 18 10
M  V30 19 1 18 11
M  V30 20 1 18 15
M  V30 21 1 1 19 CFG=3
M  V30 22 1 20 2
M  V30 23 1 21 3
M  V30 24 1 22 5
M  V30 25 1 23 5
M  V30 26 1 24 6
M  V30 27 1 25 7
M  V30 28 1 26 8
M  V30 29 1 27 8
M  V30 30 1 28 9
M  V30 31 1 29 9
M  V30 32 1 30 9
M  V30 33 1 10 31 CFG=3
M  V30 34 1 11 32 CFG=3
M  V30 35 1 12 33 CFG=3
M  V30 36 1 34 13
M  V30 37 1 35 14
M  V30 38 1 36 14
M  V30 39 1 37 15
M  V30 40 1 38 15
M  V30 41 1 39 16
M  V30 42 1 40 16
M  V30 43 1 41 17
M  V30 44 1 18 42 CFG=3
M  V30 45 1 43 5
M  V30 46 1 44 6
M  V30 END BOND
M  V30 END CTAB
M  END
>  <i_epik_Tot_Q>  (1) 
2

>  <i_epik_Tot_abs_Q>  (1) 
2

>  <i_i_glide_confnum>  (1) 
128

>  <i_i_glide_lignum>  (1) 
73

>  <i_i_glide_posenum>  (1) 
250

>  <i_i_glide_rotatable_bonds>  (1) 
4

>  <i_lp_mmshare_version>  (1) 
72125

>  <i_m_source_file_index>  (1) 
26

>  <i_f3d_flags>  (1) 
0

>  <num_sample>  (1) 
50

>  <b_lp_Chiralities_Consistent>  (1) 
1

>  <r_epik_Charging_Adjusted_Penalty>  (1) 
0.43880639721899328

>  <r_epik_Ionization_Penalty>  (1) 
0.22252539232578136

>  <r_epik_Ionization_Penalty_Charging>  (1) 
0.22252539232578136

>  <r_epik_Ionization_Penalty_Neutral>  (1) 
0

>  <r_epik_State_Penalty>  (1) 
0.21628100489321189

>  <r_glide_ring_energy>  (1) 
0.378465553984697

>  <r_i_docking_score>  (1) 
-6.8915339838646972

>  <r_i_glide_ecoul>  (1) 
-12.472193147098297

>  <r_i_glide_eff_state_penalty>  (1) 
0.21628100489321189

>  <r_i_glide_einternal>  (1) 
0.40603482002875424

>  <r_i_glide_emodel>  (1) 
-61.353786967130098

>  <r_i_glide_emodel_strain>  (1) 
0.30706741823142636

>  <r_i_glide_energy>  (1) 
-36.087299002795234

>  <r_i_glide_erotb>  (1) 
0.86113592628682767

>  <r_i_glide_esite>  (1) 
-0.20000000000000001

>  <r_i_glide_evdw>  (1) 
-23.615105855696935

>  <r_i_glide_gscore>  (1) 
-7.1078149887579087

>  <r_i_glide_gscore_strain>  (1) 
0

>  <r_i_glide_hbond>  (1) 
-0.3295845896978209

>  <r_i_glide_ligand_efficiency>  (1) 
-0.38286299910359428

>  <r_i_glide_ligand_efficiency_ln>  (1) 
-1.7714332749504385

>  <r_i_glide_ligand_efficiency_sa>  (1) 
-1.0033849100617533

>  <r_i_glide_lipo>  (1) 
-1.8277898491711095

>  <r_i_glide_metal>  (1) 
-0

>  <r_i_glide_rewards>  (1) 
-2.5599922113262137

>  <r_lp_Energy>  (1) 
41.614444999999996

>  <s_epik_cmdline>  (1) 
J2VwaWtfcHl0aG9uJywgJy1waHQnLCAnMS4wJywgJy1waCcsICc3LjQnLCAnLXRuJywgJzgnLCAnLW1hJywgJzUwMCcsICctaW1hZScsICc8aW5maWxlLm1hZT4nLCAnLW9tYWUnLCAnPG91dGZpbGUubWFlPic=

>  <s_epik_input>  (1) 
W2NIXTFbY0hdW2NIXVtjSF1bY0hdYzFbQ0BIXTJbQ0gyXVtDQEhdMltOSF1bQ0BIXTNbQ0gyXVtDSDJdW0NIMl1bQ0BIXTNbQ0BIXShbTkgyXSlbQ0gzXQ==

>  <s_glide_docking_method>  (1) 
confgen

>  <s_i_glide_gridfile>  (1) 
gpcr_drd2_6luq_protein_autoprepared_prepared

>  <s_lp_Force_Field>  (1) 
S-OPLS

>  <s_lp_Variant>  (1) 
DiffSBDD_25-2

>  <s_m_source_file>  (1) 
generated_generic_title2_ligand_DiffSBDD_2026-06-23_prepared.sdf

>  <GenAI_Model>  (1) 
DiffSBDD

>  <Protein>  (1) 
generic_title2

$$$$
DiffSBDD_8
     RDKit          3D

  0  0  0  0  0  0  0  0  0  0999 V3000
M  V30 BEGIN CTAB
M  V30 COUNTS 69 72 0 0 1
M  V30 BEGIN ATOM
M  V30 1 N 6.610180 5.417832 -15.963257 0
M  V30 2 C 5.848730 5.064741 -19.696563 0
M  V30 3 C 6.853666 5.052734 -11.737727 0 CFG=1
M  V30 4 N 5.070886 7.283869 -19.873058 0
M  V30 5 O 7.775408 7.148593 -13.895497 0
M  V30 6 C 9.788410 7.952860 -9.985041 0
M  V30 7 F 5.375421 7.989702 -17.723804 0
M  V30 8 C 11.064902 7.544645 -9.233397 0
M  V30 9 N 8.975411 6.790914 -10.421278 0 CHG=1
M  V30 10 C 8.853948 6.646110 -11.895042 0 CFG=1
M  V30 11 C 5.881080 7.202386 -18.670590 0 CFG=1
M  V30 12 C 12.103329 8.927453 -4.064092 0
M  V30 13 C 8.195842 5.366672 -12.379691 0 CFG=2
M  V30 14 O 6.822402 7.990203 -11.985026 0
M  V30 15 O 5.445704 8.509095 -20.523259 0
M  V30 16 C 10.825439 7.025800 -7.804738 0
M  V30 17 C 8.935046 5.277329 -14.901914 0
M  V30 18 C 5.422092 6.131560 -15.464058 0
M  V30 19 C 7.472173 4.871978 -14.952686 0 CFG=1
M  V30 20 C 5.783792 5.729049 -18.307394 0 CFG=2
M  V30 21 C 6.850848 5.230316 -17.295085 0
M  V30 22 C 6.433710 3.635698 -11.586636 0
M  V30 23 C 8.033223 7.715197 -12.643663 0 CFG=2
M  V30 24 C 7.980380 5.738312 -13.823307 0 CFG=2
M  V30 25 O 11.775450 9.590143 -2.862236 0
M  V30 26 O 7.860806 4.656336 -17.705577 0
M  V30 27 C 11.588004 9.687894 -5.299566 0
M  V30 28 C 4.240161 9.174072 -20.861827 0
M  V30 29 C 5.604052 6.206208 -20.692855 0
M  V30 30 O 11.630759 8.811019 -6.418365 0
M  V30 31 C 10.527116 8.136195 -6.798291 0
M  V30 32 N 6.967159 4.390238 -10.459470 0
M  V30 33 O 9.387235 8.358340 -6.395371 0
M  V30 34 H 6.803098 4.589229 -19.921921 0
M  V30 35 H 5.078444 4.297020 -19.786709 0
M  V30 36 H 6.038697 5.753941 -11.886724 0
M  V30 37 H 9.174528 8.613532 -9.371098 0
M  V30 38 H 10.077110 8.540947 -10.855317 0
M  V30 39 H 11.737487 8.405059 -9.190756 0
M  V30 40 H 11.599543 6.791588 -9.806144 0
M  V30 41 H 9.328812 5.936543 -10.017624 0
M  V30 42 H 9.863432 6.671054 -12.313335 0
M  V30 43 H 6.911868 7.491116 -18.874891 0
M  V30 44 H 13.183335 8.790381 -4.117340 0
M  V30 45 H 11.651150 7.935699 -4.019690 0
M  V30 46 H 8.864855 4.508760 -12.293308 0
M  V30 47 H 6.950990 7.990579 -11.030031 0
M  V30 48 H 11.717906 6.505252 -7.456194 0
M  V30 49 H 10.016842 6.294357 -7.783081 0
M  V30 50 H 9.274301 5.990135 -15.648863 0
M  V30 51 H 9.657688 4.507047 -14.642899 0
M  V30 52 H 5.625106 7.201828 -15.423122 0
M  V30 53 H 4.491341 5.990235 -16.002355 0
M  V30 54 H 5.207550 5.822281 -14.440837 0
M  V30 55 H 7.263009 3.836551 -14.692130 0
M  V30 56 H 4.779146 5.534101 -17.950583 0
M  V30 57 H 5.375418 3.435233 -11.584509 0
M  V30 58 H 7.048631 2.883374 -12.075403 0
M  V30 59 H 8.564795 8.661130 -12.756791 0
M  V30 60 H 12.489790 10.156797 -2.607551 0
M  V30 61 H 10.578076 10.065240 -5.129744 0
M  V30 62 H 12.210465 10.556247 -5.511352 0
M  V30 63 H 4.466906 10.141488 -21.309900 0
M  V30 64 H 3.657835 8.593028 -21.578701 0
M  V30 65 H 3.615657 9.349638 -19.985017 0
M  V30 66 H 6.547826 6.513251 -21.148483 0
M  V30 67 H 4.911177 5.930247 -21.486973 0
M  V30 68 H 6.297334 4.630310 -9.733276 0
M  V30 69 H 8.044752 6.958559 -10.019569 0
M  V30 END ATOM
M  V30 BEGIN BOND
M  V30 1 1 8 6
M  V30 2 1 9 6
M  V30 3 1 10 9
M  V30 4 1 11 4
M  V30 5 1 11 7
M  V30 6 1 13 3
M  V30 7 1 13 10
M  V30 8 1 15 4
M  V30 9 1 16 8
M  V30 10 1 18 1
M  V30 11 1 19 1
M  V30 12 1 19 17
M  V30 13 1 20 2
M  V30 14 1 20 11
M  V30 15 1 21 1
M  V30 16 1 21 20
M  V30 17 1 22 3
M  V30 18 1 23 5
M  V30 19 1 23 10
M  V30 20 1 23 14
M  V30 21 1 24 5 CFG=1
M  V30 22 1 24 13
M  V30 23 1 24 17
M  V30 24 1 24 19
M  V30 25 1 25 12
M  V30 26 2 26 21
M  V30 27 1 27 12
M  V30 28 1 28 15
M  V30 29 1 29 2
M  V30 30 1 29 4
M  V30 31 1 30 27
M  V30 32 1 31 16
M  V30 33 1 31 30
M  V30 34 1 32 3
M  V30 35 1 32 22
M  V30 36 2 33 31
M  V30 37 1 34 2
M  V30 38 1 35 2
M  V30 39 1 3 36 CFG=1
M  V30 40 1 37 6
M  V30 41 1 38 6
M  V30 42 1 39 8
M  V30 43 1 40 8
M  V30 44 1 41 9
M  V30 45 1 10 42 CFG=3
M  V30 46 1 11 43 CFG=3
M  V30 47 1 44 12
M  V30 48 1 45 12
M  V30 49 1 13 46 CFG=3
M  V30 50 1 47 14
M  V30 51 1 48 16
M  V30 52 1 49 16
M  V30 53 1 50 17
M  V30 54 1 51 17
M  V30 55 1 52 18
M  V30 56 1 53 18
M  V30 57 1 54 18
M  V30 58 1 19 55 CFG=1
M  V30 59 1 20 56 CFG=1
M  V30 60 1 57 22
M  V30 61 1 58 22
M  V30 62 1 23 59 CFG=3
M  V30 63 1 60 25
M  V30 64 1 61 27
M  V30 65 1 62 27
M  V30 66 1 63 28
M  V30 67 1 64 28
M  V30 68 1 65 28
M  V30 69 1 66 29
M  V30 70 1 67 29
M  V30 71 1 68 32
M  V30 72 1 69 9
M  V30 END BOND
M  V30 END CTAB
M  END
>  <i_epik_Tot_Q>  (1) 
1

>  <i_epik_Tot_abs_Q>  (1) 
1

>  <i_i_glide_confnum>  (1) 
5602

>  <i_i_glide_lignum>  (1) 
33

>  <i_i_glide_posenum>  (1) 
171

>  <i_i_glide_rotatable_bonds>  (1) 
15

>  <i_lp_mmshare_version>  (1) 
72125

>  <i_m_source_file_index>  (1) 
9

>  <i_f3d_flags>  (1) 
0

>  <num_sample>  (1) 
50

>  <b_lp_Chiralities_Consistent>  (1) 
1

>  <r_epik_Charging_Adjusted_Penalty>  (1) 
0.31458683345696248

>  <r_epik_Ionization_Penalty>  (1) 
0.14300301403106822

>  <r_epik_Ionization_Penalty_Charging>  (1) 
0.065080964065447874

>  <r_epik_Ionization_Penalty_Neutral>  (1) 
0.077922049965620341

>  <r_epik_State_Penalty>  (1) 
0.24950586939151459

>  <r_glide_ring_energy>  (1) 
0

>  <r_i_docking_score>  (1) 
-6.8541059702392992

>  <r_i_glide_ecoul>  (1) 
-13.190191070873176

>  <r_i_glide_eff_state_penalty>  (1) 
0.24950586939151459

>  <r_i_glide_einternal>  (1) 
12.318838403357262

>  <r_i_glide_emodel>  (1) 
-60.568936561206812

>  <r_i_glide_emodel_strain>  (1) 
3.7876064506915412

>  <r_i_glide_energy>  (1) 
-45.906393740869213

>  <r_i_glide_erotb>  (1) 
1.0741905119875848

>  <r_i_glide_esite>  (1) 
-0.14747375363460544

>  <r_i_glide_evdw>  (1) 
-32.716202669996036

>  <r_i_glide_gscore>  (1) 
-7.1036118396308137

>  <r_i_glide_gscore_strain>  (1) 
0

>  <r_i_glide_hbond>  (1) 
-0.75024614524424149

>  <r_i_glide_ligand_efficiency>  (1) 
-0.2077001809163424

>  <r_i_glide_ligand_efficiency_ln>  (1) 
-1.5243176791198185

>  <r_i_glide_ligand_efficiency_sa>  (1) 
-0.66620546063551234

>  <r_i_glide_lipo>  (1) 
-1.9627486058615555

>  <r_i_glide_metal>  (1) 
-0

>  <r_i_glide_rewards>  (1) 
-1.7029950527472177

>  <r_lp_Energy>  (1) 
37.534118999999997

>  <s_epik_Chemistry_Notes>  (1) 
This compound has an ester and may undergo hydrolysis at high or low pH. This compound contains an acetal/aminal-like group ( X-CH(R)-Y where X, Y are N, S, or O) that may be acid/base labile, releasing an aldehyde. This compound has a N-S or N-O group and may undergo hydrolysis at high or low pH.

>  <s_epik_cmdline>  (1) 
J2VwaWtfcHl0aG9uJywgJy1waHQnLCAnMS4wJywgJy1waCcsICc3LjQnLCAnLXRuJywgJzgnLCAnLW1hJywgJzUwMCcsICctaW1hZScsICc8aW5maWxlLm1hZT4nLCAnLW9tYWUnLCAnPG91dGZpbGUubWFlPic=

>  <s_epik_input>  (1) 
W0NIM11PTjFbQ0BIXShGKVtDQEBIXShbQ0gyXVtDSDJdMSlDKD1PKU4oW0NIM10pW0NASF0yW0NIMl1DMjNPW0NAQEhdKFtPSF0pW0NASF0oW0NASF0zW0NASF00W0NIMl1bTkhdNClbTkhdW0NIMl1bQ0gyXVtDSDJdQyg9TylPW0NIMl1bQ0gyXVtPSF0=

>  <s_glide_docking_method>  (1) 
confgen

>  <s_i_glide_gridfile>  (1) 
gpcr_drd2_6luq_protein_autoprepared_prepared

>  <s_lp_Force_Field>  (1) 
S-OPLS

>  <s_lp_Variant>  (1) 
DiffSBDD_8-2

>  <s_m_source_file>  (1) 
generated_generic_title2_ligand_DiffSBDD_2026-06-23_prepared.sdf

>  <GenAI_Model>  (1) 
DiffSBDD

>  <Protein>  (1) 
generic_title2

$$$$
DiffSBDD_33
     RDKit          3D

  0  0  0  0  0  0  0  0  0  0999 V3000
M  V30 BEGIN CTAB
M  V30 COUNTS 57 63 0 0 1
M  V30 BEGIN ATOM
M  V30 1 C 7.810362 3.338647 -12.385007 0
M  V30 2 C 7.139977 5.260966 -13.883608 0
M  V30 3 C 8.863684 5.799402 -11.214962 0 CFG=2
M  V30 4 C 10.366527 6.743053 -5.737779 0
M  V30 5 C 6.441940 5.034519 -18.917298 0
M  V30 6 C 7.786329 7.475556 -12.581734 0
M  V30 7 C 6.975345 4.840436 -16.314334 0
M  V30 8 S 6.134911 7.230219 -15.641254 0
M  V30 9 C 7.515876 3.538034 -16.061671 0
M  V30 10 C 6.496403 5.491199 -17.571610 0
M  V30 11 C 11.690859 7.413817 -8.413356 0
M  V30 12 C 6.804894 5.711602 -15.167794 0
M  V30 13 C 5.874761 5.821955 -19.938894 0
M  V30 14 N 7.432152 5.555810 -11.396757 0
M  V30 15 C 5.376435 7.572367 -18.338724 0
M  V30 16 O 11.592424 9.318124 -7.012701 0
M  V30 17 C 11.146384 8.801813 -8.250900 0 CFG=2
M  V30 18 N 7.777259 3.131100 -14.794295 0
M  V30 19 C 5.954771 6.804412 -17.311296 0
M  V30 20 C 5.339528 7.082821 -19.648371 0
M  V30 21 N 9.375426 7.323466 -9.413746 0 CFG=1 CHG=1
M  V30 22 C 9.240410 5.891378 -9.734507 0
M  V30 23 C 9.101956 7.154755 -11.844150 0 CFG=1
M  V30 24 C 7.582037 3.944260 -13.749863 0
M  V30 25 C 10.196894 7.610205 -8.189443 0 CFG=1
M  V30 26 C 9.465441 7.231658 -6.890258 0
M  V30 27 C 7.070360 4.155621 -11.298378 0
M  V30 28 C 6.961087 6.164797 -12.638183 0 CFG=2
M  V30 29 C 9.557502 8.074223 -10.685276 0
M  V30 30 H 7.400639 2.328069 -12.394960 0
M  V30 31 H 8.873567 3.206730 -12.192024 0
M  V30 32 H 9.499495 5.082513 -11.727498 0
M  V30 33 H 9.777047 6.390005 -4.893750 0
M  V30 34 H 10.992347 5.908686 -6.051721 0
M  V30 35 H 11.018648 7.525897 -5.355155 0
M  V30 36 H 6.831022 4.056684 -19.158870 0
M  V30 37 H 7.223166 8.199034 -11.990398 0
M  V30 38 H 7.948362 7.930026 -13.557027 0
M  V30 39 H 7.668030 2.824353 -16.858050 0
M  V30 40 H 12.060554 7.172075 -9.407005 0
M  V30 41 H 12.277550 7.017084 -7.586690 0
M  V30 42 H 5.844591 5.446359 -20.951491 0
M  V30 43 H 4.975072 8.541940 -18.119830 0
M  V30 44 H 12.532211 9.412437 -7.043482 0
M  V30 45 H 11.198322 9.498662 -9.085379 0
M  V30 46 H 4.901074 7.678588 -20.435955 0
M  V30 47 H 10.175379 5.369694 -9.557880 0
M  V30 48 H 8.495284 5.425867 -9.088802 0
M  V30 49 H 9.906847 7.067907 -12.575465 0
M  V30 50 H 8.882422 8.092849 -6.561430 0
M  V30 51 H 8.733199 6.450120 -7.091832 0
M  V30 52 H 5.990738 4.063496 -11.431233 0
M  V30 53 H 7.282242 3.844656 -10.279692 0
M  V30 54 H 5.896112 6.383066 -12.545985 0
M  V30 55 H 8.974472 8.995544 -10.645953 0
M  V30 56 H 10.601742 8.331302 -10.849656 0
M  V30 57 H 8.404463 7.591870 -9.185175 0
M  V30 END ATOM
M  V30 BEGIN BOND
M  V30 1 2 9 7
M  V30 2 2 10 5
M  V30 3 1 10 7
M  V30 4 2 12 2
M  V30 5 1 12 7
M  V30 6 1 12 8
M  V30 7 1 13 5
M  V30 8 1 14 3
M  V30 9 1 17 11
M  V30 10 1 17 16
M  V30 11 1 18 9
M  V30 12 1 19 8
M  V30 13 1 19 10
M  V30 14 2 19 15
M  V30 15 2 20 13
M  V30 16 1 20 15
M  V30 17 1 22 3
M  V30 18 1 22 21
M  V30 19 1 23 3
M  V30 20 1 23 6
M  V30 21 1 24 1
M  V30 22 1 24 2
M  V30 23 2 24 18
M  V30 24 1 25 11
M  V30 25 1 25 17
M  V30 26 1 25 21
M  V30 27 1 26 4
M  V30 28 1 25 26 CFG=1
M  V30 29 1 27 1
M  V30 30 1 27 14
M  V30 31 1 28 2
M  V30 32 1 28 6
M  V30 33 1 28 14
M  V30 34 1 29 21
M  V30 35 1 29 23
M  V30 36 1 30 1
M  V30 37 1 31 1
M  V30 38 1 3 32 CFG=3
M  V30 39 1 33 4
M  V30 40 1 34 4
M  V30 41 1 35 4
M  V30 42 1 36 5
M  V30 43 1 37 6
M  V30 44 1 38 6
M  V30 45 1 39 9
M  V30 46 1 40 11
M  V30 47 1 41 11
M  V30 48 1 42 13
M  V30 49 1 43 15
M  V30 50 1 44 16
M  V30 51 1 17 45 CFG=3
M  V30 52 1 46 20
M  V30 53 1 47 22
M  V30 54 1 48 22
M  V30 55 1 23 49 CFG=3
M  V30 56 1 50 26
M  V30 57 1 51 26
M  V30 58 1 52 27
M  V30 59 1 53 27
M  V30 60 1 28 54 CFG=1
M  V30 61 1 55 29
M  V30 62 1 56 29
M  V30 63 1 21 57 CFG=1
M  V30 END BOND
M  V30 END CTAB
M  END
>  <i_epik_Tot_Q>  (1) 
1

>  <i_epik_Tot_abs_Q>  (1) 
1

>  <i_i_glide_confnum>  (1) 
3

>  <i_i_glide_lignum>  (1) 
96

>  <i_i_glide_posenum>  (1) 
92

>  <i_i_glide_rotatable_bonds>  (1) 
3

>  <i_lp_mmshare_version>  (1) 
72125

>  <i_m_source_file_index>  (1) 
34

>  <i_f3d_flags>  (1) 
0

>  <num_sample>  (1) 
50

>  <b_lp_Chiralities_Consistent>  (1) 
1

>  <r_epik_Charging_Adjusted_Penalty>  (1) 
0.0056247907503774904

>  <r_epik_Ionization_Penalty>  (1) 
0.066233849197789949

>  <r_epik_Ionization_Penalty_Charging>  (1) 
0.0056247907503774904

>  <r_epik_Ionization_Penalty_Neutral>  (1) 
0.060609058447412462

>  <r_epik_State_Penalty>  (1) 
-0

>  <r_glide_ring_energy>  (1) 
0

>  <r_i_docking_score>  (1) 
-6.8290051925579416

>  <r_i_glide_ecoul>  (1) 
-8.7858742612791012

>  <r_i_glide_eff_state_penalty>  (1) 
-0

>  <r_i_glide_einternal>  (1) 
7.2449292114242834

>  <r_i_glide_emodel>  (1) 
-43.222638877197149

>  <r_i_glide_emodel_strain>  (1) 
0.10054886247746708

>  <r_i_glide_energy>  (1) 
-38.782704407013327

>  <r_i_glide_erotb>  (1) 
0.11895510521466947

>  <r_i_glide_esite>  (1) 
-0.10000000000000001

>  <r_i_glide_evdw>  (1) 
-29.996830145734222

>  <r_i_glide_gscore>  (1) 
-6.8290051925579416

>  <r_i_glide_gscore_strain>  (1) 
0

>  <r_i_glide_hbond>  (1) 
-0.1824224905180078

>  <r_i_glide_ligand_efficiency>  (1) 
-0.23548293767441178

>  <r_i_glide_ligand_efficiency_ln>  (1) 
-1.5636690204654835

>  <r_i_glide_ligand_efficiency_sa>  (1) 
-0.72347819157902715

>  <r_i_glide_lipo>  (1) 
-2.4336383483823236

>  <r_i_glide_metal>  (1) 
-0

>  <r_i_glide_rewards>  (1) 
-1.4141768123937037

>  <r_lp_Energy>  (1) 
35.548580999999999

>  <r_lp_tautomer_probability>  (1) 
1

>  <s_epik_cmdline>  (1) 
J2VwaWtfcHl0aG9uJywgJy1waHQnLCAnMS4wJywgJy1waCcsICc3LjQnLCAnLXRuJywgJzgnLCAnLW1hJywgJzUwMCcsICctaW1hZScsICc8aW5maWxlLm1hZT4nLCAnLW9tYWUnLCAnPG91dGZpbGUubWFlPic=

>  <s_epik_input>  (1) 
W09IXVtDQEhdMVtDSDJdW0NAXTEoW0NIMl1bQ0gzXSlOKFtDSDJdMilbQ0gyXVtDQEhdKFtDSDJdW0NAQEhdMzQpW0NAQEhdMk40W0NIMl1bQ0gyXWM1bltjSF1jKGM2YzM1KWM3YyhzNilbY0hdW2NIXVtjSF1bY0hdNw==

>  <s_glide_docking_method>  (1) 
confgen

>  <s_i_glide_gridfile>  (1) 
gpcr_drd2_6luq_protein_autoprepared_prepared

>  <s_lp_Force_Field>  (1) 
S-OPLS

>  <s_lp_Variant>  (1) 
DiffSBDD_33-2

>  <s_m_source_file>  (1) 
generated_generic_title2_ligand_DiffSBDD_2026-06-23_prepared.sdf

>  <GenAI_Model>  (1) 
DiffSBDD

>  <Protein>  (1) 
generic_title2

$$$$
DiffSBDD_20
     RDKit          3D

  0  0  0  0  0  0  0  0  0  0999 V3000
M  V30 BEGIN CTAB
M  V30 COUNTS 72 74 0 0 1
M  V30 BEGIN ATOM
M  V30 1 C 11.401680 5.873914 -19.234466 0
M  V30 2 C 5.355944 7.836221 -15.140361 0
M  V30 3 C 7.547274 4.716942 -16.827308 0 CFG=2
M  V30 4 C 10.098995 5.847740 -19.527441 0
M  V30 5 C 12.053704 5.525310 -17.964864 0 CFG=1
M  V30 6 C 9.018587 7.452581 -7.221979 0
M  V30 7 C 9.267415 5.946368 -10.279447 0 CFG=1
M  V30 8 F 12.856659 6.527953 -17.614593 0
M  V30 9 C 7.493658 6.171713 -12.256205 0
M  V30 10 O 10.817019 6.022106 -7.652034 0
M  V30 11 C 7.297509 4.897427 -15.297456 0
M  V30 12 C 8.986914 6.078167 -11.823030 0 CFG=2
M  V30 13 C 11.426407 8.797270 -6.296001 0
M  V30 14 C 8.959296 5.469965 -18.676881 0
M  V30 15 C 8.946925 5.021344 -17.388179 0
M  V30 16 C 10.112714 4.787110 -16.510058 0
M  V30 17 C 9.980962 7.191406 -9.646393 0 CFG=2
M  V30 18 C 6.048988 6.834200 -17.415327 0
M  V30 19 N 7.832874 6.176314 -14.785307 0 CHG=1
M  V30 20 C 4.961679 6.951563 -16.335853 0
M  V30 21 C 12.762958 8.087377 -8.260824 0
M  V30 22 C 7.209829 6.845233 -13.620183 0 CFG=1
M  V30 23 O 9.502755 4.948014 -12.500186 0
M  V30 24 C 10.280893 7.254142 -8.091050 0 CFG=1
M  V30 25 S 7.378811 5.592578 -19.391216 0
M  V30 26 C 11.414919 4.994553 -16.748392 0
M  V30 27 C 11.333586 8.379406 -7.777205 0
M  V30 28 C 5.705985 7.083752 -13.837728 0
M  V30 29 C 6.521457 5.415783 -17.801517 0 CFG=1
M  V30 30 O 9.375531 8.388608 -10.082165 0
M  V30 31 N 8.060234 5.547736 -9.548883 0 CHG=1
M  V30 32 H 12.080005 6.190663 -20.014698 0
M  V30 33 H 4.488553 8.454909 -14.926450 0
M  V30 34 H 6.134043 8.546188 -15.416366 0
M  V30 35 H 7.418787 3.648410 -17.007879 0
M  V30 36 H 9.844884 6.152239 -20.533909 0
M  V30 37 H 12.751930 4.735891 -18.250677 0
M  V30 38 H 8.577164 8.426116 -7.425892 0
M  V30 39 H 9.236628 7.435898 -6.155172 0
M  V30 40 H 8.274139 6.671723 -7.351499 0
M  V30 41 H 9.938797 5.101316 -10.131710 0
M  V30 42 H 7.021799 5.188516 -12.219583 0
M  V30 43 H 6.957633 6.776262 -11.525047 0
M  V30 44 H 10.156476 5.531031 -7.185389 0
M  V30 45 H 6.236654 4.785987 -15.089544 0
M  V30 46 H 7.771307 4.087784 -14.744607 0
M  V30 47 H 9.530503 6.942729 -12.205961 0
M  V30 48 H 11.622212 7.937589 -5.654806 0
M  V30 49 H 10.516824 9.285351 -5.950385 0
M  V30 50 H 12.234296 9.512662 -6.138742 0
M  V30 51 H 9.885881 4.389057 -15.535202 0
M  V30 52 H 10.945260 7.206822 -10.147719 0
M  V30 53 H 5.634424 7.303680 -18.308368 0
M  V30 54 H 6.914227 7.444905 -17.179449 0
M  V30 55 H 8.815272 6.043377 -14.584550 0
M  V30 56 H 4.591779 5.985372 -16.007886 0
M  V30 57 H 4.088761 7.410093 -16.804979 0
M  V30 58 H 13.191149 7.291005 -7.657812 0
M  V30 59 H 13.403739 8.957580 -8.123507 0
M  V30 60 H 12.831467 7.809998 -9.310975 0
M  V30 61 H 7.684220 7.826013 -13.572455 0
M  V30 62 H 10.432933 4.856390 -12.328953 0
M  V30 63 H 12.107773 4.749587 -15.958981 0
M  V30 64 H 11.007300 9.259177 -8.320257 0
M  V30 65 H 5.349942 7.679989 -12.997558 0
M  V30 66 H 5.136323 6.157346 -13.757557 0
M  V30 67 H 5.649979 4.790421 -17.985000 0
M  V30 68 H 8.432270 8.390191 -9.854893 0
M  V30 69 H 7.404388 6.334873 -9.566635 0
M  V30 70 H 8.278196 5.342695 -8.585942 0
M  V30 71 H 7.760483 6.832921 -15.549690 0
M  V30 72 H 7.637327 4.743298 -9.985030 0
M  V30 END ATOM
M  V30 BEGIN BOND
M  V30 1 2 4 1
M  V30 2 1 5 1
M  V30 3 1 8 5
M  V30 4 1 11 3
M  V30 5 1 12 7
M  V30 6 1 12 9
M  V30 7 1 14 4
M  V30 8 1 15 3
M  V30 9 2 15 14
M  V30 10 1 16 15
M  V30 11 1 17 7
M  V30 12 1 19 11
M  V30 13 1 20 2
M  V30 14 1 20 18
M  V30 15 1 22 9
M  V30 16 1 22 19
M  V30 17 1 23 12
M  V30 18 1 24 6
M  V30 19 1 24 10 CFG=1
M  V30 20 1 24 17
M  V30 21 1 25 14
M  V30 22 1 26 5
M  V30 23 2 26 16
M  V30 24 1 27 13
M  V30 25 1 27 21
M  V30 26 1 27 24
M  V30 27 1 28 2
M  V30 28 1 28 22
M  V30 29 1 29 3
M  V30 30 1 29 18
M  V30 31 1 29 25
M  V30 32 1 30 17
M  V30 33 1 31 7
M  V30 34 1 32 1
M  V30 35 1 33 2
M  V30 36 1 34 2
M  V30 37 1 3 35 CFG=1
M  V30 38 1 36 4
M  V30 39 1 5 37 CFG=3
M  V30 40 1 38 6
M  V30 41 1 39 6
M  V30 42 1 40 6
M  V30 43 1 7 41 CFG=3
M  V30 44 1 42 9
M  V30 45 1 43 9
M  V30 46 1 44 10
M  V30 47 1 45 11
M  V30 48 1 46 11
M  V30 49 1 12 47 CFG=3
M  V30 50 1 48 13
M  V30 51 1 49 13
M  V30 52 1 50 13
M  V30 53 1 51 16
M  V30 54 1 17 52 CFG=3
M  V30 55 1 53 18
M  V30 56 1 54 18
M  V30 57 1 55 19
M  V30 58 1 56 20
M  V30 59 1 57 20
M  V30 60 1 58 21
M  V30 61 1 59 21
M  V30 62 1 60 21
M  V30 63 1 22 61 CFG=1
M  V30 64 1 62 23
M  V30 65 1 63 26
M  V30 66 1 64 27
M  V30 67 1 65 28
M  V30 68 1 66 28
M  V30 69 1 29 67 CFG=3
M  V30 70 1 68 30
M  V30 71 1 69 31
M  V30 72 1 70 31
M  V30 73 1 71 19
M  V30 74 1 72 31
M  V30 END BOND
M  V30 END CTAB
M  END
>  <i_epik_Tot_Q>  (1) 
2

>  <i_epik_Tot_abs_Q>  (1) 
2

>  <i_i_glide_confnum>  (1) 
49

>  <i_i_glide_lignum>  (1) 
65

>  <i_i_glide_posenum>  (1) 
210

>  <i_i_glide_rotatable_bonds>  (1) 
9

>  <i_lp_mmshare_version>  (1) 
72125

>  <i_m_source_file_index>  (1) 
21

>  <i_f3d_flags>  (1) 
0

>  <num_sample>  (1) 
50

>  <b_lp_Chiralities_Consistent>  (1) 
1

>  <r_epik_Charging_Adjusted_Penalty>  (1) 
0.28425092081310654

>  <r_epik_Ionization_Penalty>  (1) 
0.14293687999153612

>  <r_epik_Ionization_Penalty_Charging>  (1) 
0.14293530953308087

>  <r_epik_Ionization_Penalty_Neutral>  (1) 
1.5704584552406844e-06

>  <r_epik_State_Penalty>  (1) 
0.14131561128002565

>  <r_glide_ring_energy>  (1) 
0

>  <r_i_docking_score>  (1) 
-6.7978481428120983

>  <r_i_glide_ecoul>  (1) 
-14.964477072028348

>  <r_i_glide_eff_state_penalty>  (1) 
0.14131561128002565

>  <r_i_glide_einternal>  (1) 
11.953225162250703

>  <r_i_glide_emodel>  (1) 
-54.331460537438673

>  <r_i_glide_emodel_strain>  (1) 
3.5430007669773147

>  <r_i_glide_energy>  (1) 
-41.517395834838311

>  <r_i_glide_erotb>  (1) 
0.38550374204318533

>  <r_i_glide_esite>  (1) 
-0.10000000000000001

>  <r_i_glide_evdw>  (1) 
-26.552918762809959

>  <r_i_glide_gscore>  (1) 
-6.9391637540921236

>  <r_i_glide_gscore_strain>  (1) 
0

>  <r_i_glide_hbond>  (1) 
-0.42652892367897055

>  <r_i_glide_ligand_efficiency>  (1) 
-0.21928542396168058

>  <r_i_glide_ligand_efficiency_ln>  (1) 
-1.5331230852303355

>  <r_i_glide_ligand_efficiency_sa>  (1) 
-0.68885898818466751

>  <r_i_glide_lipo>  (1) 
-2.1987258781360941

>  <r_i_glide_metal>  (1) 
-0

>  <r_i_glide_rewards>  (1) 
-1.0270951953754937

>  <r_lp_Energy>  (1) 
50.051933999999996

>  <s_epik_cmdline>  (1) 
J2VwaWtfcHl0aG9uJywgJy1waHQnLCAnMS4wJywgJy1waCcsICc3LjQnLCAnLXRuJywgJzgnLCAnLW1hJywgJzUwMCcsICctaW1hZScsICc8aW5maWxlLm1hZT4nLCAnLW9tYWUnLCAnPG91dGZpbGUubWFlPic=

>  <s_epik_input>  (1) 
W0NIXTE9W0NIXVtDQEhdKEYpW0NIXT1bQ0hdQyg9QzFbQ0BASF0yMylTW0NAQEhdM1tDSDJdW0NIMl1bQ0gyXVtDSDJdW0NASF0oW05IXVtDSDJdMilbQ0gyXVtDQEhdKFtPSF0pW0NASF0oW05IMl0pW0NAQEhdKFtPSF0pW0NAQF0oW0NIM10pKFtPSF0pW0NIXShbQ0gzXSlbQ0gzXQ==

>  <s_glide_docking_method>  (1) 
confgen

>  <s_i_glide_gridfile>  (1) 
gpcr_drd2_6luq_protein_autoprepared_prepared

>  <s_lp_Force_Field>  (1) 
S-OPLS

>  <s_lp_Variant>  (1) 
DiffSBDD_20-2

>  <s_m_source_file>  (1) 
generated_generic_title2_ligand_DiffSBDD_2026-06-23_prepared.sdf

>  <GenAI_Model>  (1) 
DiffSBDD

>  <Protein>  (1) 
generic_title2

$$$$
DiffSBDD_8
     RDKit          3D

  0  0  0  0  0  0  0  0  0  0999 V3000
M  V30 BEGIN CTAB
M  V30 COUNTS 69 72 0 0 1
M  V30 BEGIN ATOM
M  V30 1 N 6.548956 5.973077 -16.413572 0
M  V30 2 C 5.153116 5.919896 -19.610022 0
M  V30 3 C 6.058393 5.033432 -12.243268 0 CFG=1
M  V30 4 N 7.137878 5.935781 -20.880245 0
M  V30 5 O 7.775410 7.097771 -13.896536 0
M  V30 6 C 9.372805 6.069732 -9.576375 0
M  V30 7 F 8.509594 7.115497 -19.479642 0
M  V30 8 C 9.015599 5.854774 -8.087527 0
M  V30 9 N 8.175414 5.922229 -10.423496 0 CHG=1
M  V30 10 C 8.376792 6.045492 -11.889340 0 CFG=1
M  V30 11 C 7.250383 7.011407 -19.907701 0 CFG=2
M  V30 12 C 12.930051 8.480855 -9.911665 0
M  V30 13 C 7.509267 5.086047 -12.682023 0 CFG=2
M  V30 14 O 6.881882 7.979316 -11.985025 0
M  V30 15 O 7.623622 6.476036 -22.122285 0
M  V30 16 C 10.142386 6.122316 -7.068546 0
M  V30 17 C 8.534248 5.148344 -15.082710 0
M  V30 18 C 5.671910 7.083368 -16.018770 0
M  V30 19 C 7.039302 5.140822 -15.350648 0 CFG=1
M  V30 20 C 6.239231 6.650391 -18.800566 0 CFG=2
M  V30 21 C 6.825692 5.701594 -17.716806 0
M  V30 22 C 5.244792 3.850215 -12.634633 0
M  V30 23 C 8.027079 7.398393 -12.552395 0 CFG=2
M  V30 24 C 7.586336 5.696980 -14.049302 0 CFG=2
M  V30 25 O 14.326697 8.390227 -9.751020 0
M  V30 26 O 7.516536 4.738638 -18.054363 0
M  V30 27 C 12.262270 8.781090 -8.562876 0
M  V30 28 C 8.810246 5.770758 -22.442669 0
M  V30 29 C 5.696984 5.817401 -21.040432 0
M  V30 30 O 11.726417 7.560922 -8.106911 0
M  V30 31 C 10.742962 7.516788 -7.208003 0
M  V30 32 N 5.779616 3.990223 -11.283953 0
M  V30 33 O 10.331928 8.475664 -6.554700 0
M  V30 34 H 4.973506 4.913988 -19.226624 0
M  V30 35 H 4.202477 6.451492 -19.582537 0
M  V30 36 H 5.522430 5.972742 -12.139341 0
M  V30 37 H 9.770453 7.069110 -9.753832 0
M  V30 38 H 10.132132 5.351653 -9.875652 0
M  V30 39 H 8.658866 4.833798 -7.952186 0
M  V30 40 H 8.175416 6.488336 -7.820069 0
M  V30 41 H 7.767371 5.012920 -10.249699 0
M  V30 42 H 9.417842 5.823350 -12.133624 0
M  V30 43 H 6.988550 7.967092 -20.365708 0
M  V30 44 H 12.732404 9.294107 -10.606960 0
M  V30 45 H 12.533422 7.576499 -10.371321 0
M  V30 46 H 7.935144 4.080337 -12.690735 0
M  V30 47 H 6.975409 8.004240 -11.026581 0
M  V30 48 H 10.942508 5.393952 -7.201326 0
M  V30 49 H 9.767790 5.997739 -6.051884 0
M  V30 50 H 9.146553 5.851242 -15.644212 0
M  V30 51 H 8.991527 4.180450 -14.896758 0
M  V30 52 H 6.167448 8.043900 -16.171103 0
M  V30 53 H 4.729552 7.070801 -16.567366 0
M  V30 54 H 5.399710 7.026824 -14.964529 0
M  V30 55 H 6.575424 4.159289 -15.288406 0
M  V30 56 H 5.856080 7.588552 -18.409418 0
M  V30 57 H 4.176283 3.990221 -12.781268 0
M  V30 58 H 5.699286 3.085165 -13.260678 0
M  V30 59 H 8.835908 8.125271 -12.470219 0
M  V30 60 H 14.628865 9.306061 -9.729471 0
M  V30 61 H 12.963694 9.190185 -7.834883 0
M  V30 62 H 11.459549 9.505515 -8.707537 0
M  V30 63 H 9.218108 6.151736 -23.378751 0
M  V30 64 H 9.571833 5.900484 -21.671714 0
M  V30 65 H 8.617286 4.704421 -22.569179 0
M  V30 66 H 5.422160 4.885426 -21.534390 0
M  V30 67 H 5.318137 6.645929 -21.642169 0
M  V30 68 H 5.114154 4.193599 -10.546829 0
M  V30 69 H 7.507699 6.627141 -10.086052 0
M  V30 END ATOM
M  V30 BEGIN BOND
M  V30 1 1 8 6
M  V30 2 1 9 6
M  V30 3 1 10 9
M  V30 4 1 11 4
M  V30 5 1 11 7
M  V30 6 1 13 3
M  V30 7 1 13 10
M  V30 8 1 15 4
M  V30 9 1 16 8
M  V30 10 1 18 1
M  V30 11 1 19 1
M  V30 12 1 19 17
M  V30 13 1 20 2
M  V30 14 1 20 11
M  V30 15 1 21 1
M  V30 16 1 21 20
M  V30 17 1 22 3
M  V30 18 1 23 5
M  V30 19 1 23 10
M  V30 20 1 23 14
M  V30 21 1 24 5 CFG=1
M  V30 22 1 24 13
M  V30 23 1 24 17
M  V30 24 1 24 19
M  V30 25 1 25 12
M  V30 26 2 26 21
M  V30 27 1 27 12
M  V30 28 1 28 15
M  V30 29 1 29 2
M  V30 30 1 29 4
M  V30 31 1 30 27
M  V30 32 1 31 16
M  V30 33 1 31 30
M  V30 34 1 32 3
M  V30 35 1 32 22
M  V30 36 2 33 31
M  V30 37 1 34 2
M  V30 38 1 35 2
M  V30 39 1 3 36 CFG=1
M  V30 40 1 37 6
M  V30 41 1 38 6
M  V30 42 1 39 8
M  V30 43 1 40 8
M  V30 44 1 41 9
M  V30 45 1 10 42 CFG=1
M  V30 46 1 11 43 CFG=3
M  V30 47 1 44 12
M  V30 48 1 45 12
M  V30 49 1 13 46 CFG=3
M  V30 50 1 47 14
M  V30 51 1 48 16
M  V30 52 1 49 16
M  V30 53 1 50 17
M  V30 54 1 51 17
M  V30 55 1 52 18
M  V30 56 1 53 18
M  V30 57 1 54 18
M  V30 58 1 19 55 CFG=1
M  V30 59 1 20 56 CFG=1
M  V30 60 1 57 22
M  V30 61 1 58 22
M  V30 62 1 23 59 CFG=3
M  V30 63 1 60 25
M  V30 64 1 61 27
M  V30 65 1 62 27
M  V30 66 1 63 28
M  V30 67 1 64 28
M  V30 68 1 65 28
M  V30 69 1 66 29
M  V30 70 1 67 29
M  V30 71 1 68 32
M  V30 72 1 69 9
M  V30 END BOND
M  V30 END CTAB
M  END
>  <i_epik_Tot_Q>  (1) 
1

>  <i_epik_Tot_abs_Q>  (1) 
1

>  <i_i_glide_confnum>  (1) 
1964

>  <i_i_glide_lignum>  (1) 
32

>  <i_i_glide_posenum>  (1) 
198

>  <i_i_glide_rotatable_bonds>  (1) 
15

>  <i_lp_mmshare_version>  (1) 
72125

>  <i_m_source_file_index>  (1) 
9

>  <i_f3d_flags>  (1) 
0

>  <num_sample>  (1) 
50

>  <b_lp_Chiralities_Consistent>  (1) 
1

>  <r_epik_Charging_Adjusted_Penalty>  (1) 
0.31458683345696248

>  <r_epik_Ionization_Penalty>  (1) 
0.14300301403106822

>  <r_epik_Ionization_Penalty_Charging>  (1) 
0.065080964065447874

>  <r_epik_Ionization_Penalty_Neutral>  (1) 
0.077922049965620341

>  <r_epik_State_Penalty>  (1) 
0.24950586939151459

>  <r_glide_ring_energy>  (1) 
0

>  <r_i_docking_score>  (1) 
-6.7836160659895617

>  <r_i_glide_ecoul>  (1) 
-21.245304873012273

>  <r_i_glide_eff_state_penalty>  (1) 
0.24950586939151459

>  <r_i_glide_einternal>  (1) 
13.868223195308747

>  <r_i_glide_emodel>  (1) 
-64.588238173919351

>  <r_i_glide_emodel_strain>  (1) 
1.0809043324226622

>  <r_i_glide_energy>  (1) 
-48.374225207866381

>  <r_i_glide_erotb>  (1) 
1.0741905119875848

>  <r_i_glide_esite>  (1) 
-0.15054640333033187

>  <r_i_glide_evdw>  (1) 
-27.128920334854108

>  <r_i_glide_gscore>  (1) 
-7.0331219353810761

>  <r_i_glide_gscore_strain>  (1) 
0

>  <r_i_glide_hbond>  (1) 
-0.64288463404342733

>  <r_i_glide_ligand_efficiency>  (1) 
-0.20556412321180489

>  <r_i_glide_ligand_efficiency_ln>  (1) 
-1.508641089391868

>  <r_i_glide_ligand_efficiency_sa>  (1) 
-0.65935398221735619

>  <r_i_glide_lipo>  (1) 
-1.6083310904390793

>  <r_i_glide_metal>  (1) 
-0

>  <r_i_glide_rewards>  (1) 
-1.1623085718612753

>  <r_lp_Energy>  (1) 
36.819628999999999

>  <s_epik_Chemistry_Notes>  (1) 
This compound has an ester and may undergo hydrolysis at high or low pH. This compound contains an acetal/aminal-like group ( X-CH(R)-Y where X, Y are N, S, or O) that may be acid/base labile, releasing an aldehyde. This compound has a N-S or N-O group and may undergo hydrolysis at high or low pH.

>  <s_epik_cmdline>  (1) 
J2VwaWtfcHl0aG9uJywgJy1waHQnLCAnMS4wJywgJy1waCcsICc3LjQnLCAnLXRuJywgJzgnLCAnLW1hJywgJzUwMCcsICctaW1hZScsICc8aW5maWxlLm1hZT4nLCAnLW9tYWUnLCAnPG91dGZpbGUubWFlPic=

>  <s_epik_input>  (1) 
W0NIM11PTjFbQ0BIXShGKVtDQEBIXShbQ0gyXVtDSDJdMSlDKD1PKU4oW0NIM10pW0NASF0yW0NIMl1DMjNPW0NAQEhdKFtPSF0pW0NASF0oW0NASF0zW0NASF00W0NIMl1bTkhdNClbTkhdW0NIMl1bQ0gyXVtDSDJdQyg9TylPW0NIMl1bQ0gyXVtPSF0=

>  <s_glide_docking_method>  (1) 
confgen

>  <s_i_glide_gridfile>  (1) 
gpcr_drd2_6luq_protein_autoprepared_prepared

>  <s_lp_Force_Field>  (1) 
S-OPLS

>  <s_lp_Variant>  (1) 
DiffSBDD_8-1

>  <s_m_source_file>  (1) 
generated_generic_title2_ligand_DiffSBDD_2026-06-23_prepared.sdf

>  <GenAI_Model>  (1) 
DiffSBDD

>  <Protein>  (1) 
generic_title2

$$$$
DiffSBDD_25
     RDKit          3D

  0  0  0  0  0  0  0  0  0  0999 V3000
M  V30 BEGIN CTAB
M  V30 COUNTS 43 45 0 0 1
M  V30 BEGIN ATOM
M  V30 1 C 11.777649 9.874692 -4.873003 0 CFG=1
M  V30 2 C 12.572901 7.834140 -1.787709 0
M  V30 3 C 12.135627 6.559335 -2.180941 0
M  V30 4 C 11.914198 8.720438 -3.961211 0
M  V30 5 N 8.575772 6.487917 -7.315479 0 CHG=1
M  V30 6 N 10.619011 8.774143 -6.904458 0
M  V30 7 C 11.500849 7.430705 -4.344498 0
M  V30 8 C 12.757268 9.993779 -6.005501 0
M  V30 9 C 10.575563 5.590400 -7.887775 0
M  V30 10 C 9.467293 6.388849 -8.454334 0 CFG=2
M  V30 11 C 10.887680 8.660335 -8.321800 0 CFG=1
M  V30 12 C 11.281646 9.908275 -6.281202 0 CFG=2
M  V30 13 C 11.606299 6.369024 -3.460180 0
M  V30 14 C 12.182234 7.751829 -10.072873 0
M  V30 15 C 10.689580 7.587764 -10.411056 0
M  V30 16 C 12.327212 8.337738 -8.686894 0
M  V30 17 C 12.455764 8.907693 -2.680637 0
M  V30 18 C 9.919863 7.741370 -9.087805 0 CFG=1
M  V30 19 H 11.399285 10.730671 -4.324900 0
M  V30 20 H 12.984564 7.990335 -0.802577 0
M  V30 21 H 12.204339 5.723100 -1.496212 0
M  V30 22 H 8.935462 7.113600 -6.618839 0
M  V30 23 H 7.618251 6.790276 -7.584498 0
M  V30 24 H 9.624123 8.932271 -6.827661 0
M  V30 25 H 11.092212 7.250736 -5.310628 0
M  V30 26 H 13.134430 10.942778 -6.377520 0
M  V30 27 H 13.417920 9.186779 -6.247383 0
M  V30 28 H 11.498491 5.991296 -8.225104 0
M  V30 29 H 10.634619 5.597103 -6.796863 0
M  V30 30 H 10.503130 4.557113 -8.220087 0
M  V30 31 H 8.956572 5.799820 -9.216610 0
M  V30 32 H 10.710951 9.590695 -8.810026 0
M  V30 33 H 10.802115 10.862365 -6.384558 0
M  V30 34 H 11.273305 5.404109 -3.765825 0
M  V30 35 H 12.751122 8.310277 -10.818735 0
M  V30 36 H 12.646224 6.792277 -9.985041 0
M  V30 37 H 10.413634 8.384612 -11.101120 0
M  V30 38 H 10.493895 6.645723 -10.929943 0
M  V30 39 H 12.995414 9.190158 -8.710524 0
M  V30 40 H 12.789605 7.628867 -7.994703 0
M  V30 41 H 12.779292 9.887641 -2.383423 0
M  V30 42 H 9.021919 8.315616 -9.295943 0
M  V30 43 H 8.455683 5.570378 -6.919747 0
M  V30 END ATOM
M  V30 BEGIN BOND
M  V30 1 2 3 2
M  V30 2 1 4 1
M  V30 3 1 7 4
M  V30 4 1 8 1
M  V30 5 1 10 5
M  V30 6 1 10 9
M  V30 7 1 11 6
M  V30 8 1 12 1
M  V30 9 1 12 6
M  V30 10 1 12 8
M  V30 11 1 13 3
M  V30 12 2 13 7
M  V30 13 1 15 14
M  V30 14 1 16 11
M  V30 15 1 16 14
M  V30 16 1 17 2
M  V30 17 2 17 4
M  V30 18 1 18 10
M  V30 19 1 18 11
M  V30 20 1 18 15
M  V30 21 1 1 19 CFG=1
M  V30 22 1 20 2
M  V30 23 1 21 3
M  V30 24 1 22 5
M  V30 25 1 23 5
M  V30 26 1 24 6
M  V30 27 1 25 7
M  V30 28 1 26 8
M  V30 29 1 27 8
M  V30 30 1 28 9
M  V30 31 1 29 9
M  V30 32 1 30 9
M  V30 33 1 10 31 CFG=3
M  V30 34 1 11 32 CFG=3
M  V30 35 1 12 33 CFG=1
M  V30 36 1 34 13
M  V30 37 1 35 14
M  V30 38 1 36 14
M  V30 39 1 37 15
M  V30 40 1 38 15
M  V30 41 1 39 16
M  V30 42 1 40 16
M  V30 43 1 41 17
M  V30 44 1 18 42 CFG=3
M  V30 45 1 43 5
M  V30 END BOND
M  V30 END CTAB
M  END
>  <i_epik_Tot_Q>  (1) 
1

>  <i_epik_Tot_abs_Q>  (1) 
1

>  <i_i_glide_confnum>  (1) 
105

>  <i_i_glide_lignum>  (1) 
74

>  <i_i_glide_posenum>  (1) 
79

>  <i_i_glide_rotatable_bonds>  (1) 
4

>  <i_lp_mmshare_version>  (1) 
72125

>  <i_m_source_file_index>  (1) 
26

>  <i_f3d_flags>  (1) 
0

>  <num_sample>  (1) 
50

>  <b_lp_Chiralities_Consistent>  (1) 
1

>  <r_epik_Charging_Adjusted_Penalty>  (1) 
0.70247939945427629

>  <r_epik_Ionization_Penalty>  (1) 
0.7024793994542764

>  <r_epik_Ionization_Penalty_Charging>  (1) 
0.00054833754919439773

>  <r_epik_Ionization_Penalty_Neutral>  (1) 
0.70193106190508203

>  <r_epik_State_Penalty>  (1) 
0.70193106190508192

>  <r_glide_ring_energy>  (1) 
1.1423732950286412

>  <r_i_docking_score>  (1) 
-6.7492936900793117

>  <r_i_glide_ecoul>  (1) 
-9.2004742192536462

>  <r_i_glide_eff_state_penalty>  (1) 
0.70193106190508192

>  <r_i_glide_einternal>  (1) 
11.501256428558726

>  <r_i_glide_emodel>  (1) 
-22.969447826870788

>  <r_i_glide_emodel_strain>  (1) 
4.4094992008118012

>  <r_i_glide_energy>  (1) 
-13.589418751031703

>  <r_i_glide_erotb>  (1) 
0.60703758372024064

>  <r_i_glide_esite>  (1) 
-0.10000000000000001

>  <r_i_glide_evdw>  (1) 
-4.3889445317780567

>  <r_i_glide_gscore>  (1) 
-7.4512247519843937

>  <r_i_glide_gscore_strain>  (1) 
0.10237480020295031

>  <r_i_glide_hbond>  (1) 
-0.25639932696202328

>  <r_i_glide_ligand_efficiency>  (1) 
-0.37496076055996175

>  <r_i_glide_ligand_efficiency_ln>  (1) 
-1.7348711408827404

>  <r_i_glide_ligand_efficiency_sa>  (1) 
-0.98267518640354246

>  <r_i_glide_lipo>  (1) 
-3.0387493358322466

>  <r_i_glide_metal>  (1) 
-0

>  <r_i_glide_rewards>  (1) 
-3.165970113636364

>  <r_lp_Energy>  (1) 
23.818217999999998

>  <s_epik_cmdline>  (1) 
J2VwaWtfcHl0aG9uJywgJy1waHQnLCAnMS4wJywgJy1waCcsICc3LjQnLCAnLXRuJywgJzgnLCAnLW1hJywgJzUwMCcsICctaW1hZScsICc8aW5maWxlLm1hZT4nLCAnLW9tYWUnLCAnPG91dGZpbGUubWFlPic=

>  <s_epik_input>  (1) 
W2NIXTFbY0hdW2NIXVtjSF1bY0hdYzFbQ0BIXTJbQ0gyXVtDQEhdMltOSF1bQ0BIXTNbQ0gyXVtDSDJdW0NIMl1bQ0BIXTNbQ0BIXShbTkgyXSlbQ0gzXQ==

>  <s_glide_docking_method>  (1) 
confgen

>  <s_i_glide_gridfile>  (1) 
gpcr_drd2_6luq_protein_autoprepared_prepared

>  <s_lp_Force_Field>  (1) 
S-OPLS

>  <s_lp_Variant>  (1) 
DiffSBDD_25-3

>  <s_m_source_file>  (1) 
generated_generic_title2_ligand_DiffSBDD_2026-06-23_prepared.sdf

>  <GenAI_Model>  (1) 
DiffSBDD

>  <Protein>  (1) 
generic_title2

$$$$
DiffSBDD_15
     RDKit          3D

  0  0  0  0  0  0  0  0  0  0999 V3000
M  V30 BEGIN CTAB
M  V30 COUNTS 46 47 0 0 1
M  V30 BEGIN ATOM
M  V30 1 C 11.524052 8.901795 -5.187398 0
M  V30 2 C 10.716888 7.648431 -10.058804 0
M  V30 3 Cl 11.335963 6.790227 -12.516006 0
M  V30 4 C 12.394943 9.019080 -4.169159 0
M  V30 5 C 11.823556 6.669092 -3.334847 0
M  V30 6 C 10.531118 7.327592 -7.031623 0 CFG=2
M  V30 7 N 8.266443 5.736759 -12.391480 0 CFG=2 CHG=1
M  V30 8 C 10.763686 7.618075 -5.519968 0 CFG=1
M  V30 9 O 7.052776 7.990225 -11.985027 0
M  V30 10 C 10.044154 7.213211 -11.365706 0 CFG=1
M  V30 11 P 6.685357 6.474034 -12.571487 0
M  V30 12 C 8.257345 4.312225 -12.052380 0
M  V30 13 C 9.503796 4.575241 -11.226704 0
M  V30 14 N 9.775409 8.390210 -9.232663 0
M  V30 15 O 9.451583 5.396544 -7.985024 0
M  V30 16 O 5.883377 5.990224 -11.185027 0
M  V30 17 C 10.257618 8.598397 -7.871688 0
M  V30 18 C 12.748590 7.890262 -3.218384 0
M  V30 19 C 9.375447 6.326678 -7.185047 0
M  V30 20 C 9.050954 6.039482 -11.186883 0 CFG=2
M  V30 21 C 11.346121 6.390238 -4.772333 0
M  V30 22 H 11.327936 9.759366 -5.812599 0
M  V30 23 H 11.110889 6.776561 -9.544253 0
M  V30 24 H 11.565501 8.300943 -10.267791 0
M  V30 25 H 12.890703 9.963558 -3.999490 0
M  V30 26 H 12.337520 5.792494 -2.941368 0
M  V30 27 H 10.975407 6.790226 -2.670990 0
M  V30 28 H 11.430728 6.852387 -7.422688 0
M  V30 29 H 9.775390 7.815968 -5.138499 0
M  V30 30 H 6.975416 7.990232 -11.023946 0
M  V30 31 H 9.552772 8.084169 -11.797605 0
M  V30 32 H 7.412999 3.991963 -11.438845 0
M  V30 33 H 8.409503 3.652317 -12.907323 0
M  V30 34 H 9.525380 4.062672 -10.265098 0
M  V30 35 H 10.407886 4.390241 -11.804820 0
M  V30 36 H 8.834913 7.990225 -9.219160 0
M  V30 37 H 6.166456 6.519987 -10.443456 0
M  V30 38 H 11.170278 9.190301 -7.934262 0
M  V30 39 H 9.505165 9.190282 -7.354553 0
M  V30 40 H 13.775149 7.590222 -3.420116 0
M  V30 41 H 12.733344 8.269834 -2.195740 0
M  V30 42 H 8.509377 6.502760 -6.547161 0
M  V30 43 H 8.380285 6.189004 -10.339636 0
M  V30 44 H 10.604822 5.593966 -4.735981 0
M  V30 45 H 12.175412 5.989840 -5.349954 0
M  V30 46 H 8.841050 5.882331 -13.209982 0
M  V30 END ATOM
M  V30 BEGIN BOND
M  V30 1 2 4 1
M  V30 2 1 8 1
M  V30 3 1 8 6
M  V30 4 1 10 2
M  V30 5 1 10 3
M  V30 6 1 11 7
M  V30 7 1 11 9
M  V30 8 1 12 7
M  V30 9 1 13 12
M  V30 10 1 14 2
M  V30 11 1 16 11
M  V30 12 1 17 6
M  V30 13 1 17 14
M  V30 14 1 18 4
M  V30 15 1 18 5
M  V30 16 1 19 6
M  V30 17 2 19 15
M  V30 18 1 20 7
M  V30 19 1 20 10
M  V30 20 1 20 13
M  V30 21 1 21 5
M  V30 22 1 21 8
M  V30 23 1 22 1
M  V30 24 1 23 2
M  V30 25 1 24 2
M  V30 26 1 25 4
M  V30 27 1 26 5
M  V30 28 1 27 5
M  V30 29 1 6 28 CFG=3
M  V30 30 1 8 29 CFG=1
M  V30 31 1 30 9
M  V30 32 1 10 31 CFG=3
M  V30 33 1 32 12
M  V30 34 1 33 12
M  V30 35 1 34 13
M  V30 36 1 35 13
M  V30 37 1 36 14
M  V30 38 1 37 16
M  V30 39 1 38 17
M  V30 40 1 39 17
M  V30 41 1 40 18
M  V30 42 1 41 18
M  V30 43 1 42 19
M  V30 44 1 20 43 CFG=1
M  V30 45 1 44 21
M  V30 46 1 45 21
M  V30 47 1 7 46 CFG=3
M  V30 END BOND
M  V30 END CTAB
M  END
>  <i_epik_Tot_Q>  (1) 
1

>  <i_epik_Tot_abs_Q>  (1) 
1

>  <i_i_glide_confnum>  (1) 
430

>  <i_i_glide_lignum>  (1) 
56

>  <i_i_glide_posenum>  (1) 
197

>  <i_i_glide_rotatable_bonds>  (1) 
10

>  <i_lp_mmshare_version>  (1) 
72125

>  <i_m_source_file_index>  (1) 
16

>  <i_f3d_flags>  (1) 
0

>  <num_sample>  (1) 
50

>  <b_lp_Chiralities_Consistent>  (1) 
1

>  <r_epik_Charging_Adjusted_Penalty>  (1) 
0.56727467886288852

>  <r_epik_Ionization_Penalty>  (1) 
0.44114962020939286

>  <r_epik_Ionization_Penalty_Charging>  (1) 
0.027117031585188044

>  <r_epik_Ionization_Penalty_Neutral>  (1) 
0.41403258862420483

>  <r_epik_State_Penalty>  (1) 
0.54015764727770044

>  <r_glide_ring_energy>  (1) 
0

>  <r_i_docking_score>  (1) 
-6.7394958751430432

>  <r_i_glide_ecoul>  (1) 
-14.262042973936239

>  <r_i_glide_eff_state_penalty>  (1) 
0.54015764727770044

>  <r_i_glide_einternal>  (1) 
15.052244334328241

>  <r_i_glide_emodel>  (1) 
-53.938850504428984

>  <r_i_glide_emodel_strain>  (1) 
1.6312968016085847

>  <r_i_glide_energy>  (1) 
-44.789562044036117

>  <r_i_glide_erotb>  (1) 
1.004531890689508

>  <r_i_glide_esite>  (1) 
-0.098484179068900238

>  <r_i_glide_evdw>  (1) 
-30.527519070099878

>  <r_i_glide_gscore>  (1) 
-7.2796535224207437

>  <r_i_glide_gscore_strain>  (1) 
0

>  <r_i_glide_hbond>  (1) 
-0.43199999999999994

>  <r_i_glide_ligand_efficiency>  (1) 
-0.32092837500681159

>  <r_i_glide_ligand_efficiency_ln>  (1) 
-1.666326736695412

>  <r_i_glide_ligand_efficiency_sa>  (1) 
-0.8854170526929992

>  <r_i_glide_lipo>  (1) 
-2.2818388616038612

>  <r_i_glide_metal>  (1) 
-0

>  <r_i_glide_rewards>  (1) 
-1.8061799728420611

>  <r_lp_Energy>  (1) 
5.779852

>  <r_lp_tautomer_probability>  (1) 
0.99990000499974985

>  <s_epik_cmdline>  (1) 
J2VwaWtfcHl0aG9uJywgJy1waHQnLCAnMS4wJywgJy1waCcsICc3LjQnLCAnLXRuJywgJzgnLCAnLW1hJywgJzUwMCcsICctaW1hZScsICc8aW5maWxlLm1hZT4nLCAnLW9tYWUnLCAnPG91dGZpbGUubWFlPic=

>  <s_epik_input>  (1) 
W0NIMl0xW0NIMl1bQ0gyXVtDSF09W0NIXVtDQEhdMVtDQEBIXShbQ0hdPU8pW0NIMl1bTkhdW0NIMl1bQ0BASF0oQ2wpW0NAQEhdMltDSDJdW0NIMl1OMlAoW09IXSlbT0hd

>  <s_glide_docking_method>  (1) 
confgen

>  <s_i_glide_gridfile>  (1) 
gpcr_drd2_6luq_protein_autoprepared_prepared

>  <s_lp_Force_Field>  (1) 
S-OPLS

>  <s_lp_Variant>  (1) 
DiffSBDD_15-3

>  <s_m_source_file>  (1) 
generated_generic_title2_ligand_DiffSBDD_2026-06-23_prepared.sdf

>  <GenAI_Model>  (1) 
DiffSBDD

>  <Protein>  (1) 
generic_title2

$$$$
DiffSBDD_32
     RDKit          3D

  0  0  0  0  0  0  0  0  0  0999 V3000
M  V30 BEGIN CTAB
M  V30 COUNTS 69 71 0 0 1
M  V30 BEGIN ATOM
M  V30 1 C 11.171777 8.686184 -6.631387 0
M  V30 2 C 11.032405 6.268147 -3.671417 0
M  V30 3 N 12.683495 8.445117 -2.699060 0
M  V30 4 C 9.444790 7.330116 -11.146782 0
M  V30 5 C 6.303980 0.968934 -16.367955 0
M  V30 6 O 10.081653 6.538294 -6.361202 0
M  V30 7 O 8.175386 -0.405774 -14.385041 0
M  V30 8 C 8.865376 5.194214 -9.329871 0
M  V30 9 C 7.102475 5.435783 -13.494941 0 CFG=2
M  V30 10 C 6.422025 6.368116 -14.526556 0
M  V30 11 C 6.370441 4.086306 -13.241219 0
M  V30 12 C 9.708537 6.370485 -8.812072 0 CFG=1
M  V30 13 C 9.786986 7.482881 -9.855779 0
M  V30 14 C 12.670598 7.146499 -2.066616 0
M  V30 15 C 9.173040 6.831718 -7.428442 0
M  V30 16 C 11.959569 9.709000 -6.099809 0
M  V30 17 C 5.711425 1.121016 -13.381374 0
M  V30 18 C 8.164412 0.723276 -13.547824 0
M  V30 19 C 8.934262 6.031564 -11.744876 0 CFG=1
M  V30 20 C 10.869787 7.551112 -5.852515 0
M  V30 21 N 7.350705 2.971596 -13.200377 0 CHG=1
M  V30 22 C 12.463449 9.605992 -4.795756 0
M  V30 23 C 7.025413 1.989842 -15.459113 0
M  V30 24 C 9.151728 4.833717 -10.794607 0
M  V30 25 C 11.375398 7.459101 -4.530251 0
M  V30 26 C 7.033012 1.709713 -13.919073 0 CFG=2
M  V30 27 O 5.375414 5.960223 -15.066964 0 CHG=-1
M  V30 28 O 6.975409 7.464387 -14.752285 0
M  V30 29 C 11.312614 6.505773 -2.178635 0
M  V30 30 C 7.461035 6.195792 -12.186775 0
M  V30 31 C 12.175405 8.500445 -4.006702 0
M  V30 32 H 10.797648 8.776428 -7.631042 0
M  V30 33 H 9.993359 5.990215 -3.828529 0
M  V30 34 H 11.675827 5.486593 -4.050235 0
M  V30 35 H 13.368928 9.126694 -2.400055 0
M  V30 36 H 9.525664 8.169987 -11.820874 0
M  V30 37 H 6.262006 1.341727 -17.391232 0
M  V30 38 H 6.801140 0.002182 -16.413074 0
M  V30 39 H 5.275613 0.790206 -16.054746 0
M  V30 40 H 8.176076 -0.135028 -15.290168 0
M  V30 41 H 9.039705 4.351261 -8.671006 0
M  V30 42 H 7.804624 5.437837 -9.240098 0
M  V30 43 H 8.026697 5.203152 -14.024370 0
M  V30 44 H 5.607210 3.879559 -13.985069 0
M  V30 45 H 5.825316 4.104667 -12.296544 0
M  V30 46 H 10.733603 6.024993 -8.679209 0
M  V30 47 H 10.137177 8.441837 -9.518687 0
M  V30 48 H 12.975451 7.274110 -1.034150 0
M  V30 49 H 13.398634 6.498364 -2.547132 0
M  V30 50 H 8.836292 7.868863 -7.432408 0
M  V30 51 H 8.270905 6.273229 -7.177049 0
M  V30 52 H 12.175532 10.580155 -6.694517 0
M  V30 53 H 5.501389 0.139483 -13.809245 0
M  V30 54 H 5.767973 0.981621 -12.301210 0
M  V30 55 H 4.847635 1.749106 -13.584998 0
M  V30 56 H 8.065975 0.389036 -12.514382 0
M  V30 57 H 9.142174 1.190457 -13.603806 0
M  V30 58 H 9.555093 5.874551 -12.626841 0
M  V30 59 H 7.520863 2.751167 -12.230240 0
M  V30 60 H 13.068867 10.390206 -4.395114 0
M  V30 61 H 6.575444 2.956643 -15.670724 0
M  V30 62 H 8.053731 2.099756 -15.805909 0
M  V30 63 H 8.529489 3.991457 -11.083772 0
M  V30 64 H 10.175208 4.480626 -10.894185 0
M  V30 65 H 10.575452 7.145603 -1.694208 0
M  V30 66 H 11.302320 5.590214 -1.609457 0
M  V30 67 H 7.261754 7.262082 -12.310564 0
M  V30 68 H 6.790086 5.918022 -11.373404 0
M  V30 69 H 8.214741 3.324512 -13.584582 0
M  V30 END ATOM
M  V30 BEGIN BOND
M  V30 1 1 10 9
M  V30 2 1 11 9
M  V30 3 1 12 8
M  V30 4 2 13 4
M  V30 5 1 13 12
M  V30 6 1 14 3
M  V30 7 1 15 6
M  V30 8 1 15 12
M  V30 9 1 16 1
M  V30 10 1 18 7
M  V30 11 1 19 4
M  V30 12 2 20 1
M  V30 13 1 20 6
M  V30 14 1 21 11
M  V30 15 2 22 16
M  V30 16 1 23 5
M  V30 17 1 24 8
M  V30 18 1 24 19
M  V30 19 1 25 2
M  V30 20 1 25 20
M  V30 21 1 26 17 CFG=1
M  V30 22 1 26 18
M  V30 23 1 26 21
M  V30 24 1 26 23
M  V30 25 1 27 10
M  V30 26 2 28 10
M  V30 27 1 29 2
M  V30 28 1 29 14
M  V30 29 1 30 9
M  V30 30 1 30 19
M  V30 31 1 31 3
M  V30 32 1 31 22
M  V30 33 2 31 25
M  V30 34 1 32 1
M  V30 35 1 33 2
M  V30 36 1 34 2
M  V30 37 1 35 3
M  V30 38 1 36 4
M  V30 39 1 37 5
M  V30 40 1 38 5
M  V30 41 1 39 5
M  V30 42 1 40 7
M  V30 43 1 41 8
M  V30 44 1 42 8
M  V30 45 1 9 43 CFG=3
M  V30 46 1 44 11
M  V30 47 1 45 11
M  V30 48 1 12 46 CFG=1
M  V30 49 1 47 13
M  V30 50 1 48 14
M  V30 51 1 49 14
M  V30 52 1 50 15
M  V30 53 1 51 15
M  V30 54 1 52 16
M  V30 55 1 53 17
M  V30 56 1 54 17
M  V30 57 1 55 17
M  V30 58 1 56 18
M  V30 59 1 57 18
M  V30 60 1 19 58 CFG=3
M  V30 61 1 59 21
M  V30 62 1 60 22
M  V30 63 1 61 23
M  V30 64 1 62 23
M  V30 65 1 63 24
M  V30 66 1 64 24
M  V30 67 1 65 29
M  V30 68 1 66 29
M  V30 69 1 67 30
M  V30 70 1 68 30
M  V30 71 1 69 21
M  V30 END BOND
M  V30 END CTAB
M  END
>  <i_epik_Tot_Q>  (1) 
0

>  <i_epik_Tot_abs_Q>  (1) 
2

>  <i_i_glide_confnum>  (1) 
2522

>  <i_i_glide_lignum>  (1) 
94

>  <i_i_glide_posenum>  (1) 
319

>  <i_i_glide_rotatable_bonds>  (1) 
12

>  <i_lp_mmshare_version>  (1) 
72125

>  <i_m_source_file_index>  (1) 
33

>  <i_f3d_flags>  (1) 
0

>  <num_sample>  (1) 
50

>  <b_lp_Chiralities_Consistent>  (1) 
1

>  <r_epik_Charging_Adjusted_Penalty>  (1) 
0.0085461583227070953

>  <r_epik_Ionization_Penalty>  (1) 
0.0085468934256092942

>  <r_epik_Ionization_Penalty_Charging>  (1) 
0.0021751899630769768

>  <r_epik_Ionization_Penalty_Neutral>  (1) 
0.0063717034625323165

>  <r_epik_State_Penalty>  (1) 
0.0063709683596301176

>  <r_glide_ring_energy>  (1) 
0

>  <r_i_docking_score>  (1) 
-6.7389384822682574

>  <r_i_glide_ecoul>  (1) 
-1.8743007502419229

>  <r_i_glide_eff_state_penalty>  (1) 
0.0063709683596301176

>  <r_i_glide_einternal>  (1) 
17.345603917048908

>  <r_i_glide_emodel>  (1) 
-38.787024484007247

>  <r_i_glide_emodel_strain>  (1) 
2.4686527872920152

>  <r_i_glide_energy>  (1) 
-35.547082163689502

>  <r_i_glide_erotb>  (1) 
0.9651189096568249

>  <r_i_glide_esite>  (1) 
0

>  <r_i_glide_evdw>  (1) 
-33.672781413447581

>  <r_i_glide_gscore>  (1) 
-6.7453094506278877

>  <r_i_glide_gscore_strain>  (1) 
0

>  <r_i_glide_hbond>  (1) 
-0.054816627943149947

>  <r_i_glide_ligand_efficiency>  (1) 
-0.21738511233123411

>  <r_i_glide_ligand_efficiency_ln>  (1) 
-1.5198371514134199

>  <r_i_glide_ligand_efficiency_sa>  (1) 
-0.68288938599526861

>  <r_i_glide_lipo>  (1) 
-3.3963822379864332

>  <r_i_glide_metal>  (1) 
-0

>  <r_i_glide_rewards>  (1) 
-2.294445311146462

>  <r_lp_Energy>  (1) 
27.112926999999999

>  <s_epik_cmdline>  (1) 
J2VwaWtfcHl0aG9uJywgJy1waHQnLCAnMS4wJywgJy1waCcsICc3LjQnLCAnLXRuJywgJzgnLCAnLW1hJywgJzUwMCcsICctaW1hZScsICc8aW5maWxlLm1hZT4nLCAnLW9tYWUnLCAnPG91dGZpbGUubWFlPic=

>  <s_epik_input>  (1) 
W0NIMl0xW0NIMl1bQ0gyXVtOSF1jKGMxMilbY0hdW2NIXVtjSF1jMk9bQ0gyXVtDQEhdM1tDSDJdW0NIMl1bQ0BIXShbQ0hdPVtDSF0zKVtDSDJdW0NASF0oQyg9TylbT0hdKVtDSDJdW05IXVtDQF0oW0NIM10pKFtDSDJdW09IXSlbQ0gyXVtDSDNd

>  <s_glide_docking_method>  (1) 
confgen

>  <s_i_glide_gridfile>  (1) 
gpcr_drd2_6luq_protein_autoprepared_prepared

>  <s_lp_Force_Field>  (1) 
S-OPLS

>  <s_lp_Variant>  (1) 
DiffSBDD_32-1

>  <s_m_source_file>  (1) 
generated_generic_title2_ligand_DiffSBDD_2026-06-23_prepared.sdf

>  <GenAI_Model>  (1) 
DiffSBDD

>  <Protein>  (1) 
generic_title2

$$$$
DiffSBDD_2
     RDKit          3D

  0  0  0  0  0  0  0  0  0  0999 V3000
M  V30 BEGIN CTAB
M  V30 COUNTS 61 63 0 0 1
M  V30 BEGIN ATOM
M  V30 1 C 9.980420 6.614236 -6.691036 0 CFG=1
M  V30 2 C 9.136836 4.388726 -11.020489 0
M  V30 3 C 11.375389 5.990228 -6.470448 0
M  V30 4 C 7.166442 0.374038 -14.348868 0
M  V30 5 N 5.775402 6.205781 -15.095012 0
M  V30 6 C 8.330932 4.432299 -12.297210 0 CFG=2
M  V30 7 C 10.371552 7.320223 -9.029437 0
M  V30 8 C 6.883234 3.993283 -12.302456 0 CFG=2
M  V30 9 C 5.363621 7.990217 -16.689296 0
M  V30 10 C 6.281751 5.158928 -14.544984 0
M  V30 11 C 5.901277 6.592406 -16.424170 0
M  V30 12 C 7.664554 2.911637 -14.465411 0 CFG=1
M  V30 13 C 8.410738 5.073583 -9.851277 0
M  V30 14 C 9.247734 5.142771 -8.564621 0
M  V30 15 C 7.905841 3.138844 -12.981991 0 CFG=1
M  V30 16 C 8.664486 4.948958 -15.597203 0
M  V30 17 C 10.413176 8.790218 -8.589366 0
M  V30 18 C 10.870247 8.945493 -7.125882 0
M  V30 19 O 6.375195 5.930574 -17.347674 0
M  V30 20 C 6.627488 1.780382 -14.657646 0
M  V30 21 C 7.336276 4.227767 -15.235329 0 CFG=2
M  V30 22 C 9.985597 8.077712 -6.218031 0
M  V30 23 N 9.509919 6.532409 -8.107892 0 CFG=1 CHG=1
M  V30 24 C 5.856703 4.738220 -13.133583 0
M  V30 25 H 9.263194 6.070029 -6.074946 0
M  V30 26 H 9.375419 3.352297 -10.785011 0
M  V30 27 H 10.086699 4.883117 -11.219012 0
M  V30 28 H 11.578290 5.849214 -5.408747 0
M  V30 29 H 11.497420 5.041098 -6.971552 0
M  V30 30 H 12.175424 6.601637 -6.868610 0
M  V30 31 H 6.396385 -0.379200 -14.521863 0
M  V30 32 H 8.016389 0.124708 -14.984238 0
M  V30 33 H 7.482012 0.274589 -13.310708 0
M  V30 34 H 8.520449 5.331370 -12.875498 0
M  V30 35 H 11.375418 6.897719 -9.067365 0
M  V30 36 H 9.984856 7.275958 -10.047182 0
M  V30 37 H 6.475860 3.590244 -11.379116 0
M  V30 38 H 4.335219 8.075505 -16.337716 0
M  V30 39 H 5.375403 8.214569 -17.755999 0
M  V30 40 H 5.968004 8.737616 -16.174630 0
M  V30 41 H 8.575407 2.520262 -14.902883 0
M  V30 42 H 8.088629 6.059511 -10.172826 0
M  V30 43 H 7.489445 4.537440 -9.623242 0
M  V30 44 H 8.696189 4.621366 -7.782294 0
M  V30 45 H 10.175424 4.590860 -8.693643 0
M  V30 46 H 8.212145 2.237563 -12.456395 0
M  V30 47 H 8.533102 5.990116 -15.886081 0
M  V30 48 H 9.391794 4.937865 -14.787749 0
M  V30 49 H 9.144622 4.445915 -16.437256 0
M  V30 50 H 11.063124 9.364097 -9.250604 0
M  V30 51 H 9.405688 9.190226 -8.704484 0
M  V30 52 H 11.921299 8.678356 -7.039104 0
M  V30 53 H 10.840091 9.978473 -6.784969 0
M  V30 54 H 5.775407 1.960983 -14.004918 0
M  V30 55 H 6.259611 1.774187 -15.684066 0
M  V30 56 H 6.913143 3.897838 -16.181327 0
M  V30 57 H 10.335718 8.137719 -5.186860 0
M  V30 58 H 8.964734 8.464169 -6.223066 0
M  V30 59 H 5.552882 5.625960 -12.576299 0
M  V30 60 H 4.966844 4.114525 -13.219094 0
M  V30 61 H 8.601324 6.986141 -8.131392 0
M  V30 END ATOM
M  V30 BEGIN BOND
M  V30 1 1 3 1
M  V30 2 1 6 2
M  V30 3 1 8 6
M  V30 4 2 10 5
M  V30 5 1 11 5
M  V30 6 1 11 9
M  V30 7 1 13 2
M  V30 8 1 14 13
M  V30 9 1 15 6
M  V30 10 1 15 8
M  V30 11 1 15 12
M  V30 12 1 17 7
M  V30 13 1 18 17
M  V30 14 2 19 11
M  V30 15 1 20 4
M  V30 16 1 20 12
M  V30 17 1 21 10
M  V30 18 1 21 12
M  V30 19 1 21 16
M  V30 20 1 22 1
M  V30 21 1 22 18
M  V30 22 1 23 1
M  V30 23 1 23 7
M  V30 24 1 23 14
M  V30 25 1 24 8
M  V30 26 1 24 10
M  V30 27 1 1 25 CFG=1
M  V30 28 1 26 2
M  V30 29 1 27 2
M  V30 30 1 28 3
M  V30 31 1 29 3
M  V30 32 1 30 3
M  V30 33 1 31 4
M  V30 34 1 32 4
M  V30 35 1 33 4
M  V30 36 1 6 34 CFG=3
M  V30 37 1 35 7
M  V30 38 1 36 7
M  V30 39 1 8 37 CFG=1
M  V30 40 1 38 9
M  V30 41 1 39 9
M  V30 42 1 40 9
M  V30 43 1 12 41 CFG=3
M  V30 44 1 42 13
M  V30 45 1 43 13
M  V30 46 1 44 14
M  V30 47 1 45 14
M  V30 48 1 15 46 CFG=1
M  V30 49 1 47 16
M  V30 50 1 48 16
M  V30 51 1 49 16
M  V30 52 1 50 17
M  V30 53 1 51 17
M  V30 54 1 52 18
M  V30 55 1 53 18
M  V30 56 1 54 20
M  V30 57 1 55 20
M  V30 58 1 21 56 CFG=3
M  V30 59 1 57 22
M  V30 60 1 58 22
M  V30 61 1 59 24
M  V30 62 1 60 24
M  V30 63 1 23 61 CFG=1
M  V30 END BOND
M  V30 END CTAB
M  END
>  <i_epik_Tot_Q>  (1) 
1

>  <i_epik_Tot_abs_Q>  (1) 
1

>  <i_i_glide_confnum>  (1) 
25

>  <i_i_glide_lignum>  (1) 
23

>  <i_i_glide_posenum>  (1) 
181

>  <i_i_glide_rotatable_bonds>  (1) 
6

>  <i_lp_mmshare_version>  (1) 
72125

>  <i_m_source_file_index>  (1) 
3

>  <i_f3d_flags>  (1) 
0

>  <num_sample>  (1) 
50

>  <b_lp_Chiralities_Consistent>  (1) 
1

>  <r_epik_Charging_Adjusted_Penalty>  (1) 
0.0011657924221308697

>  <r_epik_Ionization_Penalty>  (1) 
0.0011657924221308697

>  <r_epik_Ionization_Penalty_Charging>  (1) 
0.0011657924221308697

>  <r_epik_Ionization_Penalty_Neutral>  (1) 
0

>  <r_epik_State_Penalty>  (1) 
-0

>  <r_glide_ring_energy>  (1) 
0

>  <r_i_docking_score>  (1) 
-6.7285030033156641

>  <r_i_glide_ecoul>  (1) 
-3.0402463276848124

>  <r_i_glide_eff_state_penalty>  (1) 
-0

>  <r_i_glide_einternal>  (1) 
4.4417953672249357

>  <r_i_glide_emodel>  (1) 
-44.525539165809256

>  <r_i_glide_emodel_strain>  (1) 
3.4935280275498428

>  <r_i_glide_energy>  (1) 
-32.965032125562949

>  <r_i_glide_erotb>  (1) 
0.592997403832213

>  <r_i_glide_esite>  (1) 
-0.075664951832958904

>  <r_i_glide_evdw>  (1) 
-29.924785797878137

>  <r_i_glide_gscore>  (1) 
-6.7285030033156641

>  <r_i_glide_gscore_strain>  (1) 
0

>  <r_i_glide_hbond>  (1) 
-0.092120036171709996

>  <r_i_glide_ligand_efficiency>  (1) 
-0.28035429180481936

>  <r_i_glide_ligand_efficiency_ln>  (1) 
-1.6104395195777836

>  <r_i_glide_ligand_efficiency_sa>  (1) 
-0.80868171377867692

>  <r_i_glide_lipo>  (1) 
-2.0853948403261868

>  <r_i_glide_metal>  (1) 
-0

>  <r_i_glide_rewards>  (1) 
-3.1160443397703932

>  <r_lp_Energy>  (1) 
47.613637999999995

>  <r_lp_tautomer_probability>  (1) 
1

>  <s_epik_Chemistry_Notes>  (1) 
This compound has an imine and may undergo hydrolysis.

>  <s_epik_cmdline>  (1) 
J2VwaWtfcHl0aG9uJywgJy1waHQnLCAnMS4wJywgJy1waCcsICc3LjQnLCAnLXRuJywgJzgnLCAnLW1hJywgJzUwMCcsICctaW1hZScsICc8aW5maWxlLm1hZT4nLCAnLW9tYWUnLCAnPG91dGZpbGUubWFlPic=

>  <s_epik_input>  (1) 
W0NIM11bQ0BIXTFbQ0gyXVtDSDJdW0NIMl1bQ0gyXU4xW0NIMl1bQ0gyXVtDSDJdW0NASF0yW0NAQEhdKFtDQEBIXTIzKVtDQEBIXShbQ0gyXVtDSDNdKVtDQEhdKFtDSDNdKS9DKFtDSDJdMyk9TlxDKD1PKVtDSDNd

>  <s_glide_docking_method>  (1) 
confgen

>  <s_i_glide_gridfile>  (1) 
gpcr_drd2_6luq_protein_autoprepared_prepared

>  <s_lp_Force_Field>  (1) 
S-OPLS

>  <s_lp_Variant>  (1) 
DiffSBDD_2-3

>  <s_m_source_file>  (1) 
generated_generic_title2_ligand_DiffSBDD_2026-06-23_prepared.sdf

>  <GenAI_Model>  (1) 
DiffSBDD

>  <Protein>  (1) 
generic_title2

$$$$
DiffSBDD_15
     RDKit          3D

  0  0  0  0  0  0  0  0  0  0999 V3000
M  V30 BEGIN CTAB
M  V30 COUNTS 47 48 0 0 1
M  V30 BEGIN ATOM
M  V30 1 C 11.427158 9.050854 -4.894975 0
M  V30 2 C 9.145865 5.897974 -9.850688 0
M  V30 3 Cl 10.651421 7.189795 -11.632808 0
M  V30 4 C 12.210374 8.982087 -3.806311 0
M  V30 5 C 11.647357 6.502455 -3.500888 0
M  V30 6 C 10.619488 7.935056 -7.063935 0 CFG=2
M  V30 7 N 7.594124 4.983562 -12.863541 0 CFG=1 CHG=1
M  V30 8 C 10.743208 7.844853 -5.525089 0 CFG=1
M  V30 9 O 6.274068 4.390431 -10.785143 0
M  V30 10 C 9.114825 6.337728 -11.322430 0 CFG=1
M  V30 11 P 6.175119 5.516087 -12.010118 0
M  V30 12 C 7.963696 5.785269 -14.028460 0
M  V30 13 C 9.379680 5.300267 -13.771994 0
M  V30 14 N 9.375459 7.082973 -9.015403 0 CHG=1
M  V30 15 O 12.808672 8.790081 -7.584995 0
M  V30 16 O 5.374713 4.412873 -12.968492 0
M  V30 17 C 9.707883 6.822115 -7.608823 0
M  V30 18 C 12.518212 7.695365 -3.064992 0
M  V30 19 C 11.948959 7.957165 -7.834197 0
M  V30 20 C 8.950860 5.157865 -12.305546 0 CFG=2
M  V30 21 C 11.305346 6.499753 -5.000512 0
M  V30 22 H 11.255242 10.007366 -5.368033 0
M  V30 23 H 8.213014 5.433010 -9.537516 0
M  V30 24 H 9.933255 5.163817 -9.689587 0
M  V30 25 H 12.663710 9.881382 -3.417667 0
M  V30 26 H 12.175123 5.590143 -3.242248 0
M  V30 27 H 10.728243 6.445024 -2.918703 0
M  V30 28 H 10.134571 8.887737 -7.280198 0
M  V30 29 H 9.718667 7.909060 -5.185029 0
M  V30 30 H 5.703622 4.653746 -10.072644 0
M  V30 31 H 8.346431 7.098869 -11.463663 0
M  V30 32 H 7.521331 5.441772 -14.963786 0
M  V30 33 H 7.833931 6.859985 -13.882167 0
M  V30 34 H 9.578061 4.359708 -14.271957 0
M  V30 35 H 10.192474 5.990171 -13.978950 0
M  V30 36 H 10.096230 7.639822 -9.449934 0
M  V30 37 H 4.560836 4.796301 -13.257831 0
M  V30 38 H 8.776227 6.759562 -7.043931 0
M  V30 39 H 10.199565 5.853342 -7.509077 0
M  V30 40 H 13.568571 7.465309 -3.233699 0
M  V30 41 H 12.408953 7.863458 -1.993819 0
M  V30 42 H 12.061093 7.190997 -8.602239 0
M  V30 43 H 9.327107 4.217239 -11.898518 0
M  V30 44 H 10.574732 5.713519 -5.171144 0
M  V30 45 H 12.175591 6.203012 -5.575256 0
M  V30 46 H 7.464808 4.023396 -13.148818 0
M  V30 47 H 8.479228 7.590483 -9.053281 0
M  V30 END ATOM
M  V30 BEGIN BOND
M  V30 1 2 4 1
M  V30 2 1 8 1
M  V30 3 1 8 6
M  V30 4 1 10 2
M  V30 5 1 10 3
M  V30 6 1 11 7
M  V30 7 1 11 9
M  V30 8 1 12 7
M  V30 9 1 13 12
M  V30 10 1 14 2
M  V30 11 1 16 11
M  V30 12 1 17 6
M  V30 13 1 17 14
M  V30 14 1 18 4
M  V30 15 1 18 5
M  V30 16 1 19 6
M  V30 17 2 19 15
M  V30 18 1 20 7
M  V30 19 1 20 10
M  V30 20 1 20 13
M  V30 21 1 21 5
M  V30 22 1 21 8
M  V30 23 1 22 1
M  V30 24 1 23 2
M  V30 25 1 24 2
M  V30 26 1 25 4
M  V30 27 1 26 5
M  V30 28 1 27 5
M  V30 29 1 6 28 CFG=1
M  V30 30 1 8 29 CFG=1
M  V30 31 1 30 9
M  V30 32 1 10 31 CFG=1
M  V30 33 1 32 12
M  V30 34 1 33 12
M  V30 35 1 34 13
M  V30 36 1 35 13
M  V30 37 1 36 14
M  V30 38 1 37 16
M  V30 39 1 38 17
M  V30 40 1 39 17
M  V30 41 1 40 18
M  V30 42 1 41 18
M  V30 43 1 42 19
M  V30 44 1 20 43 CFG=1
M  V30 45 1 44 21
M  V30 46 1 45 21
M  V30 47 1 7 46 CFG=3
M  V30 48 1 47 14
M  V30 END BOND
M  V30 END CTAB
M  END
>  <i_epik_Tot_Q>  (1) 
2

>  <i_epik_Tot_abs_Q>  (1) 
2

>  <i_i_glide_confnum>  (1) 
1

>  <i_i_glide_lignum>  (1) 
55

>  <i_i_glide_posenum>  (1) 
338

>  <i_i_glide_rotatable_bonds>  (1) 
10

>  <i_lp_mmshare_version>  (1) 
72125

>  <i_m_source_file_index>  (1) 
16

>  <i_f3d_flags>  (1) 
0

>  <num_sample>  (1) 
50

>  <b_lp_Chiralities_Consistent>  (1) 
1

>  <r_epik_Charging_Adjusted_Penalty>  (1) 
0.82033889234892232

>  <r_epik_Ionization_Penalty>  (1) 
0.44833786363099537

>  <r_epik_Ionization_Penalty_Charging>  (1) 
0.44828572222584073

>  <r_epik_Ionization_Penalty_Neutral>  (1) 
5.214140515465987e-05

>  <r_epik_State_Penalty>  (1) 
0.37205317012308153

>  <r_glide_ring_energy>  (1) 
0

>  <r_i_docking_score>  (1) 
-6.7273968527556818

>  <r_i_glide_ecoul>  (1) 
-11.806062505775289

>  <r_i_glide_eff_state_penalty>  (1) 
0.37205317012308153

>  <r_i_glide_einternal>  (1) 
5.0443719209332265

>  <r_i_glide_emodel>  (1) 
-66.080057340608292

>  <r_i_glide_emodel_strain>  (1) 
1.5510226155021627

>  <r_i_glide_energy>  (1) 
-42.975067240852283

>  <r_i_glide_erotb>  (1) 
0.99921442309273578

>  <r_i_glide_esite>  (1) 
-0.13840275768396304

>  <r_i_glide_evdw>  (1) 
-31.169004735076992

>  <r_i_glide_gscore>  (1) 
-7.0994500228787629

>  <r_i_glide_gscore_strain>  (1) 
0

>  <r_i_glide_hbond>  (1) 
-0.43930790489275334

>  <r_i_glide_ligand_efficiency>  (1) 
-0.32035223108360389

>  <r_i_glide_ligand_efficiency_ln>  (1) 
-1.6633352778585135

>  <r_i_glide_ligand_efficiency_sa>  (1) 
-0.88382751529418646

>  <r_i_glide_lipo>  (1) 
-2.1443574437426078

>  <r_i_glide_metal>  (1) 
-0

>  <r_i_glide_rewards>  (1) 
-2.0472367270320309

>  <r_lp_Energy>  (1) 
21.773961

>  <r_lp_tautomer_probability>  (1) 
0.99990000499974985

>  <s_epik_cmdline>  (1) 
J2VwaWtfcHl0aG9uJywgJy1waHQnLCAnMS4wJywgJy1waCcsICc3LjQnLCAnLXRuJywgJzgnLCAnLW1hJywgJzUwMCcsICctaW1hZScsICc8aW5maWxlLm1hZT4nLCAnLW9tYWUnLCAnPG91dGZpbGUubWFlPic=

>  <s_epik_input>  (1) 
W0NIMl0xW0NIMl1bQ0gyXVtDSF09W0NIXVtDQEhdMVtDQEBIXShbQ0hdPU8pW0NIMl1bTkhdW0NIMl1bQ0BASF0oQ2wpW0NAQEhdMltDSDJdW0NIMl1OMlAoW09IXSlbT0hd

>  <s_glide_docking_method>  (1) 
confgen

>  <s_i_glide_gridfile>  (1) 
gpcr_drd2_6luq_protein_autoprepared_prepared

>  <s_lp_Force_Field>  (1) 
S-OPLS

>  <s_lp_Variant>  (1) 
DiffSBDD_15-2

>  <s_m_source_file>  (1) 
generated_generic_title2_ligand_DiffSBDD_2026-06-23_prepared.sdf

>  <GenAI_Model>  (1) 
DiffSBDD

>  <Protein>  (1) 
generic_title2

$$$$
DiffSBDD_8
     RDKit          3D

  0  0  0  0  0  0  0  0  0  0999 V3000
M  V30 BEGIN CTAB
M  V30 COUNTS 69 72 0 0 1
M  V30 BEGIN ATOM
M  V30 1 N 6.988268 5.448806 -15.941648 0
M  V30 2 C 5.881195 5.811965 -19.095181 0
M  V30 3 C 6.231923 4.950541 -11.743995 0 CFG=1
M  V30 4 N 7.550779 6.339684 -20.672007 0
M  V30 5 O 8.575402 6.284812 -13.554062 0
M  V30 6 C 9.487825 5.711811 -9.012664 0
M  V30 7 F 9.288747 6.790700 -19.239496 0
M  V30 8 C 9.037787 6.244257 -7.635741 0
M  V30 9 N 8.335902 5.591212 -9.931587 0 CHG=1
M  V30 10 C 8.662819 5.479879 -11.378493 0 CFG=1
M  V30 11 C 8.248287 5.985663 -19.446878 0 CFG=1
M  V30 12 C 12.992623 8.412886 -9.751526 0
M  V30 13 C 7.653968 4.645328 -12.129379 0 CFG=2
M  V30 14 O 7.642440 7.674904 -11.985047 0
M  V30 15 O 8.274210 5.685243 -21.731243 0
M  V30 16 C 10.150441 6.429091 -6.586075 0
M  V30 17 C 8.539806 4.055905 -14.481029 0
M  V30 18 C 6.201848 6.664208 -15.709202 0
M  V30 19 C 7.158712 4.588499 -14.806613 0 CFG=1
M  V30 20 C 7.183678 6.101144 -18.338596 0 CFG=2
M  V30 21 C 7.439689 5.109539 -17.179551 0
M  V30 22 C 5.173696 3.990173 -12.123134 0
M  V30 23 C 8.697443 6.767979 -12.246420 0 CFG=2
M  V30 24 C 7.889933 5.043807 -13.552052 0 CFG=2
M  V30 25 O 14.386631 8.302148 -9.585532 0
M  V30 26 O 8.035100 4.053708 -17.397897 0
M  V30 27 C 12.350537 8.789587 -8.413960 0
M  V30 28 C 8.762451 6.695197 -22.595938 0
M  V30 29 C 6.304497 5.598824 -20.550422 0
M  V30 30 O 11.726895 7.635160 -7.899454 0
M  V30 31 C 10.936462 7.712546 -6.829442 0
M  V30 32 N 5.749677 3.990478 -10.785026 0
M  V30 33 O 10.820997 8.698466 -6.100890 0
M  V30 34 H 5.348726 4.938239 -18.719486 0
M  V30 35 H 5.208400 6.666855 -19.016447 0
M  V30 36 H 5.928526 5.989390 -11.633327 0
M  V30 37 H 10.215080 6.385274 -9.463363 0
M  V30 38 H 9.968372 4.738692 -8.907660 0
M  V30 39 H 8.265051 5.593846 -7.226342 0
M  V30 40 H 8.575872 7.218250 -7.784988 0
M  V30 41 H 7.785311 4.782944 -9.671625 0
M  V30 42 H 9.634963 4.992838 -11.487670 0
M  V30 43 H 8.645026 4.974092 -19.536218 0
M  V30 44 H 12.811870 9.190131 -10.492038 0
M  V30 45 H 12.570257 7.492511 -10.154448 0
M  V30 46 H 7.861414 3.580955 -12.000079 0
M  V30 47 H 7.546745 7.825589 -11.043012 0
M  V30 48 H 10.840468 5.589176 -6.598001 0
M  V30 49 H 9.717040 6.478775 -5.585646 0
M  V30 50 H 9.387955 4.400666 -15.068752 0
M  V30 51 H 8.575402 3.016126 -14.162265 0
M  V30 52 H 6.817343 7.561020 -15.778590 0
M  V30 53 H 5.364156 6.744488 -16.403210 0
M  V30 54 H 5.767874 6.660325 -14.708882 0
M  V30 55 H 6.355127 3.870742 -14.670050 0
M  V30 56 H 7.186254 7.135573 -17.996587 0
M  V30 57 H 4.175992 4.370776 -12.254868 0
M  V30 58 H 5.436685 3.161780 -12.776538 0
M  V30 59 H 9.632594 7.319872 -12.138318 0
M  V30 60 H 14.731090 9.190198 -9.585047 0
M  V30 61 H 13.076897 9.187049 -7.704084 0
M  V30 62 H 11.596413 9.558930 -8.576774 0
M  V30 63 H 9.345780 6.232229 -23.393531 0
M  V30 64 H 7.945855 7.249521 -23.059535 0
M  V30 65 H 9.414098 7.394980 -22.070553 0
M  V30 66 H 6.485126 4.536369 -20.726204 0
M  V30 67 H 5.555999 5.940520 -21.265867 0
M  V30 68 H 5.170285 4.336463 -10.025261 0
M  V30 69 H 7.753031 6.422291 -9.789415 0
M  V30 END ATOM
M  V30 BEGIN BOND
M  V30 1 1 8 6
M  V30 2 1 9 6
M  V30 3 1 10 9
M  V30 4 1 11 4
M  V30 5 1 11 7
M  V30 6 1 13 3
M  V30 7 1 13 10
M  V30 8 1 15 4
M  V30 9 1 16 8
M  V30 10 1 18 1
M  V30 11 1 19 1
M  V30 12 1 19 17
M  V30 13 1 20 2
M  V30 14 1 20 11
M  V30 15 1 21 1
M  V30 16 1 21 20
M  V30 17 1 22 3
M  V30 18 1 23 5
M  V30 19 1 23 10
M  V30 20 1 23 14
M  V30 21 1 24 5 CFG=1
M  V30 22 1 24 13
M  V30 23 1 24 17
M  V30 24 1 24 19
M  V30 25 1 25 12
M  V30 26 2 26 21
M  V30 27 1 27 12
M  V30 28 1 28 15
M  V30 29 1 29 2
M  V30 30 1 29 4
M  V30 31 1 30 27
M  V30 32 1 31 16
M  V30 33 1 31 30
M  V30 34 1 32 3
M  V30 35 1 32 22
M  V30 36 2 33 31
M  V30 37 1 34 2
M  V30 38 1 35 2
M  V30 39 1 3 36 CFG=1
M  V30 40 1 37 6
M  V30 41 1 38 6
M  V30 42 1 39 8
M  V30 43 1 40 8
M  V30 44 1 41 9
M  V30 45 1 10 42 CFG=1
M  V30 46 1 11 43 CFG=3
M  V30 47 1 44 12
M  V30 48 1 45 12
M  V30 49 1 13 46 CFG=3
M  V30 50 1 47 14
M  V30 51 1 48 16
M  V30 52 1 49 16
M  V30 53 1 50 17
M  V30 54 1 51 17
M  V30 55 1 52 18
M  V30 56 1 53 18
M  V30 57 1 54 18
M  V30 58 1 19 55 CFG=1
M  V30 59 1 20 56 CFG=1
M  V30 60 1 57 22
M  V30 61 1 58 22
M  V30 62 1 23 59 CFG=3
M  V30 63 1 60 25
M  V30 64 1 61 27
M  V30 65 1 62 27
M  V30 66 1 63 28
M  V30 67 1 64 28
M  V30 68 1 65 28
M  V30 69 1 66 29
M  V30 70 1 67 29
M  V30 71 1 68 32
M  V30 72 1 69 9
M  V30 END BOND
M  V30 END CTAB
M  END
>  <i_epik_Tot_Q>  (1) 
1

>  <i_epik_Tot_abs_Q>  (1) 
1

>  <i_i_glide_confnum>  (1) 
3606

>  <i_i_glide_lignum>  (1) 
33

>  <i_i_glide_posenum>  (1) 
69

>  <i_i_glide_rotatable_bonds>  (1) 
15

>  <i_lp_mmshare_version>  (1) 
72125

>  <i_m_source_file_index>  (1) 
9

>  <i_f3d_flags>  (1) 
0

>  <num_sample>  (1) 
50

>  <b_lp_Chiralities_Consistent>  (1) 
1

>  <r_epik_Charging_Adjusted_Penalty>  (1) 
0.31458683345696248

>  <r_epik_Ionization_Penalty>  (1) 
0.14300301403106822

>  <r_epik_Ionization_Penalty_Charging>  (1) 
0.065080964065447874

>  <r_epik_Ionization_Penalty_Neutral>  (1) 
0.077922049965620341

>  <r_epik_State_Penalty>  (1) 
0.24950586939151459

>  <r_glide_ring_energy>  (1) 
0

>  <r_i_docking_score>  (1) 
-6.7143701264573759

>  <r_i_glide_ecoul>  (1) 
-17.730310136616389

>  <r_i_glide_eff_state_penalty>  (1) 
0.24950586939151459

>  <r_i_glide_einternal>  (1) 
14.608815083201485

>  <r_i_glide_emodel>  (1) 
-61.42157670367439

>  <r_i_glide_emodel_strain>  (1) 
1.0624319743411803

>  <r_i_glide_energy>  (1) 
-45.662944977060903

>  <r_i_glide_erotb>  (1) 
1.0741905119875848

>  <r_i_glide_esite>  (1) 
-0.12326144162936102

>  <r_i_glide_evdw>  (1) 
-27.932634840444514

>  <r_i_glide_gscore>  (1) 
-6.9638759958488903

>  <r_i_glide_gscore_strain>  (1) 
0

>  <r_i_glide_hbond>  (1) 
-0.87484939549524166

>  <r_i_glide_ligand_efficiency>  (1) 
-0.20346576140779926

>  <r_i_glide_ligand_efficiency_ln>  (1) 
-1.4932411509761963

>  <r_i_glide_ligand_efficiency_sa>  (1) 
-0.65262341469425611

>  <r_i_glide_lipo>  (1) 
-1.5116243566266214

>  <r_i_glide_metal>  (1) 
-0

>  <r_i_glide_rewards>  (1) 
-1.4721530515705663

>  <r_lp_Energy>  (1) 
37.534118999999997

>  <s_epik_Chemistry_Notes>  (1) 
This compound has an ester and may undergo hydrolysis at high or low pH. This compound contains an acetal/aminal-like group ( X-CH(R)-Y where X, Y are N, S, or O) that may be acid/base labile, releasing an aldehyde. This compound has a N-S or N-O group and may undergo hydrolysis at high or low pH.

>  <s_epik_cmdline>  (1) 
J2VwaWtfcHl0aG9uJywgJy1waHQnLCAnMS4wJywgJy1waCcsICc3LjQnLCAnLXRuJywgJzgnLCAnLW1hJywgJzUwMCcsICctaW1hZScsICc8aW5maWxlLm1hZT4nLCAnLW9tYWUnLCAnPG91dGZpbGUubWFlPic=

>  <s_epik_input>  (1) 
W0NIM11PTjFbQ0BIXShGKVtDQEBIXShbQ0gyXVtDSDJdMSlDKD1PKU4oW0NIM10pW0NASF0yW0NIMl1DMjNPW0NAQEhdKFtPSF0pW0NASF0oW0NASF0zW0NASF00W0NIMl1bTkhdNClbTkhdW0NIMl1bQ0gyXVtDSDJdQyg9TylPW0NIMl1bQ0gyXVtPSF0=

>  <s_glide_docking_method>  (1) 
confgen

>  <s_i_glide_gridfile>  (1) 
gpcr_drd2_6luq_protein_autoprepared_prepared

>  <s_lp_Force_Field>  (1) 
S-OPLS

>  <s_lp_Variant>  (1) 
DiffSBDD_8-2

>  <s_m_source_file>  (1) 
generated_generic_title2_ligand_DiffSBDD_2026-06-23_prepared.sdf

>  <GenAI_Model>  (1) 
DiffSBDD

>  <Protein>  (1) 
generic_title2

$$$$
DiffSBDD_33
     RDKit          3D

  0  0  0  0  0  0  0  0  0  0999 V3000
M  V30 BEGIN CTAB
M  V30 COUNTS 57 63 0 0 1
M  V30 BEGIN ATOM
M  V30 1 C 8.380085 3.408985 -12.701839 0
M  V30 2 C 7.314864 5.261420 -14.063711 0
M  V30 3 C 9.090335 6.044393 -11.484466 0 CFG=2
M  V30 4 C 12.242390 8.976488 -9.496404 0
M  V30 5 C 6.597020 5.223025 -19.107964 0
M  V30 6 C 7.628358 7.528124 -12.705863 0
M  V30 7 C 7.101229 4.925910 -16.509522 0
M  V30 8 S 6.015382 7.176149 -15.708329 0
M  V30 9 C 7.762245 3.672432 -16.331331 0
M  V30 10 C 6.578110 5.598272 -17.732276 0
M  V30 11 C 9.343775 8.757713 -7.338561 0
M  V30 12 C 6.873568 5.723912 -15.318835 0
M  V30 13 C 6.033067 6.046277 -20.102233 0
M  V30 14 N 7.736479 5.507780 -11.582953 0
M  V30 15 C 5.376447 7.650781 -18.416974 0
M  V30 16 O 10.402149 6.829626 -6.188436 0
M  V30 17 C 9.485076 7.255828 -7.183996 0 CFG=2
M  V30 18 N 8.152717 3.263973 -15.101004 0
M  V30 19 C 5.946362 6.852769 -17.414582 0
M  V30 20 C 5.422473 7.251383 -19.756641 0
M  V30 21 N 9.377462 7.557636 -9.618580 0 CFG=1 CHG=1
M  V30 22 C 9.535317 6.165116 -10.029114 0
M  V30 23 C 9.003886 7.456318 -12.031327 0 CFG=1
M  V30 24 C 7.939183 4.011514 -14.014873 0
M  V30 25 C 10.116304 7.968268 -8.380539 0 CFG=1
M  V30 26 C 11.633879 8.020546 -8.480717 0
M  V30 27 C 7.671058 4.051903 -11.509869 0
M  V30 28 C 7.080269 6.075569 -12.764684 0 CFG=2
M  V30 29 C 9.312982 8.392656 -10.840032 0
M  V30 30 H 8.141740 2.344066 -12.700475 0
M  V30 31 H 9.463438 3.473207 -12.612646 0
M  V30 32 H 9.809245 5.479325 -12.075483 0
M  V30 33 H 13.301415 9.056761 -9.260875 0
M  V30 34 H 12.245280 8.553391 -10.497379 0
M  V30 35 H 11.755132 9.960550 -9.503484 0
M  V30 36 H 7.056657 4.289977 -19.395112 0
M  V30 37 H 6.974981 8.105817 -12.051225 0
M  V30 38 H 7.655430 8.045894 -13.666204 0
M  V30 39 H 7.953642 3.010399 -17.162462 0
M  V30 40 H 8.383572 9.174851 -7.638563 0
M  V30 41 H 9.930173 9.402970 -6.681933 0
M  V30 42 H 6.072237 5.743307 -21.139454 0
M  V30 43 H 4.914915 8.577443 -18.157251 0
M  V30 44 H 9.959970 6.140782 -5.686666 0
M  V30 45 H 8.630480 6.590360 -7.310025 0
M  V30 46 H 4.988284 7.879482 -20.524779 0
M  V30 47 H 10.580214 5.984161 -9.961316 0
M  V30 48 H 9.038372 5.459434 -9.366587 0
M  V30 49 H 9.777584 7.607597 -12.783932 0
M  V30 50 H 12.014646 8.301720 -7.498150 0
M  V30 51 H 12.007136 7.024850 -8.668117 0
M  V30 52 H 6.617200 3.768981 -11.498068 0
M  V30 53 H 8.134709 3.673246 -10.597511 0
M  V30 54 H 6.002220 6.092855 -12.593064 0
M  V30 55 H 8.595327 9.207845 -10.727655 0
M  V30 56 H 10.276859 8.793329 -11.066460 0
M  V30 57 H 8.365299 7.590235 -9.361910 0
M  V30 END ATOM
M  V30 BEGIN BOND
M  V30 1 2 9 7
M  V30 2 2 10 5
M  V30 3 1 10 7
M  V30 4 2 12 2
M  V30 5 1 12 7
M  V30 6 1 12 8
M  V30 7 1 13 5
M  V30 8 1 14 3
M  V30 9 1 17 11
M  V30 10 1 17 16
M  V30 11 1 18 9
M  V30 12 1 19 8
M  V30 13 1 19 10
M  V30 14 2 19 15
M  V30 15 2 20 13
M  V30 16 1 20 15
M  V30 17 1 22 3
M  V30 18 1 22 21
M  V30 19 1 23 3
M  V30 20 1 23 6
M  V30 21 1 24 1
M  V30 22 1 24 2
M  V30 23 2 24 18
M  V30 24 1 25 11
M  V30 25 1 25 17
M  V30 26 1 25 21
M  V30 27 1 26 4
M  V30 28 1 25 26 CFG=3
M  V30 29 1 27 1
M  V30 30 1 27 14
M  V30 31 1 28 2
M  V30 32 1 28 6
M  V30 33 1 28 14
M  V30 34 1 29 21
M  V30 35 1 29 23
M  V30 36 1 30 1
M  V30 37 1 31 1
M  V30 38 1 3 32 CFG=3
M  V30 39 1 33 4
M  V30 40 1 34 4
M  V30 41 1 35 4
M  V30 42 1 36 5
M  V30 43 1 37 6
M  V30 44 1 38 6
M  V30 45 1 39 9
M  V30 46 1 40 11
M  V30 47 1 41 11
M  V30 48 1 42 13
M  V30 49 1 43 15
M  V30 50 1 44 16
M  V30 51 1 17 45 CFG=3
M  V30 52 1 46 20
M  V30 53 1 47 22
M  V30 54 1 48 22
M  V30 55 1 23 49 CFG=3
M  V30 56 1 50 26
M  V30 57 1 51 26
M  V30 58 1 52 27
M  V30 59 1 53 27
M  V30 60 1 28 54 CFG=1
M  V30 61 1 55 29
M  V30 62 1 56 29
M  V30 63 1 21 57 CFG=1
M  V30 END BOND
M  V30 END CTAB
M  END
>  <i_epik_Tot_Q>  (1) 
1

>  <i_epik_Tot_abs_Q>  (1) 
1

>  <i_i_glide_confnum>  (1) 
1

>  <i_i_glide_lignum>  (1) 
96

>  <i_i_glide_posenum>  (1) 
96

>  <i_i_glide_rotatable_bonds>  (1) 
3

>  <i_lp_mmshare_version>  (1) 
72125

>  <i_m_source_file_index>  (1) 
34

>  <i_f3d_flags>  (1) 
0

>  <num_sample>  (1) 
50

>  <b_lp_Chiralities_Consistent>  (1) 
1

>  <r_epik_Charging_Adjusted_Penalty>  (1) 
0.0056247907503774904

>  <r_epik_Ionization_Penalty>  (1) 
0.066233849197789949

>  <r_epik_Ionization_Penalty_Charging>  (1) 
0.0056247907503774904

>  <r_epik_Ionization_Penalty_Neutral>  (1) 
0.060609058447412462

>  <r_epik_State_Penalty>  (1) 
-0

>  <r_glide_ring_energy>  (1) 
0

>  <r_i_docking_score>  (1) 
-6.6611830241737398

>  <r_i_glide_ecoul>  (1) 
-10.545979527005914

>  <r_i_glide_eff_state_penalty>  (1) 
-0

>  <r_i_glide_einternal>  (1) 
0.272644176798571

>  <r_i_glide_emodel>  (1) 
-40.51043765583956

>  <r_i_glide_emodel_strain>  (1) 
2.1828405362265499

>  <r_i_glide_energy>  (1) 
-34.867256029568743

>  <r_i_glide_erotb>  (1) 
0.11895510521466947

>  <r_i_glide_esite>  (1) 
-0.10000000000000001

>  <r_i_glide_evdw>  (1) 
-24.321276502562831

>  <r_i_glide_gscore>  (1) 
-6.6611830241737398

>  <r_i_glide_gscore_strain>  (1) 
0

>  <r_i_glide_hbond>  (1) 
-0.15722664945042403

>  <r_i_glide_ligand_efficiency>  (1) 
-0.22969596635081863

>  <r_i_glide_ligand_efficiency_ln>  (1) 
-1.525241999508508

>  <r_i_glide_ligand_efficiency_sa>  (1) 
-0.70569878221179039

>  <r_i_glide_lipo>  (1) 
-2.3046237106074408

>  <r_i_glide_metal>  (1) 
-0

>  <r_i_glide_rewards>  (1) 
-1.4203270151515157

>  <r_lp_Energy>  (1) 
35.548580999999999

>  <r_lp_tautomer_probability>  (1) 
1

>  <s_epik_cmdline>  (1) 
J2VwaWtfcHl0aG9uJywgJy1waHQnLCAnMS4wJywgJy1waCcsICc3LjQnLCAnLXRuJywgJzgnLCAnLW1hJywgJzUwMCcsICctaW1hZScsICc8aW5maWxlLm1hZT4nLCAnLW9tYWUnLCAnPG91dGZpbGUubWFlPic=

>  <s_epik_input>  (1) 
W09IXVtDQEhdMVtDSDJdW0NAXTEoW0NIMl1bQ0gzXSlOKFtDSDJdMilbQ0gyXVtDQEhdKFtDSDJdW0NAQEhdMzQpW0NAQEhdMk40W0NIMl1bQ0gyXWM1bltjSF1jKGM2YzM1KWM3YyhzNilbY0hdW2NIXVtjSF1bY0hdNw==

>  <s_glide_docking_method>  (1) 
confgen

>  <s_i_glide_gridfile>  (1) 
gpcr_drd2_6luq_protein_autoprepared_prepared

>  <s_lp_Force_Field>  (1) 
S-OPLS

>  <s_lp_Variant>  (1) 
DiffSBDD_33-2

>  <s_m_source_file>  (1) 
generated_generic_title2_ligand_DiffSBDD_2026-06-23_prepared.sdf

>  <GenAI_Model>  (1) 
DiffSBDD

>  <Protein>  (1) 
generic_title2

$$$$
DiffSBDD_30
     RDKit          3D

  0  0  0  0  0  0  0  0  0  0999 V3000
M  V30 BEGIN CTAB
M  V30 COUNTS 45 45 0 0 1
M  V30 BEGIN ATOM
M  V30 1 C 11.267201 7.782974 -10.373434 0
M  V30 2 N 12.170836 9.512513 -2.972370 0 CHG=-1
M  V30 3 C 6.041995 6.536216 -12.532940 0
M  V30 4 O 10.940032 8.257750 -6.165702 0
M  V30 5 C 12.549207 8.627632 -1.909469 0
M  V30 6 C 7.451713 5.910455 -12.649653 0
M  V30 7 O 9.631701 5.491465 -11.759446 0
M  V30 8 F 7.928114 6.194447 -13.862578 0
M  V30 9 N 5.457538 6.390229 -11.185022 0 CHG=1
M  V30 10 C 11.830446 8.673986 -3.984550 0
M  V30 11 C 12.214633 8.672922 -9.559456 0 CFG=2
M  V30 12 C 12.336616 7.280414 -2.574355 0
M  V30 13 C 9.776152 8.143244 -10.286217 0
M  V30 14 C 8.499463 6.320086 -11.575855 0 CFG=1
M  V30 15 F 11.775411 8.789916 -0.844570 0
M  V30 16 F 13.817702 8.790220 -1.582409 0
M  V30 17 C 11.381522 9.282056 -5.287319 0
M  V30 18 O 12.575400 6.230981 -1.984961 0
M  V30 19 N 10.930640 8.790205 -7.483322 0
M  V30 20 F 7.260892 4.591918 -12.566337 0
M  V30 21 O 13.525209 8.390222 -9.987170 0
M  V30 22 C 12.182220 8.348489 -8.062940 0
M  V30 23 O 7.883396 8.681898 -11.585035 0
M  V30 24 N 11.880830 7.412290 -3.853245 0
M  V30 25 C 8.978951 7.799981 -11.569233 0 CFG=1
M  V30 26 H 11.590858 7.712584 -11.409490 0
M  V30 27 H 11.376189 6.790212 -9.980468 0
M  V30 28 H 6.041003 7.588528 -12.811652 0
M  V30 29 H 5.375382 6.049866 -13.245605 0
M  V30 30 H 9.919376 5.554303 -12.658784 0
M  V30 31 H 4.516447 6.756850 -11.180461 0
M  V30 32 H 6.016408 6.922715 -10.510911 0
M  V30 33 H 12.017386 9.729021 -9.746531 0
M  V30 34 H 9.344363 7.614165 -9.436730 0
M  V30 35 H 9.665211 9.190202 -10.004312 0
M  V30 36 H 8.099445 6.067917 -10.593268 0
M  V30 37 H 12.223749 9.845457 -5.693355 0
M  V30 38 H 10.575411 9.993169 -5.105156 0
M  V30 39 H 10.160833 8.319489 -7.939715 0
M  V30 40 H 14.052633 9.170704 -9.845465 0
M  V30 41 H 12.297765 7.276540 -7.898631 0
M  V30 42 H 13.011868 8.840322 -7.555246 0
M  V30 43 H 7.455523 8.569322 -10.723836 0
M  V30 44 H 9.564951 8.019626 -12.460920 0
M  V30 45 H 5.449586 5.419378 -10.906732 0
M  V30 END ATOM
M  V30 BEGIN BOND
M  V30 1 1 5 2
M  V30 2 1 6 3
M  V30 3 1 8 6
M  V30 4 1 9 3
M  V30 5 1 10 2
M  V30 6 1 11 1
M  V30 7 1 12 5
M  V30 8 1 13 1
M  V30 9 1 14 6
M  V30 10 1 14 7
M  V30 11 1 15 5
M  V30 12 1 16 5
M  V30 13 1 17 4
M  V30 14 1 17 10
M  V30 15 2 18 12
M  V30 16 1 19 4
M  V30 17 1 20 6
M  V30 18 1 21 11
M  V30 19 1 22 11
M  V30 20 1 22 19
M  V30 21 2 24 10
M  V30 22 1 24 12
M  V30 23 1 25 13
M  V30 24 1 25 14
M  V30 25 1 25 23
M  V30 26 1 26 1
M  V30 27 1 27 1
M  V30 28 1 28 3
M  V30 29 1 29 3
M  V30 30 1 30 7
M  V30 31 1 31 9
M  V30 32 1 32 9
M  V30 33 1 11 33 CFG=1
M  V30 34 1 34 13
M  V30 35 1 35 13
M  V30 36 1 14 36 CFG=1
M  V30 37 1 37 17
M  V30 38 1 38 17
M  V30 39 1 39 19
M  V30 40 1 40 21
M  V30 41 1 41 22
M  V30 42 1 42 22
M  V30 43 1 43 23
M  V30 44 1 25 44 CFG=3
M  V30 45 1 45 9
M  V30 END BOND
M  V30 END CTAB
M  END
>  <i_epik_Tot_Q>  (1) 
0

>  <i_epik_Tot_abs_Q>  (1) 
2

>  <i_i_glide_confnum>  (1) 
5

>  <i_i_glide_lignum>  (1) 
91

>  <i_i_glide_posenum>  (1) 
23

>  <i_i_glide_rotatable_bonds>  (1) 
14

>  <i_lp_mmshare_version>  (1) 
72125

>  <i_m_source_file_index>  (1) 
31

>  <i_f3d_flags>  (1) 
0

>  <num_sample>  (1) 
50

>  <b_lp_Chiralities_Consistent>  (1) 
1

>  <r_epik_Charging_Adjusted_Penalty>  (1) 
1.1033345343036571

>  <r_epik_Ionization_Penalty>  (1) 
0.55249664061947246

>  <r_epik_Ionization_Penalty_Charging>  (1) 
0.55167603061160131

>  <r_epik_Ionization_Penalty_Neutral>  (1) 
0.00082061000787111938

>  <r_epik_State_Penalty>  (1) 
0.55165850369205582

>  <r_glide_ring_energy>  (1) 
0

>  <r_i_docking_score>  (1) 
-6.6554501968050204

>  <r_i_glide_ecoul>  (1) 
-17.053579159985624

>  <r_i_glide_eff_state_penalty>  (1) 
0.55165850369205582

>  <r_i_glide_einternal>  (1) 
5.6477725884468448

>  <r_i_glide_emodel>  (1) 
-62.187623359434845

>  <r_i_glide_emodel_strain>  (1) 
1.2104191129672586

>  <r_i_glide_energy>  (1) 
-42.571614613962112

>  <r_i_glide_erotb>  (1) 
1.2301891588113794

>  <r_i_glide_esite>  (1) 
-0.089978139825349288

>  <r_i_glide_evdw>  (1) 
-25.518035453976488

>  <r_i_glide_gscore>  (1) 
-7.2071087004970762

>  <r_i_glide_gscore_strain>  (1) 
0

>  <r_i_glide_hbond>  (1) 
-0.65599999999999992

>  <r_i_glide_ligand_efficiency>  (1) 
-0.26621800787220079

>  <r_i_glide_ligand_efficiency_ln>  (1) 
-1.5775411443907428

>  <r_i_glide_ligand_efficiency_sa>  (1) 
-0.77842617725000762

>  <r_i_glide_lipo>  (1) 
-1.4141181037915784

>  <r_i_glide_metal>  (1) 
-0

>  <r_i_glide_rewards>  (1) 
-2.4432629689948611

>  <r_lp_Energy>  (1) 
22.548693

>  <s_epik_Chemistry_Notes>  (1) 
This compound has an imine and may undergo hydrolysis. This compound has a N-S or N-O group and may undergo hydrolysis at high or low pH.

>  <s_epik_cmdline>  (1) 
J2VwaWtfcHl0aG9uJywgJy1waHQnLCAnMS4wJywgJy1waCcsICc3LjQnLCAnLXRuJywgJzgnLCAnLW1hJywgJzUwMCcsICctaW1hZScsICc8aW5maWxlLm1hZT4nLCAnLW9tYWUnLCAnPG91dGZpbGUubWFlPic=

>  <s_epik_input>  (1) 
W05IMl1bQ0gyXUMoRikoRilbQ0BASF0oW09IXSlbQ0BASF0oW09IXSlbQ0gyXVtDSDJdW0NASF0oW09IXSlbQ0gyXVtOSF1PW0NIMl1DKD1OQzEoRilGKVtOSF1DMT1P

>  <s_glide_docking_method>  (1) 
confgen

>  <s_i_glide_gridfile>  (1) 
gpcr_drd2_6luq_protein_autoprepared_prepared

>  <s_lp_Force_Field>  (1) 
S-OPLS

>  <s_lp_Variant>  (1) 
DiffSBDD_30-3

>  <s_m_source_file>  (1) 
generated_generic_title2_ligand_DiffSBDD_2026-06-23_prepared.sdf

>  <GenAI_Model>  (1) 
DiffSBDD

>  <Protein>  (1) 
generic_title2

$$$$
DiffSBDD_46
     RDKit          3D

  0  0  0  0  0  0  0  0  0  0999 V3000
M  V30 BEGIN CTAB
M  V30 COUNTS 57 60 0 0 1
M  V30 BEGIN ATOM
M  V30 1 O 9.349351 5.947953 -7.532174 0
M  V30 2 C 11.362223 8.565658 -9.111775 0
M  V30 3 C 7.879659 4.434800 -16.051106 0
M  V30 4 C 12.670979 8.390175 -1.845873 0
M  V30 5 C 10.827233 8.944566 -6.317417 0
M  V30 6 C 11.357664 9.507028 -5.141376 0
M  V30 7 N 8.464008 5.938759 -11.605660 0
M  V30 8 C 9.278621 4.558662 -9.741948 0
M  V30 9 C 8.441572 7.293573 -12.194869 0
M  V30 10 N 10.377547 7.459960 -8.950109 0
M  V30 11 C 6.309602 5.207912 -12.674978 0
M  V30 12 C 11.673722 7.271230 -4.223275 0
M  V30 13 C 10.734745 7.534942 -6.461926 0
M  V30 14 C 12.445892 8.240214 -10.158220 0
M  V30 15 C 7.366503 4.268834 -14.617062 0 CFG=1
M  V30 16 C 11.775415 8.672558 -4.091432 0
M  V30 17 C 9.645129 7.069655 -10.142962 0
M  V30 18 C 8.459501 4.381516 -13.550190 0
M  V30 19 C 11.151788 6.708127 -5.400612 0
M  V30 20 C 10.097672 6.897430 -7.696427 0
M  V30 21 C 12.271213 9.227709 -2.898400 0
M  V30 22 C 6.349721 5.330655 -14.199034 0
M  V30 23 C 9.324077 8.176355 -11.133958 0
M  V30 24 C 7.748919 4.840410 -12.263136 0 CFG=1
M  V30 25 C 12.575246 6.994772 -1.985216 0
M  V30 26 C 9.141693 5.893519 -10.455964 0
M  V30 27 C 12.076252 6.439861 -3.168986 0
M  V30 28 H 10.856827 9.499648 -9.351952 0
M  V30 29 H 12.034352 8.747872 -8.284486 0
M  V30 30 H 8.353624 5.406212 -16.194803 0
M  V30 31 H 8.613729 3.666012 -16.291720 0
M  V30 32 H 7.062494 4.348902 -16.767042 0
M  V30 33 H 13.054033 8.817777 -0.930918 0
M  V30 34 H 10.471563 9.590215 -7.093121 0
M  V30 35 H 11.419279 10.580413 -5.038212 0
M  V30 36 H 10.175372 4.475556 -9.137789 0
M  V30 37 H 8.388936 4.390241 -9.134239 0
M  V30 38 H 9.375560 3.742277 -10.456331 0
M  V30 39 H 8.886322 7.288982 -13.184997 0
M  V30 40 H 7.427992 7.687625 -12.267318 0
M  V30 41 H 5.647491 4.382924 -12.408420 0
M  V30 42 H 5.913250 6.094536 -12.179943 0
M  V30 43 H 12.958129 9.152287 -10.466319 0
M  V30 44 H 13.200953 7.590305 -9.719244 0
M  V30 45 H 12.079891 7.741984 -11.054045 0
M  V30 46 H 6.895978 3.288435 -14.523553 0
M  V30 47 H 9.210253 5.108481 -13.864436 0
M  V30 48 H 8.975380 3.434853 -13.397601 0
M  V30 49 H 11.062053 5.635664 -5.487886 0
M  V30 50 H 12.338987 10.295491 -2.784867 0
M  V30 51 H 5.375567 5.182871 -14.660710 0
M  V30 52 H 6.703477 6.324123 -14.481579 0
M  V30 53 H 8.722114 8.956298 -10.666644 0
M  V30 54 H 10.175370 8.606875 -11.630139 0
M  V30 55 H 7.650131 3.990789 -11.589747 0
M  V30 56 H 12.889207 6.347372 -1.185090 0
M  V30 57 H 12.004107 5.375325 -3.269141 0
M  V30 END ATOM
M  V30 BEGIN BOND
M  V30 1 2 6 5
M  V30 2 1 9 7
M  V30 3 1 10 2
M  V30 4 1 13 5
M  V30 5 1 14 2
M  V30 6 1 15 3
M  V30 7 1 16 6
M  V30 8 1 16 12
M  V30 9 1 17 10
M  V30 10 1 18 15
M  V30 11 1 19 12
M  V30 12 2 19 13
M  V30 13 2 20 1
M  V30 14 1 20 10
M  V30 15 1 20 13
M  V30 16 1 21 4
M  V30 17 2 21 16
M  V30 18 1 22 11
M  V30 19 1 22 15
M  V30 20 1 23 9
M  V30 21 1 23 17
M  V30 22 1 24 7
M  V30 23 1 24 11
M  V30 24 1 24 18
M  V30 25 2 25 4
M  V30 26 1 26 7
M  V30 27 1 26 8
M  V30 28 2 26 17
M  V30 29 2 27 12
M  V30 30 1 27 25
M  V30 31 1 28 2
M  V30 32 1 29 2
M  V30 33 1 30 3
M  V30 34 1 31 3
M  V30 35 1 32 3
M  V30 36 1 33 4
M  V30 37 1 34 5
M  V30 38 1 35 6
M  V30 39 1 36 8
M  V30 40 1 37 8
M  V30 41 1 38 8
M  V30 42 1 39 9
M  V30 43 1 40 9
M  V30 44 1 41 11
M  V30 45 1 42 11
M  V30 46 1 43 14
M  V30 47 1 44 14
M  V30 48 1 45 14
M  V30 49 1 15 46 CFG=3
M  V30 50 1 47 18
M  V30 51 1 48 18
M  V30 52 1 49 19
M  V30 53 1 50 21
M  V30 54 1 51 22
M  V30 55 1 52 22
M  V30 56 1 53 23
M  V30 57 1 54 23
M  V30 58 1 24 55 CFG=1
M  V30 59 1 56 25
M  V30 60 1 57 27
M  V30 END BOND
M  V30 END CTAB
M  END
>  <i_epik_Tot_Q>  (1) 
0

>  <i_epik_Tot_abs_Q>  (1) 
0

>  <i_i_glide_confnum>  (1) 
190

>  <i_i_glide_lignum>  (1) 
124

>  <i_i_glide_posenum>  (1) 
267

>  <i_i_glide_rotatable_bonds>  (1) 
5

>  <i_lp_mmshare_version>  (1) 
72125

>  <i_m_source_file_index>  (1) 
47

>  <i_f3d_flags>  (1) 
0

>  <num_sample>  (1) 
50

>  <b_lp_Chiralities_Consistent>  (1) 
1

>  <r_epik_Charging_Adjusted_Penalty>  (1) 
7.6326947449564099e-08

>  <r_epik_Ionization_Penalty>  (1) 
7.1791624653063315e-05

>  <r_epik_Ionization_Penalty_Charging>  (1) 
7.6326947449564099e-08

>  <r_epik_Ionization_Penalty_Neutral>  (1) 
7.1715297705613756e-05

>  <r_epik_State_Penalty>  (1) 
-0

>  <r_glide_ring_energy>  (1) 
1.5190289071970988

>  <r_i_docking_score>  (1) 
-6.6174266105264588

>  <r_i_glide_ecoul>  (1) 
0.82074415868709183

>  <r_i_glide_eff_state_penalty>  (1) 
-0

>  <r_i_glide_einternal>  (1) 
43.238965435996249

>  <r_i_glide_emodel>  (1) 
-23.357065798562459

>  <r_i_glide_emodel_strain>  (1) 
0.068976175014995533

>  <r_i_glide_energy>  (1) 
-34.712977263385973

>  <r_i_glide_erotb>  (1) 
0.58447327232945689

>  <r_i_glide_esite>  (1) 
-0.091699186304266045

>  <r_i_glide_evdw>  (1) 
-35.533721422073064

>  <r_i_glide_gscore>  (1) 
-6.6174266105264588

>  <r_i_glide_gscore_strain>  (1) 
0

>  <r_i_glide_hbond>  (1) 
0

>  <r_i_glide_ligand_efficiency>  (1) 
-0.24508987446394292

>  <r_i_glide_ligand_efficiency_ln>  (1) 
-1.5404278181265065

>  <r_i_glide_ligand_efficiency_sa>  (1) 
-0.73526962339182889

>  <r_i_glide_lipo>  (1) 
-3.7990868521949914

>  <r_i_glide_metal>  (1) 
-0

>  <r_i_glide_rewards>  (1) 
-1.6575393970560679

>  <r_lp_Energy>  (1) 
50.30068

>  <r_lp_tautomer_probability>  (1) 
1

>  <s_epik_Chemistry_Notes>  (1) 
This compound has an imine and may undergo hydrolysis.

>  <s_epik_cmdline>  (1) 
J2VwaWtfcHl0aG9uJywgJy1waHQnLCAnMS4wJywgJy1waCcsICc3LjQnLCAnLXRuJywgJzgnLCAnLW1hJywgJzUwMCcsICctaW1hZScsICc8aW5maWxlLm1hZT4nLCAnLW9tYWUnLCAnPG91dGZpbGUubWFlPic=

>  <s_epik_input>  (1) 
W2NIXTFbY0hdW2NIXVtjSF1jKGMxMilbY0hdW2NIXWMoW2NIXTIpQyg9TylOKFtDSDJdW0NIM10pQyg9QzNbQ0gzXSlbQ0gyXVtDSDJdTjNbQ0BASF0oW0NIMl1bQ0gyXTQpW0NIMl1bQ0BASF00W0NIM10=

>  <s_glide_docking_method>  (1) 
confgen

>  <s_i_glide_gridfile>  (1) 
gpcr_drd2_6luq_protein_autoprepared_prepared

>  <s_lp_Force_Field>  (1) 
S-OPLS

>  <s_lp_Variant>  (1) 
DiffSBDD_46-1

>  <s_m_source_file>  (1) 
generated_generic_title2_ligand_DiffSBDD_2026-06-23_prepared.sdf

>  <GenAI_Model>  (1) 
DiffSBDD

>  <Protein>  (1) 
generic_title2

$$$$
DiffSBDD_27
     RDKit          3D

  0  0  0  0  0  0  0  0  0  0999 V3000
M  V30 BEGIN CTAB
M  V30 COUNTS 50 50 0 0 1
M  V30 BEGIN ATOM
M  V30 1 F 12.977206 8.632758 -3.129398 0
M  V30 2 C 9.275700 7.145274 -7.186875 0
M  V30 3 C 8.525434 3.447004 -15.858001 0
M  V30 4 C 10.687249 6.593831 -5.151628 0
M  V30 5 C 6.703295 5.683526 -15.424462 0
M  V30 6 O 5.424572 7.381588 -16.496940 0
M  V30 7 O 5.768302 6.400186 -11.292321 0
M  V30 8 C 7.992210 2.441211 -13.586154 0
M  V30 9 C 8.729175 5.738011 -10.649368 0 CFG=2
M  V30 10 O 8.974694 7.132160 -10.782398 0
M  V30 11 F 12.175682 10.460549 -5.037923 0
M  V30 12 C 10.791384 8.842732 -6.074352 0
M  V30 13 C 7.510516 3.395576 -14.691585 0
M  V30 14 C 7.826504 5.559949 -13.131297 0
M  V30 15 C 7.694573 5.110373 -11.639653 0 CFG=2
M  V30 16 C 8.402238 5.413330 -9.180235 0
M  V30 17 S 9.809380 5.664469 -8.075334 0
M  V30 18 C 11.602188 6.962152 -4.143996 0
M  V30 19 C 5.493689 6.600829 -15.324199 0
M  V30 20 C 6.968374 4.781248 -14.190734 0 CFG=1
M  V30 21 C 11.700367 9.210707 -5.072265 0
M  V30 22 C 12.105732 8.273351 -4.100414 0
M  V30 23 O 6.366607 5.092350 -11.122225 0
M  V30 24 C 10.277786 7.535408 -6.115019 0
M  V30 25 H 9.131451 7.956798 -7.899407 0
M  V30 26 H 8.317999 6.940559 -6.710691 0
M  V30 27 H 9.346631 4.131620 -15.667890 0
M  V30 28 H 8.946203 2.459059 -16.040418 0
M  V30 29 H 8.076459 3.750224 -16.802807 0
M  V30 30 H 10.294388 5.592118 -5.179293 0
M  V30 31 H 7.595687 6.275784 -15.623272 0
M  V30 32 H 6.524136 5.090044 -16.321213 0
M  V30 33 H 4.611054 7.860646 -16.506342 0
M  V30 34 H 6.175570 6.908732 -10.583074 0
M  V30 35 H 8.905523 2.791249 -13.099648 0
M  V30 36 H 7.218677 2.298041 -12.833148 0
M  V30 37 H 8.206508 1.448417 -13.983374 0
M  V30 38 H 9.680376 5.267308 -10.896737 0
M  V30 39 H 8.295606 7.581654 -10.267500 0
M  V30 40 H 10.481924 9.570118 -6.807246 0
M  V30 41 H 6.638725 2.896075 -15.116626 0
M  V30 42 H 7.589121 6.629131 -13.203282 0
M  V30 43 H 8.875963 5.491415 -13.416937 0
M  V30 44 H 7.935213 4.051019 -11.591128 0
M  V30 45 H 7.539780 5.955855 -8.814814 0
M  V30 46 H 8.100549 4.379143 -9.101234 0
M  V30 47 H 11.909732 6.240031 -3.405600 0
M  V30 48 H 4.600937 5.988042 -15.273121 0
M  V30 49 H 5.533632 7.228213 -14.438051 0
M  V30 50 H 5.996678 4.579342 -13.732823 0
M  V30 END ATOM
M  V30 BEGIN BOND
M  V30 1 1 10 9
M  V30 2 1 13 3
M  V30 3 1 13 8
M  V30 4 1 15 9
M  V30 5 1 15 14
M  V30 6 1 16 9
M  V30 7 1 17 2
M  V30 8 1 17 16
M  V30 9 2 18 4
M  V30 10 1 19 5
M  V30 11 1 19 6
M  V30 12 1 20 5
M  V30 13 1 20 13
M  V30 14 1 20 14
M  V30 15 1 21 11
M  V30 16 1 21 12
M  V30 17 1 22 1
M  V30 18 1 22 18
M  V30 19 2 22 21
M  V30 20 1 23 7
M  V30 21 1 23 15
M  V30 22 1 24 2
M  V30 23 1 24 4
M  V30 24 2 24 12
M  V30 25 1 25 2
M  V30 26 1 26 2
M  V30 27 1 27 3
M  V30 28 1 28 3
M  V30 29 1 29 3
M  V30 30 1 30 4
M  V30 31 1 31 5
M  V30 32 1 32 5
M  V30 33 1 33 6
M  V30 34 1 34 7
M  V30 35 1 35 8
M  V30 36 1 36 8
M  V30 37 1 37 8
M  V30 38 1 9 38 CFG=3
M  V30 39 1 39 10
M  V30 40 1 40 12
M  V30 41 1 41 13
M  V30 42 1 42 14
M  V30 43 1 43 14
M  V30 44 1 15 44 CFG=3
M  V30 45 1 45 16
M  V30 46 1 46 16
M  V30 47 1 47 18
M  V30 48 1 48 19
M  V30 49 1 49 19
M  V30 50 1 20 50 CFG=1
M  V30 END BOND
M  V30 END CTAB
M  END
>  <i_epik_Tot_Q>  (1) 
0

>  <i_epik_Tot_abs_Q>  (1) 
0

>  <i_i_glide_confnum>  (1) 
1923

>  <i_i_glide_lignum>  (1) 
77

>  <i_i_glide_posenum>  (1) 
56

>  <i_i_glide_rotatable_bonds>  (1) 
14

>  <i_lp_mmshare_version>  (1) 
72125

>  <i_m_source_file_index>  (1) 
28

>  <i_f3d_flags>  (1) 
0

>  <num_sample>  (1) 
50

>  <b_lp_Chiralities_Consistent>  (1) 
1

>  <r_epik_Charging_Adjusted_Penalty>  (1) 
0

>  <r_epik_Ionization_Penalty>  (1) 
1.248774447628934e-05

>  <r_epik_Ionization_Penalty_Charging>  (1) 
0

>  <r_epik_Ionization_Penalty_Neutral>  (1) 
1.248774447628934e-05

>  <r_epik_State_Penalty>  (1) 
-0

>  <r_glide_ring_energy>  (1) 
0

>  <r_i_docking_score>  (1) 
-6.6065033268238587

>  <r_i_glide_ecoul>  (1) 
-12.357493334692149

>  <r_i_glide_eff_state_penalty>  (1) 
-0

>  <r_i_glide_einternal>  (1) 
5.9592680780372156

>  <r_i_glide_emodel>  (1) 
-49.23363298669932

>  <r_i_glide_emodel_strain>  (1) 
1.0224335750689626

>  <r_i_glide_energy>  (1) 
-35.992258808463845

>  <r_i_glide_erotb>  (1) 
1.3026288034546341

>  <r_i_glide_esite>  (1) 
-0.13946374259713612

>  <r_i_glide_evdw>  (1) 
-23.634765473771694

>  <r_i_glide_gscore>  (1) 
-6.6065033268238587

>  <r_i_glide_gscore_strain>  (1) 
0

>  <r_i_glide_hbond>  (1) 
-0.30399999999999999

>  <r_i_glide_ligand_efficiency>  (1) 
-0.27527097195099409

>  <r_i_glide_ligand_efficiency_ln>  (1) 
-1.5812393987929241

>  <r_i_glide_ligand_efficiency_sa>  (1) 
-0.79401888202884785

>  <r_i_glide_lipo>  (1) 
-2.325941665349573

>  <r_i_glide_metal>  (1) 
-0

>  <r_i_glide_rewards>  (1) 
-2.1043644484393771

>  <r_lp_Energy>  (1) 
13.121089999999999

>  <r_lp_tautomer_probability>  (1) 
1

>  <s_epik_cmdline>  (1) 
J2VwaWtfcHl0aG9uJywgJy1waHQnLCAnMS4wJywgJy1waCcsICc3LjQnLCAnLXRuJywgJzgnLCAnLW1hJywgJzUwMCcsICctaW1hZScsICc8aW5maWxlLm1hZT4nLCAnLW9tYWUnLCAnPG91dGZpbGUubWFlPic=

>  <s_epik_input>  (1) 
RmMxW2NIXVtjSF1jKFtjSF1jMUYpW0NIMl1TW0NIMl1bQ0BIXShbT0hdKVtDQEBIXShPW09IXSlbQ0gyXVtDQEhdKFtDSF0oW0NIM10pW0NIM10pW0NIMl1bQ0gyXVtPSF0=

>  <s_glide_docking_method>  (1) 
confgen

>  <s_i_glide_gridfile>  (1) 
gpcr_drd2_6luq_protein_autoprepared_prepared

>  <s_lp_Force_Field>  (1) 
S-OPLS

>  <s_lp_Variant>  (1) 
DiffSBDD_27-1

>  <s_m_source_file>  (1) 
generated_generic_title2_ligand_DiffSBDD_2026-06-23_prepared.sdf

>  <GenAI_Model>  (1) 
DiffSBDD

>  <Protein>  (1) 
generic_title2

$$$$
DiffSBDD_8
     RDKit          3D

  0  0  0  0  0  0  0  0  0  0999 V3000
M  V30 BEGIN CTAB
M  V30 COUNTS 70 73 0 0 1
M  V30 BEGIN ATOM
M  V30 1 N 6.322901 5.035840 -14.775654 0
M  V30 2 C 5.022652 7.710063 -16.241724 0
M  V30 3 C 7.924646 6.623871 -12.588807 0 CFG=1
M  V30 4 N 5.140319 7.453561 -18.498063 0
M  V30 5 O 8.565144 3.382041 -12.324138 0
M  V30 6 C 9.158440 5.563242 -8.434806 0
M  V30 7 F 7.237497 6.564347 -18.726183 0
M  V30 8 C 9.727689 6.782999 -7.712665 0
M  V30 9 N 8.701545 5.990181 -9.766181 0 CHG=1
M  V30 10 C 8.180674 4.923725 -10.644319 0 CFG=1
M  V30 11 C 6.103766 6.478054 -18.028569 0 CFG=1
M  V30 12 C 11.775186 9.408484 -3.079601 0
M  V30 13 C 7.357833 5.415238 -11.830032 0 CFG=2
M  V30 14 O 10.175426 4.931505 -11.985025 0
M  V30 15 O 4.575418 6.908277 -19.689715 0
M  V30 16 C 10.217860 6.496973 -6.287803 0
M  V30 17 C 6.283563 3.236660 -12.864508 0
M  V30 18 C 4.975528 5.370406 -14.385125 0
M  V30 19 C 6.916382 3.926121 -14.080257 0 CFG=2
M  V30 20 C 6.272409 6.856826 -16.553487 0 CFG=2
M  V30 21 C 6.989825 5.696400 -15.767351 0
M  V30 22 C 7.005679 7.653439 -13.150064 0
M  V30 23 C 9.250420 4.085250 -11.358043 0 CFG=2
M  V30 24 C 7.447846 4.165840 -12.698009 0 CFG=2
M  V30 25 O 10.975415 10.276442 -3.866998 0
M  V30 26 O 8.143948 5.399146 -16.072228 0
M  V30 27 C 12.463664 8.369553 -3.967616 0
M  V30 28 C 4.458831 7.987778 -20.604273 0
M  V30 29 C 4.125476 7.420393 -17.450624 0
M  V30 30 O 11.553200 7.425433 -4.523983 0
M  V30 31 C 10.976208 7.690554 -5.713372 0
M  V30 32 N 7.800461 7.937842 -11.985064 0 CHG=1
M  V30 33 O 11.047840 8.768344 -6.309696 0
M  V30 34 H 4.575517 7.658803 -15.263357 0
M  V30 35 H 5.299124 8.765871 -16.303546 0
M  V30 36 H 8.856461 6.519552 -13.136163 0
M  V30 37 H 9.915163 4.783829 -8.527519 0
M  V30 38 H 8.315589 5.148997 -7.878728 0
M  V30 39 H 8.975760 7.573325 -7.673244 0
M  V30 40 H 10.549475 7.178015 -8.312211 0
M  V30 41 H 7.955216 6.671304 -9.585195 0
M  V30 42 H 7.562300 4.249566 -10.049350 0
M  V30 43 H 5.714639 5.462869 -18.136339 0
M  V30 44 H 12.554497 9.991050 -2.593006 0
M  V30 45 H 11.209582 8.944533 -2.274612 0
M  V30 46 H 6.324081 5.616374 -11.539191 0
M  V30 47 H 10.751021 4.400319 -12.532026 0
M  V30 48 H 10.888573 5.636444 -6.292684 0
M  V30 49 H 9.380721 6.254764 -5.633832 0
M  V30 50 H 6.463057 2.166756 -12.757232 0
M  V30 51 H 5.372673 3.590357 -12.392399 0
M  V30 52 H 4.419313 5.590300 -15.274936 0
M  V30 53 H 4.430505 4.541609 -13.954300 0
M  V30 54 H 4.945481 6.174500 -13.664777 0
M  V30 55 H 7.511797 3.259383 -14.704946 0
M  V30 56 H 6.975410 7.664028 -16.523369 0
M  V30 57 H 7.375139 8.265141 -13.971984 0
M  V30 58 H 5.976143 7.771641 -12.818952 0
M  V30 59 H 9.775205 3.411497 -10.686293 0
M  V30 60 H 11.301856 10.268539 -4.757345 0
M  V30 61 H 13.046631 8.869556 -4.742356 0
M  V30 62 H 13.175854 7.808398 -3.361903 0
M  V30 63 H 4.039348 7.634367 -21.547076 0
M  V30 64 H 3.795383 8.763784 -20.217101 0
M  V30 65 H 5.429344 8.438908 -20.819234 0
M  V30 66 H 3.660705 6.435394 -17.379383 0
M  V30 67 H 3.338373 8.156601 -17.604534 0
M  V30 68 H 7.303039 7.989838 -11.088901 0
M  V30 69 H 9.465897 6.446037 -10.241785 0
M  V30 70 H 8.554145 8.586938 -12.162602 0
M  V30 END ATOM
M  V30 BEGIN BOND
M  V30 1 1 8 6
M  V30 2 1 9 6
M  V30 3 1 10 9
M  V30 4 1 11 4
M  V30 5 1 11 7
M  V30 6 1 13 3
M  V30 7 1 13 10
M  V30 8 1 15 4
M  V30 9 1 16 8
M  V30 10 1 18 1
M  V30 11 1 19 1
M  V30 12 1 19 17
M  V30 13 1 20 2
M  V30 14 1 20 11
M  V30 15 1 21 1
M  V30 16 1 21 20
M  V30 17 1 22 3
M  V30 18 1 23 5
M  V30 19 1 23 10
M  V30 20 1 23 14
M  V30 21 1 24 5 CFG=3
M  V30 22 1 24 13
M  V30 23 1 24 17
M  V30 24 1 24 19
M  V30 25 1 25 12
M  V30 26 2 26 21
M  V30 27 1 27 12
M  V30 28 1 28 15
M  V30 29 1 29 2
M  V30 30 1 29 4
M  V30 31 1 30 27
M  V30 32 1 31 16
M  V30 33 1 31 30
M  V30 34 1 32 3
M  V30 35 1 32 22
M  V30 36 2 33 31
M  V30 37 1 34 2
M  V30 38 1 35 2
M  V30 39 1 3 36 CFG=3
M  V30 40 1 37 6
M  V30 41 1 38 6
M  V30 42 1 39 8
M  V30 43 1 40 8
M  V30 44 1 41 9
M  V30 45 1 10 42 CFG=1
M  V30 46 1 11 43 CFG=1
M  V30 47 1 44 12
M  V30 48 1 45 12
M  V30 49 1 13 46 CFG=1
M  V30 50 1 47 14
M  V30 51 1 48 16
M  V30 52 1 49 16
M  V30 53 1 50 17
M  V30 54 1 51 17
M  V30 55 1 52 18
M  V30 56 1 53 18
M  V30 57 1 54 18
M  V30 58 1 19 55 CFG=3
M  V30 59 1 20 56 CFG=3
M  V30 60 1 57 22
M  V30 61 1 58 22
M  V30 62 1 23 59 CFG=1
M  V30 63 1 60 25
M  V30 64 1 61 27
M  V30 65 1 62 27
M  V30 66 1 63 28
M  V30 67 1 64 28
M  V30 68 1 65 28
M  V30 69 1 66 29
M  V30 70 1 67 29
M  V30 71 1 68 32
M  V30 72 1 69 9
M  V30 73 1 70 32
M  V30 END BOND
M  V30 END CTAB
M  END
>  <i_epik_Tot_Q>  (1) 
2

>  <i_epik_Tot_abs_Q>  (1) 
2

>  <i_i_glide_confnum>  (1) 
411

>  <i_i_glide_lignum>  (1) 
43

>  <i_i_glide_posenum>  (1) 
23

>  <i_i_glide_rotatable_bonds>  (1) 
15

>  <i_lp_mmshare_version>  (1) 
72125

>  <i_m_source_file_index>  (1) 
9

>  <i_f3d_flags>  (1) 
0

>  <num_sample>  (1) 
50

>  <b_lp_Chiralities_Consistent>  (1) 
1

>  <r_epik_Charging_Adjusted_Penalty>  (1) 
2.8797985042560583

>  <r_epik_Ionization_Penalty>  (1) 
1.6442763990741283

>  <r_epik_Ionization_Penalty_Charging>  (1) 
1.6439676131770962

>  <r_epik_Ionization_Penalty_Neutral>  (1) 
0.00030878589703216643

>  <r_epik_State_Penalty>  (1) 
1.2358308910789622

>  <r_glide_ring_energy>  (1) 
0

>  <r_i_docking_score>  (1) 
-6.5613569361629747

>  <r_i_glide_ecoul>  (1) 
-16.876749677157434

>  <r_i_glide_eff_state_penalty>  (1) 
1.2358308910789622

>  <r_i_glide_einternal>  (1) 
33.30130980166858

>  <r_i_glide_emodel>  (1) 
-43.117782062153999

>  <r_i_glide_emodel_strain>  (1) 
6.9146281072549129

>  <r_i_glide_energy>  (1) 
-40.769026549506819

>  <r_i_glide_erotb>  (1) 
1.0700444368793263

>  <r_i_glide_esite>  (1) 
-0.19089982035170175

>  <r_i_glide_evdw>  (1) 
-23.892276872349381

>  <r_i_glide_gscore>  (1) 
-7.7971878272419364

>  <r_i_glide_gscore_strain>  (1) 
0.72865702681372824

>  <r_i_glide_hbond>  (1) 
-0.71999999999999997

>  <r_i_glide_ligand_efficiency>  (1) 
-0.19882899806554469

>  <r_i_glide_ligand_efficiency_ln>  (1) 
-1.4592118097146201

>  <r_i_glide_ligand_efficiency_sa>  (1) 
-0.63775083709390845

>  <r_i_glide_lipo>  (1) 
-2.5456942543192094

>  <r_i_glide_metal>  (1) 
-0

>  <r_i_glide_rewards>  (1) 
-2.4131689210729945

>  <r_lp_Energy>  (1) 
51.457698000000001

>  <s_epik_Chemistry_Notes>  (1) 
This compound has an ester and may undergo hydrolysis at high or low pH. This compound contains an acetal/aminal-like group ( X-CH(R)-Y where X, Y are N, S, or O) that may be acid/base labile, releasing an aldehyde. This compound has a N-S or N-O group and may undergo hydrolysis at high or low pH.

>  <s_epik_cmdline>  (1) 
J2VwaWtfcHl0aG9uJywgJy1waHQnLCAnMS4wJywgJy1waCcsICc3LjQnLCAnLXRuJywgJzgnLCAnLW1hJywgJzUwMCcsICctaW1hZScsICc8aW5maWxlLm1hZT4nLCAnLW9tYWUnLCAnPG91dGZpbGUubWFlPic=

>  <s_epik_input>  (1) 
W0NIM11PTjFbQ0BIXShGKVtDQEBIXShbQ0gyXVtDSDJdMSlDKD1PKU4oW0NIM10pW0NASF0yW0NIMl1DMjNPW0NAQEhdKFtPSF0pW0NASF0oW0NASF0zW0NASF00W0NIMl1bTkhdNClbTkhdW0NIMl1bQ0gyXVtDSDJdQyg9TylPW0NIMl1bQ0gyXVtPSF0=

>  <s_glide_docking_method>  (1) 
confgen

>  <s_i_glide_gridfile>  (1) 
gpcr_drd2_6luq_protein_autoprepared_prepared

>  <s_lp_Force_Field>  (1) 
S-OPLS

>  <s_lp_Variant>  (1) 
DiffSBDD_8-12

>  <s_m_source_file>  (1) 
generated_generic_title2_ligand_DiffSBDD_2026-06-23_prepared.sdf

>  <GenAI_Model>  (1) 
DiffSBDD

>  <Protein>  (1) 
generic_title2

$$$$
DiffSBDD_15
     RDKit          3D

  0  0  0  0  0  0  0  0  0  0999 V3000
M  V30 BEGIN CTAB
M  V30 COUNTS 47 48 0 0 1
M  V30 BEGIN ATOM
M  V30 1 C 11.375414 9.017327 -4.949689 0
M  V30 2 C 8.968724 5.566469 -9.724132 0
M  V30 3 Cl 10.022800 6.575708 -11.985021 0
M  V30 4 C 12.199915 8.983835 -3.889537 0
M  V30 5 C 11.688034 6.510945 -3.516498 0
M  V30 6 C 10.562165 7.842217 -7.087346 0 CFG=2
M  V30 7 N 7.311064 5.079910 -13.235073 0 CFG=1 CHG=1
M  V30 8 C 10.708927 7.781839 -5.546867 0 CFG=1
M  V30 9 O 5.775431 6.925104 -12.521597 0
M  V30 10 C 8.572660 5.934632 -11.157696 0 CFG=1
M  V30 11 P 6.975433 6.735807 -13.668834 0
M  V30 12 C 8.425004 4.437223 -13.928162 0
M  V30 13 C 8.731085 3.693888 -12.629862 0
M  V30 14 N 9.375410 6.790234 -9.012576 0 CHG=1
M  V30 15 O 11.963426 7.990228 -9.046239 0
M  V30 16 O 5.840746 6.286667 -14.804844 0
M  V30 17 C 9.841985 6.587333 -7.632468 0
M  V30 18 C 12.575399 7.713663 -3.149990 0
M  V30 19 C 11.881092 8.130417 -7.826141 0
M  V30 20 C 7.905639 4.768262 -11.920613 0 CFG=2
M  V30 21 C 11.316247 6.462850 -5.008007 0
M  V30 22 H 11.153446 9.963998 -5.421838 0
M  V30 23 H 8.122008 5.122730 -9.197198 0
M  V30 24 H 9.775395 4.832517 -9.724286 0
M  V30 25 H 12.636436 9.901465 -3.523486 0
M  V30 26 H 12.185287 5.590234 -3.223805 0
M  V30 27 H 10.780037 6.511166 -2.917682 0
M  V30 28 H 9.922319 8.700268 -7.298187 0
M  V30 29 H 9.689622 7.820204 -5.185025 0
M  V30 30 H 6.046035 7.556612 -11.866606 0
M  V30 31 H 7.881230 6.770046 -11.088210 0
M  V30 32 H 8.111728 3.800760 -14.756663 0
M  V30 33 H 9.211719 5.131376 -14.227741 0
M  V30 34 H 8.274820 2.703098 -12.587485 0
M  V30 35 H 9.787371 3.661414 -12.361835 0
M  V30 36 H 10.110231 7.247728 -9.537944 0
M  V30 37 H 5.379254 7.065180 -15.080373 0
M  V30 38 H 8.976988 6.338527 -7.014959 0
M  V30 39 H 10.514924 5.728436 -7.601013 0
M  V30 40 H 13.616866 7.494123 -3.376322 0
M  V30 41 H 12.523692 7.895839 -2.076068 0
M  V30 42 H 12.710645 8.461369 -7.202093 0
M  V30 43 H 7.123460 4.305906 -11.316175 0
M  V30 44 H 10.595141 5.660001 -5.138939 0
M  V30 45 H 12.175411 6.171022 -5.602245 0
M  V30 46 H 6.477824 4.525238 -13.368341 0
M  V30 47 H 8.538182 7.384247 -9.002571 0
M  V30 END ATOM
M  V30 BEGIN BOND
M  V30 1 2 4 1
M  V30 2 1 8 1
M  V30 3 1 8 6
M  V30 4 1 10 2
M  V30 5 1 10 3
M  V30 6 1 11 7
M  V30 7 1 11 9
M  V30 8 1 12 7
M  V30 9 1 13 12
M  V30 10 1 14 2
M  V30 11 1 16 11
M  V30 12 1 17 6
M  V30 13 1 17 14
M  V30 14 1 18 4
M  V30 15 1 18 5
M  V30 16 1 19 6
M  V30 17 2 19 15
M  V30 18 1 20 7
M  V30 19 1 20 10
M  V30 20 1 20 13
M  V30 21 1 21 5
M  V30 22 1 21 8
M  V30 23 1 22 1
M  V30 24 1 23 2
M  V30 25 1 24 2
M  V30 26 1 25 4
M  V30 27 1 26 5
M  V30 28 1 27 5
M  V30 29 1 6 28 CFG=1
M  V30 30 1 8 29 CFG=1
M  V30 31 1 30 9
M  V30 32 1 10 31 CFG=1
M  V30 33 1 32 12
M  V30 34 1 33 12
M  V30 35 1 34 13
M  V30 36 1 35 13
M  V30 37 1 36 14
M  V30 38 1 37 16
M  V30 39 1 38 17
M  V30 40 1 39 17
M  V30 41 1 40 18
M  V30 42 1 41 18
M  V30 43 1 42 19
M  V30 44 1 20 43 CFG=1
M  V30 45 1 44 21
M  V30 46 1 45 21
M  V30 47 1 7 46 CFG=1
M  V30 48 1 47 14
M  V30 END BOND
M  V30 END CTAB
M  END
>  <i_epik_Tot_Q>  (1) 
2

>  <i_epik_Tot_abs_Q>  (1) 
2

>  <i_i_glide_confnum>  (1) 
5

>  <i_i_glide_lignum>  (1) 
55

>  <i_i_glide_posenum>  (1) 
97

>  <i_i_glide_rotatable_bonds>  (1) 
10

>  <i_lp_mmshare_version>  (1) 
72125

>  <i_m_source_file_index>  (1) 
16

>  <i_f3d_flags>  (1) 
0

>  <num_sample>  (1) 
50

>  <b_lp_Chiralities_Consistent>  (1) 
1

>  <r_epik_Charging_Adjusted_Penalty>  (1) 
0.82033889234892232

>  <r_epik_Ionization_Penalty>  (1) 
0.44833786363099537

>  <r_epik_Ionization_Penalty_Charging>  (1) 
0.44828572222584073

>  <r_epik_Ionization_Penalty_Neutral>  (1) 
5.214140515465987e-05

>  <r_epik_State_Penalty>  (1) 
0.37205317012308153

>  <r_glide_ring_energy>  (1) 
0

>  <r_i_docking_score>  (1) 
-6.5604861950919986

>  <r_i_glide_ecoul>  (1) 
-9.1233756250832574

>  <r_i_glide_eff_state_penalty>  (1) 
0.37205317012308153

>  <r_i_glide_einternal>  (1) 
12.540155591095679

>  <r_i_glide_emodel>  (1) 
-63.51532611733785

>  <r_i_glide_emodel_strain>  (1) 
0.28283320730563588

>  <r_i_glide_energy>  (1) 
-43.529007801312588

>  <r_i_glide_erotb>  (1) 
0.99921442309273578

>  <r_i_glide_esite>  (1) 
-0.10000000000000001

>  <r_i_glide_evdw>  (1) 
-34.405632176229332

>  <r_i_glide_gscore>  (1) 
-6.9325393652150797

>  <r_i_glide_gscore_strain>  (1) 
0

>  <r_i_glide_hbond>  (1) 
-0.20000000000000001

>  <r_i_glide_ligand_efficiency>  (1) 
-0.3124041045281904

>  <r_i_glide_ligand_efficiency_ln>  (1) 
-1.622066955025909

>  <r_i_glide_ligand_efficiency_sa>  (1) 
-0.86189923678351932

>  <r_i_glide_lipo>  (1) 
-2.2318911352760802

>  <r_i_glide_metal>  (1) 
-0

>  <r_i_glide_rewards>  (1) 
-2.3110747004577807

>  <r_lp_Energy>  (1) 
21.773961

>  <r_lp_tautomer_probability>  (1) 
0.99990000499974985

>  <s_epik_cmdline>  (1) 
J2VwaWtfcHl0aG9uJywgJy1waHQnLCAnMS4wJywgJy1waCcsICc3LjQnLCAnLXRuJywgJzgnLCAnLW1hJywgJzUwMCcsICctaW1hZScsICc8aW5maWxlLm1hZT4nLCAnLW9tYWUnLCAnPG91dGZpbGUubWFlPic=

>  <s_epik_input>  (1) 
W0NIMl0xW0NIMl1bQ0gyXVtDSF09W0NIXVtDQEhdMVtDQEBIXShbQ0hdPU8pW0NIMl1bTkhdW0NIMl1bQ0BASF0oQ2wpW0NAQEhdMltDSDJdW0NIMl1OMlAoW09IXSlbT0hd

>  <s_glide_docking_method>  (1) 
confgen

>  <s_i_glide_gridfile>  (1) 
gpcr_drd2_6luq_protein_autoprepared_prepared

>  <s_lp_Force_Field>  (1) 
S-OPLS

>  <s_lp_Variant>  (1) 
DiffSBDD_15-2

>  <s_m_source_file>  (1) 
generated_generic_title2_ligand_DiffSBDD_2026-06-23_prepared.sdf

>  <GenAI_Model>  (1) 
DiffSBDD

>  <Protein>  (1) 
generic_title2

$$$$
DiffSBDD_20
     RDKit          3D

  0  0  0  0  0  0  0  0  0  0999 V3000
M  V30 BEGIN CTAB
M  V30 COUNTS 72 74 0 0 1
M  V30 BEGIN ATOM
M  V30 1 C 11.275650 5.670612 -19.376290 0
M  V30 2 C 5.396470 7.792512 -15.255308 0
M  V30 3 C 7.404340 4.574566 -17.013628 0 CFG=2
M  V30 4 C 9.993400 5.537361 -19.728020 0
M  V30 5 C 11.843656 5.603031 -18.019102 0 CFG=1
M  V30 6 C 9.021134 7.429132 -7.602050 0
M  V30 7 C 9.201352 5.543804 -10.506972 0 CFG=1
M  V30 8 F 12.175548 6.820673 -17.599455 0
M  V30 9 C 7.461526 5.893955 -12.462100 0
M  V30 10 O 10.496821 5.664277 -7.915190 0
M  V30 11 C 7.207229 4.745135 -15.481485 0
M  V30 12 C 8.935954 5.631631 -12.053188 0 CFG=2
M  V30 13 C 11.745691 8.980829 -9.103898 0
M  V30 14 C 8.831031 5.257811 -18.870043 0
M  V30 15 C 8.804125 4.820278 -17.580833 0
M  V30 16 C 9.966992 4.519474 -16.722010 0
M  V30 17 C 9.967925 6.798127 -9.961875 0 CFG=2
M  V30 18 C 6.067430 6.785749 -17.542845 0
M  V30 19 N 7.821819 5.990225 -14.979254 0 CHG=1
M  V30 20 C 4.973613 6.947273 -16.473525 0
M  V30 21 C 11.620290 8.333632 -6.677012 0
M  V30 22 C 7.238377 6.655013 -13.790517 0 CFG=1
M  V30 23 O 9.362835 4.448142 -12.704062 0
M  V30 24 C 10.241328 6.953479 -8.420238 0 CFG=1
M  V30 25 S 7.253804 5.452953 -19.578593 0
M  V30 26 C 11.254190 4.834325 -16.908180 0
M  V30 27 C 11.519023 7.817559 -8.127026 0
M  V30 28 C 5.746531 6.993112 -13.982737 0
M  V30 29 C 6.414231 5.343142 -17.966024 0 CFG=1
M  V30 30 O 9.375406 7.973009 -10.459804 0
M  V30 31 N 7.987869 5.227361 -9.725080 0 CHG=1
M  V30 32 H 11.992020 5.882654 -20.157030 0
M  V30 33 H 4.541636 8.412725 -15.004056 0
M  V30 34 H 6.183899 8.500979 -15.514071 0
M  V30 35 H 7.225625 3.516510 -17.212008 0
M  V30 36 H 9.781175 5.662419 -20.780206 0
M  V30 37 H 12.807412 5.116608 -18.176037 0
M  V30 38 H 8.721213 8.441071 -7.875964 0
M  V30 39 H 9.201181 7.428903 -6.527413 0
M  V30 40 H 8.176707 6.761847 -7.731821 0
M  V30 41 H 9.831419 4.674967 -10.328864 0
M  V30 42 H 6.893991 4.961968 -12.454185 0
M  V30 43 H 7.002822 6.523435 -11.698083 0
M  V30 44 H 10.740849 5.741505 -7.003846 0
M  V30 45 H 6.150891 4.681699 -15.241634 0
M  V30 46 H 7.662114 3.910817 -14.946205 0
M  V30 47 H 9.560158 6.421809 -12.473238 0
M  V30 48 H 10.865430 9.608815 -9.185017 0
M  V30 49 H 12.008277 8.647275 -10.106557 0
M  V30 50 H 12.575403 9.590226 -8.784993 0
M  V30 51 H 9.751278 3.990218 -15.813543 0
M  V30 52 H 10.936441 6.790216 -10.459522 0
M  V30 53 H 5.719955 7.326805 -18.424894 0
M  V30 54 H 6.975404 7.300930 -17.253858 0
M  V30 55 H 8.800496 5.806377 -14.804688 0
M  V30 56 H 4.557724 5.990213 -16.167920 0
M  V30 57 H 4.133841 7.456699 -16.950007 0
M  V30 58 H 10.848327 9.071175 -6.454068 0
M  V30 59 H 12.575433 8.827132 -6.505395 0
M  V30 60 H 11.535886 7.522303 -5.953550 0
M  V30 61 H 7.771842 7.603018 -13.705262 0
M  V30 62 H 10.312601 4.390366 -12.690507 0
M  V30 63 H 11.959802 4.527066 -16.149154 0
M  V30 64 H 12.390558 7.190226 -8.271245 0
M  V30 65 H 5.439008 7.590221 -13.123408 0
M  V30 66 H 5.126187 6.099522 -13.911990 0
M  V30 67 H 5.489427 4.790229 -18.118483 0
M  V30 68 H 8.493313 8.046143 -10.078731 0
M  V30 69 H 7.408399 6.067308 -9.661957 0
M  V30 70 H 8.270836 4.976304 -8.787936 0
M  V30 71 H 7.759884 6.659282 -15.732701 0
M  V30 72 H 7.473097 4.469412 -10.147475 0
M  V30 END ATOM
M  V30 BEGIN BOND
M  V30 1 2 4 1
M  V30 2 1 5 1
M  V30 3 1 8 5
M  V30 4 1 11 3
M  V30 5 1 12 7
M  V30 6 1 12 9
M  V30 7 1 14 4
M  V30 8 1 15 3
M  V30 9 2 15 14
M  V30 10 1 16 15
M  V30 11 1 17 7
M  V30 12 1 19 11
M  V30 13 1 20 2
M  V30 14 1 20 18
M  V30 15 1 22 9
M  V30 16 1 22 19
M  V30 17 1 23 12
M  V30 18 1 24 6
M  V30 19 1 24 10 CFG=1
M  V30 20 1 24 17
M  V30 21 1 25 14
M  V30 22 1 26 5
M  V30 23 2 26 16
M  V30 24 1 27 13
M  V30 25 1 27 21
M  V30 26 1 27 24
M  V30 27 1 28 2
M  V30 28 1 28 22
M  V30 29 1 29 3
M  V30 30 1 29 18
M  V30 31 1 29 25
M  V30 32 1 30 17
M  V30 33 1 31 7
M  V30 34 1 32 1
M  V30 35 1 33 2
M  V30 36 1 34 2
M  V30 37 1 3 35 CFG=1
M  V30 38 1 36 4
M  V30 39 1 5 37 CFG=3
M  V30 40 1 38 6
M  V30 41 1 39 6
M  V30 42 1 40 6
M  V30 43 1 7 41 CFG=3
M  V30 44 1 42 9
M  V30 45 1 43 9
M  V30 46 1 44 10
M  V30 47 1 45 11
M  V30 48 1 46 11
M  V30 49 1 12 47 CFG=3
M  V30 50 1 48 13
M  V30 51 1 49 13
M  V30 52 1 50 13
M  V30 53 1 51 16
M  V30 54 1 17 52 CFG=3
M  V30 55 1 53 18
M  V30 56 1 54 18
M  V30 57 1 55 19
M  V30 58 1 56 20
M  V30 59 1 57 20
M  V30 60 1 58 21
M  V30 61 1 59 21
M  V30 62 1 60 21
M  V30 63 1 22 61 CFG=1
M  V30 64 1 62 23
M  V30 65 1 63 26
M  V30 66 1 64 27
M  V30 67 1 65 28
M  V30 68 1 66 28
M  V30 69 1 29 67 CFG=3
M  V30 70 1 68 30
M  V30 71 1 69 31
M  V30 72 1 70 31
M  V30 73 1 71 19
M  V30 74 1 72 31
M  V30 END BOND
M  V30 END CTAB
M  END
>  <i_epik_Tot_Q>  (1) 
2

>  <i_epik_Tot_abs_Q>  (1) 
2

>  <i_i_glide_confnum>  (1) 
49

>  <i_i_glide_lignum>  (1) 
65

>  <i_i_glide_posenum>  (1) 
159

>  <i_i_glide_rotatable_bonds>  (1) 
9

>  <i_lp_mmshare_version>  (1) 
72125

>  <i_m_source_file_index>  (1) 
21

>  <i_f3d_flags>  (1) 
0

>  <num_sample>  (1) 
50

>  <b_lp_Chiralities_Consistent>  (1) 
1

>  <r_epik_Charging_Adjusted_Penalty>  (1) 
0.28425092081310654

>  <r_epik_Ionization_Penalty>  (1) 
0.14293687999153612

>  <r_epik_Ionization_Penalty_Charging>  (1) 
0.14293530953308087

>  <r_epik_Ionization_Penalty_Neutral>  (1) 
1.5704584552406844e-06

>  <r_epik_State_Penalty>  (1) 
0.14131561128002565

>  <r_glide_ring_energy>  (1) 
0

>  <r_i_docking_score>  (1) 
-6.5170882923018798

>  <r_i_glide_ecoul>  (1) 
-12.475214249861958

>  <r_i_glide_eff_state_penalty>  (1) 
0.14131561128002565

>  <r_i_glide_einternal>  (1) 
14.481370453741324

>  <r_i_glide_emodel>  (1) 
-51.014285560188405

>  <r_i_glide_emodel_strain>  (1) 
2.2707874295465444

>  <r_i_glide_energy>  (1) 
-39.095704915665976

>  <r_i_glide_erotb>  (1) 
0.38550374204318533

>  <r_i_glide_esite>  (1) 
-0.10000000000000001

>  <r_i_glide_evdw>  (1) 
-26.62049066580402

>  <r_i_glide_gscore>  (1) 
-6.6584039035819051

>  <r_i_glide_gscore_strain>  (1) 
0

>  <r_i_glide_hbond>  (1) 
-0.59100976330964539

>  <r_i_glide_ligand_efficiency>  (1) 
-0.21022865459038323

>  <r_i_glide_ligand_efficiency_ln>  (1) 
-1.4698031346841953

>  <r_i_glide_ligand_efficiency_sa>  (1) 
-0.66040822810850297

>  <r_i_glide_lipo>  (1) 
-2.146569485533496

>  <r_i_glide_metal>  (1) 
-0

>  <r_i_glide_rewards>  (1) 
-1.004021726012454

>  <r_lp_Energy>  (1) 
50.051933999999996

>  <s_epik_cmdline>  (1) 
J2VwaWtfcHl0aG9uJywgJy1waHQnLCAnMS4wJywgJy1waCcsICc3LjQnLCAnLXRuJywgJzgnLCAnLW1hJywgJzUwMCcsICctaW1hZScsICc8aW5maWxlLm1hZT4nLCAnLW9tYWUnLCAnPG91dGZpbGUubWFlPic=

>  <s_epik_input>  (1) 
W0NIXTE9W0NIXVtDQEhdKEYpW0NIXT1bQ0hdQyg9QzFbQ0BASF0yMylTW0NAQEhdM1tDSDJdW0NIMl1bQ0gyXVtDSDJdW0NASF0oW05IXVtDSDJdMilbQ0gyXVtDQEhdKFtPSF0pW0NASF0oW05IMl0pW0NAQEhdKFtPSF0pW0NAQF0oW0NIM10pKFtPSF0pW0NIXShbQ0gzXSlbQ0gzXQ==

>  <s_glide_docking_method>  (1) 
confgen

>  <s_i_glide_gridfile>  (1) 
gpcr_drd2_6luq_protein_autoprepared_prepared

>  <s_lp_Force_Field>  (1) 
S-OPLS

>  <s_lp_Variant>  (1) 
DiffSBDD_20-2

>  <s_m_source_file>  (1) 
generated_generic_title2_ligand_DiffSBDD_2026-06-23_prepared.sdf

>  <GenAI_Model>  (1) 
DiffSBDD

>  <Protein>  (1) 
generic_title2

$$$$
DiffSBDD_15
     RDKit          3D

  0  0  0  0  0  0  0  0  0  0999 V3000
M  V30 BEGIN CTAB
M  V30 COUNTS 46 47 0 0 1
M  V30 BEGIN ATOM
M  V30 1 C 11.551415 8.886621 -5.063994 0
M  V30 2 C 10.644155 7.717103 -10.013340 0
M  V30 3 Cl 10.987392 6.790224 -12.446310 0
M  V30 4 C 12.415204 8.979174 -4.035786 0
M  V30 5 C 11.807124 6.635393 -3.235513 0
M  V30 6 C 10.648561 7.339215 -6.961118 0 CFG=2
M  V30 7 N 7.643234 5.893594 -11.718475 0 CFG=1 CHG=1
M  V30 8 C 10.793175 7.609806 -5.435614 0 CFG=1
M  V30 9 O 5.768772 7.393431 -11.585027 0
M  V30 10 C 9.806003 7.269794 -11.216457 0 CFG=1
M  V30 11 P 7.013428 7.190225 -12.674915 0
M  V30 12 C 8.302120 4.797573 -12.411608 0
M  V30 13 C 9.141015 4.642805 -11.149573 0
M  V30 14 N 9.775411 8.437898 -9.103495 0
M  V30 15 O 9.769981 5.344204 -7.985020 0
M  V30 16 O 5.932509 6.277661 -13.553734 0
M  V30 17 C 10.317331 8.619973 -7.763209 0
M  V30 18 C 12.761883 7.828704 -3.111115 0
M  V30 19 C 9.580295 6.259041 -7.185027 0
M  V30 20 C 8.822892 6.111441 -10.866264 0 CFG=2
M  V30 21 C 11.345488 6.374799 -4.679244 0
M  V30 22 H 11.361152 9.758675 -5.671091 0
M  V30 23 H 11.110939 6.850101 -9.548953 0
M  V30 24 H 11.449895 8.385444 -10.321186 0
M  V30 25 H 12.909834 9.918748 -3.839488 0
M  V30 26 H 12.291482 5.742931 -2.837734 0
M  V30 27 H 10.953222 6.790218 -2.585574 0
M  V30 28 H 11.594297 6.944894 -7.334192 0
M  V30 29 H 9.775414 7.791577 -5.110624 0
M  V30 30 H 6.148110 7.590225 -10.710904 0
M  V30 31 H 9.295732 8.150419 -11.605662 0
M  V30 32 H 7.646131 3.955567 -12.635139 0
M  V30 33 H 8.873125 5.117316 -13.285116 0
M  V30 34 H 8.696265 3.990229 -10.400787 0
M  V30 35 H 10.175414 4.390256 -11.338935 0
M  V30 36 H 8.839654 8.027772 -9.067117 0
M  V30 37 H 5.071492 6.545509 -13.265395 0
M  V30 38 H 11.216924 9.229035 -7.847977 0
M  V30 39 H 9.577669 9.190285 -7.202977 0
M  V30 40 H 13.775384 7.511069 -3.340608 0
M  V30 41 H 12.774836 8.187872 -2.081445 0
M  V30 42 H 8.669305 6.365760 -6.595898 0
M  V30 43 H 8.424249 6.224257 -9.862996 0
M  V30 44 H 10.591624 5.590251 -4.654492 0
M  V30 45 H 12.175404 5.960501 -5.246501 0
M  V30 46 H 6.907392 5.514167 -11.140318 0
M  V30 END ATOM
M  V30 BEGIN BOND
M  V30 1 2 4 1
M  V30 2 1 8 1
M  V30 3 1 8 6
M  V30 4 1 10 2
M  V30 5 1 10 3
M  V30 6 1 11 7
M  V30 7 1 11 9
M  V30 8 1 12 7
M  V30 9 1 13 12
M  V30 10 1 14 2
M  V30 11 1 16 11
M  V30 12 1 17 6
M  V30 13 1 17 14
M  V30 14 1 18 4
M  V30 15 1 18 5
M  V30 16 1 19 6
M  V30 17 2 19 15
M  V30 18 1 20 7
M  V30 19 1 20 10
M  V30 20 1 20 13
M  V30 21 1 21 5
M  V30 22 1 21 8
M  V30 23 1 22 1
M  V30 24 1 23 2
M  V30 25 1 24 2
M  V30 26 1 25 4
M  V30 27 1 26 5
M  V30 28 1 27 5
M  V30 29 1 6 28 CFG=3
M  V30 30 1 8 29 CFG=1
M  V30 31 1 30 9
M  V30 32 1 10 31 CFG=3
M  V30 33 1 32 12
M  V30 34 1 33 12
M  V30 35 1 34 13
M  V30 36 1 35 13
M  V30 37 1 36 14
M  V30 38 1 37 16
M  V30 39 1 38 17
M  V30 40 1 39 17
M  V30 41 1 40 18
M  V30 42 1 41 18
M  V30 43 1 42 19
M  V30 44 1 20 43 CFG=1
M  V30 45 1 44 21
M  V30 46 1 45 21
M  V30 47 1 7 46 CFG=1
M  V30 END BOND
M  V30 END CTAB
M  END
>  <i_epik_Tot_Q>  (1) 
1

>  <i_epik_Tot_abs_Q>  (1) 
1

>  <i_i_glide_confnum>  (1) 
109

>  <i_i_glide_lignum>  (1) 
57

>  <i_i_glide_posenum>  (1) 
154

>  <i_i_glide_rotatable_bonds>  (1) 
10

>  <i_lp_mmshare_version>  (1) 
72125

>  <i_m_source_file_index>  (1) 
16

>  <i_f3d_flags>  (1) 
0

>  <num_sample>  (1) 
50

>  <b_lp_Chiralities_Consistent>  (1) 
1

>  <r_epik_Charging_Adjusted_Penalty>  (1) 
0.56727467886288852

>  <r_epik_Ionization_Penalty>  (1) 
0.44114962020939286

>  <r_epik_Ionization_Penalty_Charging>  (1) 
0.027117031585188044

>  <r_epik_Ionization_Penalty_Neutral>  (1) 
0.41403258862420483

>  <r_epik_State_Penalty>  (1) 
0.54015764727770044

>  <r_glide_ring_energy>  (1) 
0

>  <r_i_docking_score>  (1) 
-6.4666214825275388

>  <r_i_glide_ecoul>  (1) 
-12.273864939793125

>  <r_i_glide_eff_state_penalty>  (1) 
0.54015764727770044

>  <r_i_glide_einternal>  (1) 
21.802422250801889

>  <r_i_glide_emodel>  (1) 
-48.526416417450534

>  <r_i_glide_emodel_strain>  (1) 
2.961861601060118

>  <r_i_glide_energy>  (1) 
-40.821536999524128

>  <r_i_glide_erotb>  (1) 
1.004531890689508

>  <r_i_glide_esite>  (1) 
-0.13888436849254804

>  <r_i_glide_evdw>  (1) 
-28.547672059731006

>  <r_i_glide_gscore>  (1) 
-7.0067791298052393

>  <r_i_glide_gscore_strain>  (1) 
0

>  <r_i_glide_hbond>  (1) 
-0.28554625800584171

>  <r_i_glide_ligand_efficiency>  (1) 
-0.30793435631083516

>  <r_i_glide_ligand_efficiency_ln>  (1) 
-1.5988590945158572

>  <r_i_glide_ligand_efficiency_sa>  (1) 
-0.84956754036432158

>  <r_i_glide_lipo>  (1) 
-2.4341608790050944

>  <r_i_glide_metal>  (1) 
-0

>  <r_i_glide_rewards>  (1) 
-1.8842561710357435

>  <r_lp_Energy>  (1) 
9.1070440000000001

>  <r_lp_tautomer_probability>  (1) 
0.99990000499974985

>  <s_epik_cmdline>  (1) 
J2VwaWtfcHl0aG9uJywgJy1waHQnLCAnMS4wJywgJy1waCcsICc3LjQnLCAnLXRuJywgJzgnLCAnLW1hJywgJzUwMCcsICctaW1hZScsICc8aW5maWxlLm1hZT4nLCAnLW9tYWUnLCAnPG91dGZpbGUubWFlPic=

>  <s_epik_input>  (1) 
W0NIMl0xW0NIMl1bQ0gyXVtDSF09W0NIXVtDQEhdMVtDQEBIXShbQ0hdPU8pW0NIMl1bTkhdW0NIMl1bQ0BASF0oQ2wpW0NAQEhdMltDSDJdW0NIMl1OMlAoW09IXSlbT0hd

>  <s_glide_docking_method>  (1) 
confgen

>  <s_i_glide_gridfile>  (1) 
gpcr_drd2_6luq_protein_autoprepared_prepared

>  <s_lp_Force_Field>  (1) 
S-OPLS

>  <s_lp_Variant>  (1) 
DiffSBDD_15-4

>  <s_m_source_file>  (1) 
generated_generic_title2_ligand_DiffSBDD_2026-06-23_prepared.sdf

>  <GenAI_Model>  (1) 
DiffSBDD

>  <Protein>  (1) 
generic_title2

$$$$
DiffSBDD_29
     RDKit          3D

  0  0  0  0  0  0  0  0  0  0999 V3000
M  V30 BEGIN CTAB
M  V30 COUNTS 70 74 0 0 1
M  V30 BEGIN ATOM
M  V30 1 C 6.236090 4.163864 -13.533469 0 CFG=2
M  V30 2 F 5.116147 7.588679 -20.247156 0
M  V30 3 C 11.702816 8.235442 -7.950048 0
M  V30 4 C 6.575411 6.600131 -16.149438 0
M  V30 5 C 9.324726 5.796052 -9.671133 0 CFG=1
M  V30 6 C 7.054503 3.024079 -14.205747 0
M  V30 7 F 4.099719 4.790191 -20.510498 0
M  V30 8 O 8.175640 5.590228 -7.585033 0
M  V30 9 C 7.529495 4.373947 -16.217382 0
M  V30 10 C 8.052650 4.429163 -17.667242 0 CFG=1
M  V30 11 C 11.303146 8.822995 -9.314584 0
M  V30 12 C 5.978792 4.607974 -19.185049 0
M  V30 13 C 5.484296 6.595307 -22.281690 0
M  V30 14 C 7.649098 3.144378 -15.430424 0
M  V30 15 C 5.795793 6.570387 -20.777222 0 CFG=1
M  V30 16 C 7.305339 6.869599 -20.496951 0
M  V30 17 N 6.531547 5.345593 -14.312112 0
M  V30 18 C 10.590953 7.527338 -7.139001 0
M  V30 19 C 7.274338 5.059726 -18.751403 0
M  V30 20 C 9.375413 7.300645 -9.983282 0
M  V30 21 C 5.287171 5.276890 -20.123835 0
M  V30 22 C 10.757447 7.837499 -10.345704 0
M  V30 23 C 6.601703 4.375879 -12.039565 0
M  V30 24 C 10.483931 6.001030 -7.367368 0
M  V30 25 N 9.444441 5.450630 -8.246809 0
M  V30 26 O 5.669919 6.586459 -14.050797 0
M  V30 27 C 7.853352 6.059589 -19.337283 0
M  V30 28 C 5.878069 7.259097 -15.270982 0
M  V30 29 C 9.172090 4.008857 -12.155919 0
M  V30 30 O 9.074186 6.405547 -18.895337 0
M  V30 31 C 6.912259 5.410627 -15.609524 0
M  V30 32 C 8.018771 4.930417 -11.689940 0 CFG=2
M  V30 33 N 8.084016 5.190227 -10.222455 0 CHG=1
M  V30 34 C 9.308232 5.411551 -17.832702 0
M  V30 35 H 5.175122 3.928924 -13.617719 0
M  V30 36 H 12.064039 9.071001 -7.348518 0
M  V30 37 H 12.570009 7.587981 -8.066252 0
M  V30 38 H 6.821689 6.947799 -17.136302 0
M  V30 39 H 10.175404 5.316852 -10.128345 0
M  V30 40 H 7.144965 2.098968 -13.654354 0
M  V30 41 H 8.012639 4.720020 -7.257402 0
M  V30 42 H 8.323152 3.423453 -17.991501 0
M  V30 43 H 10.549139 9.590216 -9.185006 0
M  V30 44 H 12.170746 9.329294 -9.740015 0
M  V30 45 H 5.559510 3.708708 -18.759705 0
M  V30 46 H 5.981229 5.775264 -22.800413 0
M  V30 47 H 4.413901 6.503698 -22.468076 0
M  V30 48 H 5.816399 7.528878 -22.737023 0
M  V30 49 H 8.194640 2.305489 -15.836302 0
M  V30 50 H 7.469147 7.933099 -20.320749 0
M  V30 51 H 7.904681 6.606377 -21.369409 0
M  V30 52 H 9.630350 8.039337 -7.178436 0
M  V30 53 H 10.884505 7.639861 -6.094722 0
M  V30 54 H 8.975410 7.884002 -9.165427 0
M  V30 55 H 8.715136 7.530812 -10.819836 0
M  V30 56 H 10.599199 8.390181 -11.266152 0
M  V30 57 H 11.481772 7.059434 -10.572816 0
M  V30 58 H 6.429726 3.439620 -11.512009 0
M  V30 59 H 5.864823 5.069716 -11.630131 0
M  V30 60 H 10.294512 5.590228 -6.379365 0
M  V30 61 H 11.441743 5.590227 -7.650213 0
M  V30 62 H 5.431050 8.239488 -15.344580 0
M  V30 63 H 9.200866 3.929595 -13.238049 0
M  V30 64 H 10.162280 4.388895 -11.916563 0
M  V30 65 H 9.087300 3.003828 -11.742255 0
M  V30 66 H 8.135511 5.887952 -12.196592 0
M  V30 67 H 7.928999 4.322033 -9.735239 0
M  V30 68 H 9.525797 5.939351 -16.903998 0
M  V30 69 H 10.202803 4.838644 -18.077609 0
M  V30 70 H 7.346019 5.837641 -9.960663 0
M  V30 END ATOM
M  V30 BEGIN BOND
M  V30 1 1 6 1
M  V30 2 1 10 9
M  V30 3 1 11 3
M  V30 4 2 14 6
M  V30 5 1 14 9
M  V30 6 1 15 2 CFG=1
M  V30 7 1 15 13
M  V30 8 1 16 15
M  V30 9 1 17 1
M  V30 10 1 18 3
M  V30 11 1 19 10
M  V30 12 1 19 12
M  V30 13 1 20 5
M  V30 14 1 21 7
M  V30 15 2 21 12
M  V30 16 1 21 15
M  V30 17 1 22 11
M  V30 18 1 22 20
M  V30 19 1 23 1
M  V30 20 1 24 18
M  V30 21 1 25 5
M  V30 22 1 25 8
M  V30 23 1 25 24
M  V30 24 1 26 17
M  V30 25 1 27 16
M  V30 26 2 27 19
M  V30 27 2 28 4
M  V30 28 1 28 26
M  V30 29 1 30 27
M  V30 30 1 31 4
M  V30 31 2 31 9
M  V30 32 1 31 17
M  V30 33 1 32 23
M  V30 34 1 32 29
M  V30 35 1 33 5
M  V30 36 1 33 32
M  V30 37 1 34 10
M  V30 38 1 34 30
M  V30 39 1 1 35 CFG=1
M  V30 40 1 36 3
M  V30 41 1 37 3
M  V30 42 1 38 4
M  V30 43 1 5 39 CFG=3
M  V30 44 1 40 6
M  V30 45 1 41 8
M  V30 46 1 10 42 CFG=3
M  V30 47 1 43 11
M  V30 48 1 44 11
M  V30 49 1 45 12
M  V30 50 1 46 13
M  V30 51 1 47 13
M  V30 52 1 48 13
M  V30 53 1 49 14
M  V30 54 1 50 16
M  V30 55 1 51 16
M  V30 56 1 52 18
M  V30 57 1 53 18
M  V30 58 1 54 20
M  V30 59 1 55 20
M  V30 60 1 56 22
M  V30 61 1 57 22
M  V30 62 1 58 23
M  V30 63 1 59 23
M  V30 64 1 60 24
M  V30 65 1 61 24
M  V30 66 1 62 28
M  V30 67 1 63 29
M  V30 68 1 64 29
M  V30 69 1 65 29
M  V30 70 1 32 66 CFG=3
M  V30 71 1 67 33
M  V30 72 1 68 34
M  V30 73 1 69 34
M  V30 74 1 70 33
M  V30 END BOND
M  V30 END CTAB
M  END
>  <i_epik_Tot_Q>  (1) 
1

>  <i_epik_Tot_abs_Q>  (1) 
1

>  <i_i_glide_confnum>  (1) 
523

>  <i_i_glide_lignum>  (1) 
88

>  <i_i_glide_posenum>  (1) 
328

>  <i_i_glide_rotatable_bonds>  (1) 
6

>  <i_lp_mmshare_version>  (1) 
72125

>  <i_m_source_file_index>  (1) 
30

>  <i_f3d_flags>  (1) 
0

>  <num_sample>  (1) 
50

>  <b_lp_Chiralities_Consistent>  (1) 
1

>  <r_epik_Charging_Adjusted_Penalty>  (1) 
0.00017158895476856407

>  <r_epik_Ionization_Penalty>  (1) 
0.00032717489199656771

>  <r_epik_Ionization_Penalty_Charging>  (1) 
0.00017158895476856407

>  <r_epik_Ionization_Penalty_Neutral>  (1) 
0.00015558593722800364

>  <r_epik_State_Penalty>  (1) 
-0

>  <r_glide_ring_energy>  (1) 
1.0653378389275028

>  <r_i_docking_score>  (1) 
-6.4602754177643487

>  <r_i_glide_ecoul>  (1) 
-3.031101678735864

>  <r_i_glide_eff_state_penalty>  (1) 
-0

>  <r_i_glide_einternal>  (1) 
13.617657677132641

>  <r_i_glide_emodel>  (1) 
-39.153967702861742

>  <r_i_glide_emodel_strain>  (1) 
2.9369587625840552

>  <r_i_glide_energy>  (1) 
-35.467126692639347

>  <r_i_glide_erotb>  (1) 
0.44578028893005395

>  <r_i_glide_esite>  (1) 
-0.27114915053927879

>  <r_i_glide_evdw>  (1) 
-32.436025013903482

>  <r_i_glide_gscore>  (1) 
-6.4602754177643487

>  <r_i_glide_gscore_strain>  (1) 
0

>  <r_i_glide_hbond>  (1) 
-0.14517862575916771

>  <r_i_glide_ligand_efficiency>  (1) 
-0.19000810052248085

>  <r_i_glide_ligand_efficiency_ln>  (1) 
-1.4272560443718045

>  <r_i_glide_ligand_efficiency_sa>  (1) 
-0.61555248479094737

>  <r_i_glide_lipo>  (1) 
-2.7235301423750151

>  <r_i_glide_metal>  (1) 
-0

>  <r_i_glide_rewards>  (1) 
-1.6897312855153874

>  <r_lp_Energy>  (1) 
36.679803

>  <r_lp_tautomer_probability>  (1) 
1

>  <s_epik_Chemistry_Notes>  (1) 
This compound contains an acetal/aminal-like group ( X-CH(R)-Y where X, Y are N, S, or O) that may be acid/base labile, releasing an aldehyde. This compound has a N-S or N-O group and may undergo hydrolysis at high or low pH.

>  <s_epik_cmdline>  (1) 
J2VwaWtfcHl0aG9uJywgJy1waHQnLCAnMS4wJywgJy1waCcsICc3LjQnLCAnLXRuJywgJzgnLCAnLW1hJywgJzUwMCcsICctaW1hZScsICc8aW5maWxlLm1hZT4nLCAnLW9tYWUnLCAnPG91dGZpbGUubWFlPic=

>  <s_epik_input>  (1) 
RkMoPVtDSF0xKVtDQF0oRikoW0NIM10pW0NIMl1DKD1DMTIpT1tDSDJdW0NASF0yQyg9QyhOMzQpW0NIXT1bQ0hdTzQpW0NIXT1bQ0hdW0NASF0zW0NIMl1bQ0BIXShbQ0gzXSlbTkhdW0NASF01W0NIMl1bQ0gyXVtDSDJdW0NIMl1bQ0gyXVtDSDJdTjVbT0hd

>  <s_glide_docking_method>  (1) 
confgen

>  <s_i_glide_gridfile>  (1) 
gpcr_drd2_6luq_protein_autoprepared_prepared

>  <s_lp_Force_Field>  (1) 
S-OPLS

>  <s_lp_Variant>  (1) 
DiffSBDD_29-1

>  <s_m_source_file>  (1) 
generated_generic_title2_ligand_DiffSBDD_2026-06-23_prepared.sdf

>  <GenAI_Model>  (1) 
DiffSBDD

>  <Protein>  (1) 
generic_title2

$$$$
DiffSBDD_15
     RDKit          3D

  0  0  0  0  0  0  0  0  0  0999 V3000
M  V30 BEGIN CTAB
M  V30 COUNTS 47 48 0 0 1
M  V30 BEGIN ATOM
M  V30 1 C 11.375538 9.068167 -5.000438 0
M  V30 2 C 8.969185 5.599272 -9.775784 0
M  V30 3 Cl 9.999286 6.743472 -11.985032 0
M  V30 4 C 12.255625 9.061525 -3.984975 0
M  V30 5 C 11.784519 6.609978 -3.534036 0
M  V30 6 C 10.566320 7.852683 -7.110737 0 CFG=2
M  V30 7 N 7.552651 4.961187 -13.369945 0 CFG=1 CHG=1
M  V30 8 C 10.717832 7.812259 -5.565890 0 CFG=1
M  V30 9 O 5.775421 6.581135 -12.842699 0
M  V30 10 C 8.583439 5.959953 -11.219379 0 CFG=1
M  V30 11 P 7.090003 6.564886 -13.868691 0
M  V30 12 C 8.761921 4.411462 -13.974695 0
M  V30 13 C 9.056559 3.733795 -12.638275 0
M  V30 14 N 9.375412 6.815132 -9.046991 0 CHG=1
M  V30 15 O 11.966803 7.990277 -9.072121 0
M  V30 16 O 6.140855 5.989975 -15.114122 0
M  V30 17 C 9.833791 6.605240 -7.660937 0
M  V30 18 C 12.707889 7.807204 -3.266385 0
M  V30 19 C 11.888778 8.124830 -7.851057 0
M  V30 20 C 8.081736 4.731204 -12.011644 0 CFG=2
M  V30 21 C 11.342678 6.507783 -5.007212 0
M  V30 22 H 11.101624 10.007192 -5.459655 0
M  V30 23 H 8.121349 5.143903 -9.261007 0
M  V30 24 H 9.775496 4.866521 -9.772533 0
M  V30 25 H 12.682574 9.990210 -3.643857 0
M  V30 26 H 12.260224 5.685076 -3.210142 0
M  V30 27 H 10.918773 6.697285 -2.888013 0
M  V30 28 H 9.935802 8.715329 -7.329904 0
M  V30 29 H 9.705338 7.848926 -5.185042 0
M  V30 30 H 5.511640 7.476513 -12.684414 0
M  V30 31 H 7.802515 6.719703 -11.182390 0
M  V30 32 H 8.558372 3.728032 -14.799361 0
M  V30 33 H 9.499607 5.167355 -14.249819 0
M  V30 34 H 8.707686 2.699946 -12.591460 0
M  V30 35 H 10.092750 3.826110 -12.311922 0
M  V30 36 H 10.111388 7.278440 -9.565786 0
M  V30 37 H 5.826259 6.724693 -15.620034 0
M  V30 38 H 8.964174 6.365352 -7.046387 0
M  V30 39 H 10.498979 5.740572 -7.625692 0
M  V30 40 H 13.724607 7.589793 -3.584999 0
M  V30 41 H 12.751946 8.005008 -2.194754 0
M  V30 42 H 12.724694 8.439060 -7.226950 0
M  V30 43 H 7.308792 4.201494 -11.452647 0
M  V30 44 H 10.609418 5.707858 -5.081619 0
M  V30 45 H 12.175396 6.187809 -5.627083 0
M  V30 46 H 6.784492 4.328680 -13.540488 0
M  V30 47 H 8.536213 7.408192 -9.040514 0
M  V30 END ATOM
M  V30 BEGIN BOND
M  V30 1 2 4 1
M  V30 2 1 8 1
M  V30 3 1 8 6
M  V30 4 1 10 2
M  V30 5 1 10 3
M  V30 6 1 11 7
M  V30 7 1 11 9
M  V30 8 1 12 7
M  V30 9 1 13 12
M  V30 10 1 14 2
M  V30 11 1 16 11
M  V30 12 1 17 6
M  V30 13 1 17 14
M  V30 14 1 18 4
M  V30 15 1 18 5
M  V30 16 1 19 6
M  V30 17 2 19 15
M  V30 18 1 20 7
M  V30 19 1 20 10
M  V30 20 1 20 13
M  V30 21 1 21 5
M  V30 22 1 21 8
M  V30 23 1 22 1
M  V30 24 1 23 2
M  V30 25 1 24 2
M  V30 26 1 25 4
M  V30 27 1 26 5
M  V30 28 1 27 5
M  V30 29 1 6 28 CFG=1
M  V30 30 1 8 29 CFG=1
M  V30 31 1 30 9
M  V30 32 1 10 31 CFG=1
M  V30 33 1 32 12
M  V30 34 1 33 12
M  V30 35 1 34 13
M  V30 36 1 35 13
M  V30 37 1 36 14
M  V30 38 1 37 16
M  V30 39 1 38 17
M  V30 40 1 39 17
M  V30 41 1 40 18
M  V30 42 1 41 18
M  V30 43 1 42 19
M  V30 44 1 20 43 CFG=1
M  V30 45 1 44 21
M  V30 46 1 45 21
M  V30 47 1 7 46 CFG=1
M  V30 48 1 47 14
M  V30 END BOND
M  V30 END CTAB
M  END
>  <i_epik_Tot_Q>  (1) 
2

>  <i_epik_Tot_abs_Q>  (1) 
2

>  <i_i_glide_confnum>  (1) 
5

>  <i_i_glide_lignum>  (1) 
55

>  <i_i_glide_posenum>  (1) 
17

>  <i_i_glide_rotatable_bonds>  (1) 
10

>  <i_lp_mmshare_version>  (1) 
72125

>  <i_m_source_file_index>  (1) 
16

>  <i_f3d_flags>  (1) 
0

>  <num_sample>  (1) 
50

>  <b_lp_Chiralities_Consistent>  (1) 
1

>  <r_epik_Charging_Adjusted_Penalty>  (1) 
0.82033889234892232

>  <r_epik_Ionization_Penalty>  (1) 
0.44833786363099537

>  <r_epik_Ionization_Penalty_Charging>  (1) 
0.44828572222584073

>  <r_epik_Ionization_Penalty_Neutral>  (1) 
5.214140515465987e-05

>  <r_epik_State_Penalty>  (1) 
0.37205317012308153

>  <r_glide_ring_energy>  (1) 
0

>  <r_i_docking_score>  (1) 
-6.4470322149872921

>  <r_i_glide_ecoul>  (1) 
-8.370586175917218

>  <r_i_glide_eff_state_penalty>  (1) 
0.37205317012308153

>  <r_i_glide_einternal>  (1) 
15.488768191031653

>  <r_i_glide_emodel>  (1) 
-60.659304119719835

>  <r_i_glide_emodel_strain>  (1) 
0.12104543329705919

>  <r_i_glide_energy>  (1) 
-42.41983020023558

>  <r_i_glide_erotb>  (1) 
0.99921442309273578

>  <r_i_glide_esite>  (1) 
-0.10000000000000001

>  <r_i_glide_evdw>  (1) 
-34.049244024318362

>  <r_i_glide_gscore>  (1) 
-6.8190853851103732

>  <r_i_glide_gscore_strain>  (1) 
0

>  <r_i_glide_hbond>  (1) 
-0.20000000000000001

>  <r_i_glide_ligand_efficiency>  (1) 
-0.30700153404701391

>  <r_i_glide_ligand_efficiency_ln>  (1) 
-1.5940156877003735

>  <r_i_glide_ligand_efficiency_sa>  (1) 
-0.84699395446839854

>  <r_i_glide_lipo>  (1) 
-2.2667710880670935

>  <r_i_glide_metal>  (1) 
-0

>  <r_i_glide_rewards>  (1) 
-2.2934785925325141

>  <r_lp_Energy>  (1) 
21.773961

>  <r_lp_tautomer_probability>  (1) 
0.99990000499974985

>  <s_epik_cmdline>  (1) 
J2VwaWtfcHl0aG9uJywgJy1waHQnLCAnMS4wJywgJy1waCcsICc3LjQnLCAnLXRuJywgJzgnLCAnLW1hJywgJzUwMCcsICctaW1hZScsICc8aW5maWxlLm1hZT4nLCAnLW9tYWUnLCAnPG91dGZpbGUubWFlPic=

>  <s_epik_input>  (1) 
W0NIMl0xW0NIMl1bQ0gyXVtDSF09W0NIXVtDQEhdMVtDQEBIXShbQ0hdPU8pW0NIMl1bTkhdW0NIMl1bQ0BASF0oQ2wpW0NAQEhdMltDSDJdW0NIMl1OMlAoW09IXSlbT0hd

>  <s_glide_docking_method>  (1) 
confgen

>  <s_i_glide_gridfile>  (1) 
gpcr_drd2_6luq_protein_autoprepared_prepared

>  <s_lp_Force_Field>  (1) 
S-OPLS

>  <s_lp_Variant>  (1) 
DiffSBDD_15-2

>  <s_m_source_file>  (1) 
generated_generic_title2_ligand_DiffSBDD_2026-06-23_prepared.sdf

>  <GenAI_Model>  (1) 
DiffSBDD

>  <Protein>  (1) 
generic_title2

$$$$
DiffSBDD_4
     RDKit          3D

  0  0  0  0  0  0  0  0  0  0999 V3000
M  V30 BEGIN CTAB
M  V30 COUNTS 69 73 0 0 1
M  V30 BEGIN ATOM
M  V30 1 O 13.179562 8.789998 -10.689373 0
M  V30 2 C 5.437157 1.375909 -13.586173 0
M  V30 3 C 6.069089 6.028826 -12.914377 0
M  V30 4 C 10.524664 8.040881 -8.445991 0
M  V30 5 C 8.414636 7.931139 -11.849625 0
M  V30 6 C 7.570727 5.972047 -13.281568 0 CFG=2
M  V30 7 C 5.509773 4.592739 -12.983518 0
M  V30 8 C 12.085448 9.189443 -6.388007 0
M  V30 9 C 8.799112 5.015709 -7.765531 0
M  V30 10 C 11.932692 8.215144 -8.625218 0
M  V30 11 O 8.602829 -1.150785 -16.385051 0
M  V30 12 F 7.911803 1.077711 -16.967685 0
M  V30 13 C 9.926044 5.037170 -8.799075 0
M  V30 14 C 6.578988 3.712967 -13.608258 0 CFG=2
M  V30 15 C 8.106861 0.506999 -14.000310 0
M  V30 16 C 5.777128 0.785643 -14.972861 0 CFG=2
M  V30 17 C 7.122044 4.021009 -14.985039 0
M  V30 18 C 9.715647 5.997864 -9.983961 0 CFG=1
M  V30 19 C 6.570949 2.277168 -13.058876 0 CFG=2
M  V30 20 C 8.528216 5.594743 -10.882521 0
M  V30 21 C 9.929343 8.429250 -7.220710 0
M  V30 22 C 9.629268 7.460853 -9.558123 0 CFG=2
M  V30 23 C 9.379607 8.418341 -10.739203 0
M  V30 24 C 12.697934 8.790240 -7.590350 0
M  V30 25 F 4.773147 0.010093 -15.391304 0
M  V30 26 N 7.530314 -0.180130 -16.348904 0
M  V30 27 C 7.891749 1.544589 -13.177244 0
M  V30 28 C 10.708188 8.999652 -6.200830 0
M  V30 29 C 7.061458 -0.058826 -14.958428 0 CFG=1
M  V30 30 C 7.822705 4.555674 -13.758244 0 CFG=1
M  V30 31 C 12.633532 7.777965 -9.902746 0
M  V30 32 C 8.559033 6.433107 -12.180331 0 CFG=2
M  V30 33 H 13.670644 9.405354 -10.150436 0
M  V30 34 H 4.485216 1.904310 -13.585005 0
M  V30 35 H 5.296462 0.546649 -12.890944 0
M  V30 36 H 5.545382 6.664868 -13.629622 0
M  V30 37 H 5.890578 6.460159 -11.928049 0
M  V30 38 H 7.385966 8.159915 -11.582946 0
M  V30 39 H 8.580519 8.523157 -12.748624 0
M  V30 40 H 7.731601 6.622913 -14.142926 0
M  V30 41 H 5.279908 4.251341 -11.975179 0
M  V30 42 H 4.592041 4.535025 -13.567646 0
M  V30 43 H 12.678168 9.630447 -5.600489 0
M  V30 44 H 9.232657 5.192112 -6.785800 0
M  V30 45 H 8.276958 4.059753 -7.766195 0
M  V30 46 H 8.055636 5.795076 -7.883468 0
M  V30 47 H 8.170300 -1.946720 -16.081636 0
M  V30 48 H 10.841543 5.312650 -8.278974 0
M  V30 49 H 10.084011 4.023000 -9.165804 0
M  V30 50 H 9.063171 0.022182 -13.984658 0
M  V30 51 H 5.897685 1.572385 -15.715156 0
M  V30 52 H 7.621211 3.226387 -15.533955 0
M  V30 53 H 6.567972 4.725593 -15.602813 0
M  V30 54 H 10.544434 5.989744 -10.663245 0
M  V30 55 H 6.397474 2.363341 -11.989014 0
M  V30 56 H 8.589526 4.533144 -11.119065 0
M  V30 57 H 7.583440 5.740067 -10.358518 0
M  V30 58 H 8.865327 8.296718 -7.068890 0
M  V30 59 H 8.732107 7.402178 -8.984294 0
M  V30 60 H 8.965007 9.326355 -10.311475 0
M  V30 61 H 10.328979 8.707314 -11.185428 0
M  V30 62 H 13.765928 8.927206 -7.721911 0
M  V30 63 H 8.686201 1.880853 -12.526939 0
M  V30 64 H 10.244203 9.297884 -5.273793 0
M  V30 65 H 6.780161 -1.032043 -14.565404 0
M  V30 66 H 8.794551 4.127271 -13.519327 0
M  V30 67 H 13.487498 7.190250 -9.584968 0
M  V30 68 H 12.063958 7.188486 -10.588826 0
M  V30 69 H 9.551792 6.316731 -12.619488 0
M  V30 END ATOM
M  V30 BEGIN BOND
M  V30 1 1 6 3
M  V30 2 1 7 3
M  V30 3 1 10 4
M  V30 4 1 13 9
M  V30 5 1 14 7 CFG=3
M  V30 6 1 16 2
M  V30 7 1 17 14
M  V30 8 1 18 13
M  V30 9 1 19 2
M  V30 10 1 19 14
M  V30 11 1 20 18
M  V30 12 2 21 4
M  V30 13 1 22 4
M  V30 14 1 22 18
M  V30 15 1 23 5
M  V30 16 1 23 22
M  V30 17 1 24 8
M  V30 18 2 24 10
M  V30 19 1 25 16
M  V30 20 1 26 11
M  V30 21 1 26 12
M  V30 22 2 27 15
M  V30 23 1 27 19
M  V30 24 2 28 8
M  V30 25 1 28 21
M  V30 26 1 29 15
M  V30 27 1 29 16
M  V30 28 1 29 26
M  V30 29 1 30 6
M  V30 30 1 30 14
M  V30 31 1 30 17
M  V30 32 1 31 1
M  V30 33 1 31 10
M  V30 34 1 32 5
M  V30 35 1 32 6
M  V30 36 1 32 20
M  V30 37 1 33 1
M  V30 38 1 34 2
M  V30 39 1 35 2
M  V30 40 1 36 3
M  V30 41 1 37 3
M  V30 42 1 38 5
M  V30 43 1 39 5
M  V30 44 1 6 40 CFG=3
M  V30 45 1 41 7
M  V30 46 1 42 7
M  V30 47 1 43 8
M  V30 48 1 44 9
M  V30 49 1 45 9
M  V30 50 1 46 9
M  V30 51 1 47 11
M  V30 52 1 48 13
M  V30 53 1 49 13
M  V30 54 1 50 15
M  V30 55 1 16 51 CFG=3
M  V30 56 1 52 17
M  V30 57 1 53 17
M  V30 58 1 18 54 CFG=3
M  V30 59 1 19 55 CFG=1
M  V30 60 1 56 20
M  V30 61 1 57 20
M  V30 62 1 58 21
M  V30 63 1 22 59 CFG=1
M  V30 64 1 60 23
M  V30 65 1 61 23
M  V30 66 1 62 24
M  V30 67 1 63 27
M  V30 68 1 64 28
M  V30 69 1 29 65 CFG=1
M  V30 70 1 30 66 CFG=1
M  V30 71 1 67 31
M  V30 72 1 68 31
M  V30 73 1 32 69 CFG=3
M  V30 END BOND
M  V30 END CTAB
M  END
>  <i_epik_Tot_Q>  (1) 
0

>  <i_epik_Tot_abs_Q>  (1) 
0

>  <i_i_glide_confnum>  (1) 
193

>  <i_i_glide_lignum>  (1) 
27

>  <i_i_glide_posenum>  (1) 
393

>  <i_i_glide_rotatable_bonds>  (1) 
8

>  <i_lp_mmshare_version>  (1) 
72125

>  <i_m_source_file_index>  (1) 
5

>  <i_f3d_flags>  (1) 
0

>  <num_sample>  (1) 
50

>  <b_lp_Chiralities_Consistent>  (1) 
1

>  <r_epik_Charging_Adjusted_Penalty>  (1) 
0

>  <r_epik_Ionization_Penalty>  (1) 
0.0023293269725234308

>  <r_epik_Ionization_Penalty_Charging>  (1) 
0

>  <r_epik_Ionization_Penalty_Neutral>  (1) 
0.0023293269725234308

>  <r_epik_State_Penalty>  (1) 
-0

>  <r_glide_ring_energy>  (1) 
0

>  <r_i_docking_score>  (1) 
-6.4437126155548823

>  <r_i_glide_ecoul>  (1) 
-11.89365685327123

>  <r_i_glide_eff_state_penalty>  (1) 
-0

>  <r_i_glide_einternal>  (1) 
16.992767388505076

>  <r_i_glide_emodel>  (1) 
-21.311673177057578

>  <r_i_glide_emodel_strain>  (1) 
3.6010210689016731

>  <r_i_glide_energy>  (1) 
-25.671382393035618

>  <r_i_glide_erotb>  (1) 
0.50387134536734435

>  <r_i_glide_esite>  (1) 
-0.083780449713925079

>  <r_i_glide_evdw>  (1) 
-13.777725539764388

>  <r_i_glide_gscore>  (1) 
-6.4437126155548823

>  <r_i_glide_gscore_strain>  (1) 
0

>  <r_i_glide_hbond>  (1) 
-0.60799999999999998

>  <r_i_glide_ligand_efficiency>  (1) 
-0.20136601923609007

>  <r_i_glide_ligand_efficiency_ln>  (1) 
-1.4429229035947002

>  <r_i_glide_ligand_efficiency_sa>  (1) 
-0.63929726153203625

>  <r_i_glide_lipo>  (1) 
-2.4225384352120543

>  <r_i_glide_metal>  (1) 
-0

>  <r_i_glide_rewards>  (1) 
-1.3603302710173439

>  <r_lp_Energy>  (1) 
42.803042999999995

>  <r_lp_tautomer_probability>  (1) 
1

>  <s_epik_Chemistry_Notes>  (1) 
This compound has a N-S or N-O group and may undergo hydrolysis at high or low pH.

>  <s_epik_cmdline>  (1) 
J2VwaWtfcHl0aG9uJywgJy1waHQnLCAnMS4wJywgJy1waCcsICc3LjQnLCAnLXRuJywgJzgnLCAnLW1hJywgJzUwMCcsICctaW1hZScsICc8aW5maWxlLm1hZT4nLCAnLW9tYWUnLCAnPG91dGZpbGUubWFlPic=

>  <s_epik_input>  (1) 
W2NIXTFbY0hdW2NIXVtjSF1jKFtDSDJdW09IXSljMVtDQEhdMltDSDJdW0NIMl1bQ0BASF0oW0NIMl1bQ0BASF0yW0NIMl1bQ0gzXSlbQ0BIXShbQ0gyXVtDSDJdMylbQ0hdKFtDSDJdNClbQ0BdMzRbQ0BIXShbQ0gyXVtDQEBIXTVGKVtDSF09W0NIXVtDQEBIXTVOKEYpW09IXQ==

>  <s_glide_docking_method>  (1) 
confgen

>  <s_i_glide_gridfile>  (1) 
gpcr_drd2_6luq_protein_autoprepared_prepared

>  <s_lp_Force_Field>  (1) 
S-OPLS

>  <s_lp_Variant>  (1) 
DiffSBDD_4-1

>  <s_m_source_file>  (1) 
generated_generic_title2_ligand_DiffSBDD_2026-06-23_prepared.sdf

>  <GenAI_Model>  (1) 
DiffSBDD

>  <Protein>  (1) 
generic_title2

$$$$
DiffSBDD_32
     RDKit          3D

  0  0  0  0  0  0  0  0  0  0999 V3000
M  V30 BEGIN CTAB
M  V30 COUNTS 69 71 0 0 1
M  V30 BEGIN ATOM
M  V30 1 C 11.129738 8.699227 -6.533926 0
M  V30 2 C 11.029945 6.278476 -3.577224 0
M  V30 3 N 12.746038 8.415422 -2.649453 0
M  V30 4 C 9.822806 6.987700 -10.987109 0
M  V30 5 C 8.437731 -0.017921 -14.035867 0
M  V30 6 O 10.019059 6.563146 -6.227113 0
M  V30 7 O 5.326433 0.732150 -13.590367 0
M  V30 8 C 8.533194 5.191908 -9.163880 0
M  V30 9 C 7.417215 6.129804 -13.616987 0 CFG=2
M  V30 10 C 6.369850 7.117547 -14.110163 0
M  V30 11 C 6.814136 4.764522 -13.947195 0
M  V30 12 C 9.617333 6.135851 -8.611686 0 CFG=1
M  V30 13 C 10.090537 7.118154 -9.677516 0
M  V30 14 C 12.678712 7.128382 -1.986756 0
M  V30 15 C 9.120040 6.803703 -7.308002 0
M  V30 16 C 11.957216 9.704979 -6.026683 0
M  V30 17 C 7.182808 2.137931 -15.487926 0
M  V30 18 C 5.849424 2.006974 -13.276499 0
M  V30 19 C 9.018898 5.842028 -11.578629 0 CFG=1
M  V30 20 C 10.833985 7.566141 -5.747007 0
M  V30 21 N 7.709404 3.645374 -13.603607 0 CHG=1
M  V30 22 C 12.496726 9.590255 -4.738478 0
M  V30 23 C 8.250406 1.309305 -13.307621 0
M  V30 24 C 8.861936 4.680500 -10.570811 0
M  V30 25 C 11.375255 7.463473 -4.443860 0
M  V30 26 C 7.229635 2.280050 -13.939449 0 CFG=2
M  V30 27 O 5.375603 7.290158 -13.379375 0 CHG=-1
M  V30 28 O 6.574867 7.664341 -15.212593 0
M  V30 29 C 11.301728 6.516609 -2.082404 0
M  V30 30 C 7.661384 6.358290 -12.103234 0
M  V30 31 C 12.208095 8.485940 -3.942905 0
M  V30 32 H 10.722594 8.802766 -7.518931 0
M  V30 33 H 9.994043 5.989733 -3.747178 0
M  V30 34 H 11.683209 5.502832 -3.948987 0
M  V30 35 H 13.428932 9.095981 -2.345437 0
M  V30 36 H 10.192829 7.726640 -11.681892 0
M  V30 37 H 9.329015 -0.493075 -13.621929 0
M  V30 38 H 7.579085 -0.688031 -13.960910 0
M  V30 39 H 8.577179 0.090029 -15.106853 0
M  V30 40 H 5.865154 0.053473 -13.208997 0
M  V30 41 H 8.397836 4.382386 -8.458449 0
M  V30 42 H 7.566135 5.689403 -9.201400 0
M  V30 43 H 8.334552 6.297718 -14.182621 0
M  V30 44 H 6.597113 4.742723 -15.014020 0
M  V30 45 H 5.863906 4.665705 -13.423284 0
M  V30 46 H 10.490950 5.529149 -8.369510 0
M  V30 47 H 10.674317 7.955642 -9.343434 0
M  V30 48 H 12.993601 7.277410 -0.958656 0
M  V30 49 H 13.378266 6.431662 -2.438543 0
M  V30 50 H 8.830138 7.846825 -7.442717 0
M  V30 51 H 8.202328 6.313420 -6.980496 0
M  V30 52 H 12.175269 10.571946 -6.626417 0
M  V30 53 H 6.759995 1.181342 -15.798579 0
M  V30 54 H 6.575326 2.883297 -15.984619 0
M  V30 55 H 8.177764 2.216912 -15.928668 0
M  V30 56 H 5.095937 2.724293 -13.583963 0
M  V30 57 H 5.921752 2.104322 -12.193383 0
M  V30 58 H 9.606010 5.471351 -12.417665 0
M  V30 59 H 7.873264 3.690223 -12.608488 0
M  V30 60 H 13.128550 10.364244 -4.353977 0
M  V30 61 H 9.224513 1.781468 -13.184973 0
M  V30 62 H 7.957365 1.075579 -12.290534 0
M  V30 63 H 8.086754 3.990578 -10.894494 0
M  V30 64 H 9.778267 4.093510 -10.530597 0
M  V30 65 H 10.574205 7.166714 -1.596542 0
M  V30 66 H 11.267796 5.590639 -1.521385 0
M  V30 67 H 7.593031 7.427895 -11.886896 0
M  V30 68 H 6.842235 5.927165 -11.524748 0
M  V30 69 H 8.591755 3.794980 -14.073867 0
M  V30 END ATOM
M  V30 BEGIN BOND
M  V30 1 1 10 9
M  V30 2 1 11 9
M  V30 3 1 12 8
M  V30 4 2 13 4
M  V30 5 1 13 12
M  V30 6 1 14 3
M  V30 7 1 15 6
M  V30 8 1 15 12
M  V30 9 1 16 1
M  V30 10 1 18 7
M  V30 11 1 19 4
M  V30 12 2 20 1
M  V30 13 1 20 6
M  V30 14 1 21 11
M  V30 15 2 22 16
M  V30 16 1 23 5
M  V30 17 1 24 8
M  V30 18 1 24 19
M  V30 19 1 25 2
M  V30 20 1 25 20
M  V30 21 1 26 17 CFG=3
M  V30 22 1 26 18
M  V30 23 1 26 21
M  V30 24 1 26 23
M  V30 25 1 27 10
M  V30 26 2 28 10
M  V30 27 1 29 2
M  V30 28 1 29 14
M  V30 29 1 30 9
M  V30 30 1 30 19
M  V30 31 1 31 3
M  V30 32 1 31 22
M  V30 33 2 31 25
M  V30 34 1 32 1
M  V30 35 1 33 2
M  V30 36 1 34 2
M  V30 37 1 35 3
M  V30 38 1 36 4
M  V30 39 1 37 5
M  V30 40 1 38 5
M  V30 41 1 39 5
M  V30 42 1 40 7
M  V30 43 1 41 8
M  V30 44 1 42 8
M  V30 45 1 9 43 CFG=3
M  V30 46 1 44 11
M  V30 47 1 45 11
M  V30 48 1 12 46 CFG=1
M  V30 49 1 47 13
M  V30 50 1 48 14
M  V30 51 1 49 14
M  V30 52 1 50 15
M  V30 53 1 51 15
M  V30 54 1 52 16
M  V30 55 1 53 17
M  V30 56 1 54 17
M  V30 57 1 55 17
M  V30 58 1 56 18
M  V30 59 1 57 18
M  V30 60 1 19 58 CFG=3
M  V30 61 1 59 21
M  V30 62 1 60 22
M  V30 63 1 61 23
M  V30 64 1 62 23
M  V30 65 1 63 24
M  V30 66 1 64 24
M  V30 67 1 65 29
M  V30 68 1 66 29
M  V30 69 1 67 30
M  V30 70 1 68 30
M  V30 71 1 69 21
M  V30 END BOND
M  V30 END CTAB
M  END
>  <i_epik_Tot_Q>  (1) 
0

>  <i_epik_Tot_abs_Q>  (1) 
2

>  <i_i_glide_confnum>  (1) 
15

>  <i_i_glide_lignum>  (1) 
94

>  <i_i_glide_posenum>  (1) 
257

>  <i_i_glide_rotatable_bonds>  (1) 
12

>  <i_lp_mmshare_version>  (1) 
72125

>  <i_m_source_file_index>  (1) 
33

>  <i_f3d_flags>  (1) 
0

>  <num_sample>  (1) 
50

>  <b_lp_Chiralities_Consistent>  (1) 
1

>  <r_epik_Charging_Adjusted_Penalty>  (1) 
0.0085461583227070953

>  <r_epik_Ionization_Penalty>  (1) 
0.0085468934256092942

>  <r_epik_Ionization_Penalty_Charging>  (1) 
0.0021751899630769768

>  <r_epik_Ionization_Penalty_Neutral>  (1) 
0.0063717034625323165

>  <r_epik_State_Penalty>  (1) 
0.0063709683596301176

>  <r_glide_ring_energy>  (1) 
0

>  <r_i_docking_score>  (1) 
-6.4361800833417258

>  <r_i_glide_ecoul>  (1) 
-1.957870299462585

>  <r_i_glide_eff_state_penalty>  (1) 
0.0063709683596301176

>  <r_i_glide_einternal>  (1) 
13.788847850280749

>  <r_i_glide_emodel>  (1) 
-40.818178025789514

>  <r_i_glide_emodel_strain>  (1) 
1.2907621834162484

>  <r_i_glide_energy>  (1) 
-35.267465808030927

>  <r_i_glide_erotb>  (1) 
0.9651189096568249

>  <r_i_glide_esite>  (1) 
0

>  <r_i_glide_evdw>  (1) 
-33.309595508568343

>  <r_i_glide_gscore>  (1) 
-6.442551051701356

>  <r_i_glide_gscore_strain>  (1) 
0

>  <r_i_glide_hbond>  (1) 
-0.067412030682101068

>  <r_i_glide_ligand_efficiency>  (1) 
-0.20761871236586213

>  <r_i_glide_ligand_efficiency_ln>  (1) 
-1.4515558540248572

>  <r_i_glide_ligand_efficiency_sa>  (1) 
-0.65220940610053302

>  <r_i_glide_lipo>  (1) 
-3.1814630194159363

>  <r_i_glide_metal>  (1) 
-0

>  <r_i_glide_rewards>  (1) 
-2.1996345909123387

>  <r_lp_Energy>  (1) 
27.112926999999999

>  <s_epik_cmdline>  (1) 
J2VwaWtfcHl0aG9uJywgJy1waHQnLCAnMS4wJywgJy1waCcsICc3LjQnLCAnLXRuJywgJzgnLCAnLW1hJywgJzUwMCcsICctaW1hZScsICc8aW5maWxlLm1hZT4nLCAnLW9tYWUnLCAnPG91dGZpbGUubWFlPic=

>  <s_epik_input>  (1) 
W0NIMl0xW0NIMl1bQ0gyXVtOSF1jKGMxMilbY0hdW2NIXVtjSF1jMk9bQ0gyXVtDQEhdM1tDSDJdW0NIMl1bQ0BIXShbQ0hdPVtDSF0zKVtDSDJdW0NASF0oQyg9TylbT0hdKVtDSDJdW05IXVtDQF0oW0NIM10pKFtDSDJdW09IXSlbQ0gyXVtDSDNd

>  <s_glide_docking_method>  (1) 
confgen

>  <s_i_glide_gridfile>  (1) 
gpcr_drd2_6luq_protein_autoprepared_prepared

>  <s_lp_Force_Field>  (1) 
S-OPLS

>  <s_lp_Variant>  (1) 
DiffSBDD_32-1

>  <s_m_source_file>  (1) 
generated_generic_title2_ligand_DiffSBDD_2026-06-23_prepared.sdf

>  <GenAI_Model>  (1) 
DiffSBDD

>  <Protein>  (1) 
generic_title2

$$$$
DiffSBDD_8
     RDKit          3D

  0  0  0  0  0  0  0  0  0  0999 V3000
M  V30 BEGIN CTAB
M  V30 COUNTS 69 72 0 0 1
M  V30 BEGIN ATOM
M  V30 1 N 6.433490 6.079354 -16.388819 0
M  V30 2 C 8.686650 5.142772 -18.897003 0
M  V30 3 C 6.111595 4.953602 -12.330407 0 CFG=1
M  V30 4 N 7.031717 4.706479 -20.559272 0
M  V30 5 O 7.775389 7.115393 -13.915397 0
M  V30 6 C 9.373550 5.930555 -9.623268 0
M  V30 7 F 5.419869 3.746367 -19.241527 0
M  V30 8 C 8.992433 5.723464 -8.144491 0
M  V30 9 N 8.175417 5.854101 -10.480726 0 CHG=1
M  V30 10 C 8.393964 6.018981 -11.939972 0 CFG=1
M  V30 11 C 6.735995 3.905800 -19.382039 0 CFG=2
M  V30 12 C 11.929724 9.195963 -9.489679 0
M  V30 13 C 7.559444 5.058110 -12.766482 0 CFG=2
M  V30 14 O 6.847482 7.909283 -11.985051 0
M  V30 15 O 6.922683 3.817053 -21.682942 0
M  V30 16 C 10.106547 5.990748 -7.121700 0
M  V30 17 C 8.533739 5.240522 -15.200619 0
M  V30 18 C 5.627545 7.185059 -15.863744 0
M  V30 19 C 7.027730 5.196416 -15.416559 0 CFG=1
M  V30 20 C 7.387404 4.678833 -18.224835 0 CFG=2
M  V30 21 C 6.556319 5.901293 -17.729718 0
M  V30 22 C 5.375424 3.692144 -12.616332 0
M  V30 23 C 8.011394 7.380396 -12.563730 0 CFG=2
M  V30 24 C 7.608256 5.717184 -14.113523 0 CFG=2
M  V30 25 O 12.975272 8.790221 -10.346046 0
M  V30 26 O 6.037849 6.665455 -18.546391 0
M  V30 27 C 12.296813 8.838927 -8.042861 0
M  V30 28 C 5.797229 4.241328 -22.432014 0
M  V30 29 C 8.453132 4.994761 -20.410179 0
M  V30 30 O 11.778437 7.562722 -7.735158 0
M  V30 31 C 10.585813 7.432087 -7.153927 0
M  V30 32 N 5.878180 3.990282 -11.279152 0
M  V30 33 O 9.913278 8.355008 -6.693725 0
M  V30 34 H 8.943762 6.173248 -18.644465 0
M  V30 35 H 9.525171 4.519340 -18.583454 0
M  V30 36 H 5.523674 5.867653 -12.313464 0
M  V30 37 H 9.815448 6.911004 -9.776562 0
M  V30 38 H 10.115409 5.191302 -9.920654 0
M  V30 39 H 8.611905 4.711828 -8.000153 0
M  V30 40 H 8.175395 6.390732 -7.895907 0
M  V30 41 H 7.726922 4.956224 -10.346790 0
M  V30 42 H 9.443741 5.836045 -12.179235 0
M  V30 43 H 7.176677 2.910365 -19.470110 0
M  V30 44 H 11.792888 10.273576 -9.584951 0
M  V30 45 H 10.987147 8.751755 -9.798751 0
M  V30 46 H 8.010910 4.064655 -12.805894 0
M  V30 47 H 6.973012 7.990722 -11.032845 0
M  V30 48 H 10.952660 5.326235 -7.295828 0
M  V30 49 H 9.741942 5.792881 -6.115039 0
M  V30 50 H 9.101388 5.988604 -15.749859 0
M  V30 51 H 9.039868 4.289207 -15.055406 0
M  V30 52 H 6.180415 8.122565 -15.940399 0
M  V30 53 H 4.690502 7.296127 -16.413015 0
M  V30 54 H 5.367793 7.034559 -14.816292 0
M  V30 55 H 6.574515 4.209390 -15.350769 0
M  V30 56 H 7.598880 3.956459 -17.439979 0
M  V30 57 H 4.307772 3.785282 -12.801779 0
M  V30 58 H 5.879642 2.908522 -13.179586 0
M  V30 59 H 8.799581 8.126651 -12.455830 0
M  V30 60 H 13.696828 9.401499 -10.210412 0
M  V30 61 H 13.378094 8.835853 -7.906891 0
M  V30 62 H 11.907472 9.589687 -7.354623 0
M  V30 63 H 5.679562 3.606019 -23.309777 0
M  V30 64 H 4.880286 4.167123 -21.845305 0
M  V30 65 H 5.913531 5.271281 -22.773611 0
M  V30 66 H 8.726984 5.893859 -20.962401 0
M  V30 67 H 9.053771 4.168211 -20.794551 0
M  V30 68 H 5.183162 4.216955 -10.576169 0
M  V30 69 H 7.530321 6.572610 -10.133865 0
M  V30 END ATOM
M  V30 BEGIN BOND
M  V30 1 1 8 6
M  V30 2 1 9 6
M  V30 3 1 10 9
M  V30 4 1 11 4
M  V30 5 1 11 7
M  V30 6 1 13 3
M  V30 7 1 13 10
M  V30 8 1 15 4
M  V30 9 1 16 8
M  V30 10 1 18 1
M  V30 11 1 19 1
M  V30 12 1 19 17
M  V30 13 1 20 2
M  V30 14 1 20 11
M  V30 15 1 21 1
M  V30 16 1 21 20
M  V30 17 1 22 3
M  V30 18 1 23 5
M  V30 19 1 23 10
M  V30 20 1 23 14
M  V30 21 1 24 5 CFG=1
M  V30 22 1 24 13
M  V30 23 1 24 17
M  V30 24 1 24 19
M  V30 25 1 25 12
M  V30 26 2 26 21
M  V30 27 1 27 12
M  V30 28 1 28 15
M  V30 29 1 29 2
M  V30 30 1 29 4
M  V30 31 1 30 27
M  V30 32 1 31 16
M  V30 33 1 31 30
M  V30 34 1 32 3
M  V30 35 1 32 22
M  V30 36 2 33 31
M  V30 37 1 34 2
M  V30 38 1 35 2
M  V30 39 1 3 36 CFG=1
M  V30 40 1 37 6
M  V30 41 1 38 6
M  V30 42 1 39 8
M  V30 43 1 40 8
M  V30 44 1 41 9
M  V30 45 1 10 42 CFG=1
M  V30 46 1 11 43 CFG=3
M  V30 47 1 44 12
M  V30 48 1 45 12
M  V30 49 1 13 46 CFG=3
M  V30 50 1 47 14
M  V30 51 1 48 16
M  V30 52 1 49 16
M  V30 53 1 50 17
M  V30 54 1 51 17
M  V30 55 1 52 18
M  V30 56 1 53 18
M  V30 57 1 54 18
M  V30 58 1 19 55 CFG=1
M  V30 59 1 20 56 CFG=1
M  V30 60 1 57 22
M  V30 61 1 58 22
M  V30 62 1 23 59 CFG=3
M  V30 63 1 60 25
M  V30 64 1 61 27
M  V30 65 1 62 27
M  V30 66 1 63 28
M  V30 67 1 64 28
M  V30 68 1 65 28
M  V30 69 1 66 29
M  V30 70 1 67 29
M  V30 71 1 68 32
M  V30 72 1 69 9
M  V30 END BOND
M  V30 END CTAB
M  END
>  <i_epik_Tot_Q>  (1) 
1

>  <i_epik_Tot_abs_Q>  (1) 
1

>  <i_i_glide_confnum>  (1) 
1964

>  <i_i_glide_lignum>  (1) 
32

>  <i_i_glide_posenum>  (1) 
198

>  <i_i_glide_rotatable_bonds>  (1) 
15

>  <i_lp_mmshare_version>  (1) 
72125

>  <i_m_source_file_index>  (1) 
9

>  <i_f3d_flags>  (1) 
0

>  <num_sample>  (1) 
50

>  <b_lp_Chiralities_Consistent>  (1) 
1

>  <r_epik_Charging_Adjusted_Penalty>  (1) 
0.31458683345696248

>  <r_epik_Ionization_Penalty>  (1) 
0.14300301403106822

>  <r_epik_Ionization_Penalty_Charging>  (1) 
0.065080964065447874

>  <r_epik_Ionization_Penalty_Neutral>  (1) 
0.077922049965620341

>  <r_epik_State_Penalty>  (1) 
0.24950586939151459

>  <r_glide_ring_energy>  (1) 
0

>  <r_i_docking_score>  (1) 
-6.4052879177251913

>  <r_i_glide_ecoul>  (1) 
-18.687777187517419

>  <r_i_glide_eff_state_penalty>  (1) 
0.24950586939151459

>  <r_i_glide_einternal>  (1) 
9.6612924937019891

>  <r_i_glide_emodel>  (1) 
-66.371287787733507

>  <r_i_glide_emodel_strain>  (1) 
0.82842535642714665

>  <r_i_glide_energy>  (1) 
-49.104666868221528

>  <r_i_glide_erotb>  (1) 
1.0741905119875848

>  <r_i_glide_esite>  (1) 
-0.14966475673934784

>  <r_i_glide_evdw>  (1) 
-30.416889680704109

>  <r_i_glide_gscore>  (1) 
-6.6547937871167058

>  <r_i_glide_gscore_strain>  (1) 
0

>  <r_i_glide_hbond>  (1) 
-0.65599999999999992

>  <r_i_glide_ligand_efficiency>  (1) 
-0.19409963387046034

>  <r_i_glide_ligand_efficiency_ln>  (1) 
-1.4245028680961869

>  <r_i_glide_ligand_efficiency_sa>  (1) 
-0.62258123907912233

>  <r_i_glide_lipo>  (1) 
-1.4253899774625418

>  <r_i_glide_metal>  (1) 
-0

>  <r_i_glide_rewards>  (1) 
-1.1739185027395824

>  <r_lp_Energy>  (1) 
36.819628999999999

>  <s_epik_Chemistry_Notes>  (1) 
This compound has an ester and may undergo hydrolysis at high or low pH. This compound contains an acetal/aminal-like group ( X-CH(R)-Y where X, Y are N, S, or O) that may be acid/base labile, releasing an aldehyde. This compound has a N-S or N-O group and may undergo hydrolysis at high or low pH.

>  <s_epik_cmdline>  (1) 
J2VwaWtfcHl0aG9uJywgJy1waHQnLCAnMS4wJywgJy1waCcsICc3LjQnLCAnLXRuJywgJzgnLCAnLW1hJywgJzUwMCcsICctaW1hZScsICc8aW5maWxlLm1hZT4nLCAnLW9tYWUnLCAnPG91dGZpbGUubWFlPic=

>  <s_epik_input>  (1) 
W0NIM11PTjFbQ0BIXShGKVtDQEBIXShbQ0gyXVtDSDJdMSlDKD1PKU4oW0NIM10pW0NASF0yW0NIMl1DMjNPW0NAQEhdKFtPSF0pW0NASF0oW0NASF0zW0NASF00W0NIMl1bTkhdNClbTkhdW0NIMl1bQ0gyXVtDSDJdQyg9TylPW0NIMl1bQ0gyXVtPSF0=

>  <s_glide_docking_method>  (1) 
confgen

>  <s_i_glide_gridfile>  (1) 
gpcr_drd2_6luq_protein_autoprepared_prepared

>  <s_lp_Force_Field>  (1) 
S-OPLS

>  <s_lp_Variant>  (1) 
DiffSBDD_8-1

>  <s_m_source_file>  (1) 
generated_generic_title2_ligand_DiffSBDD_2026-06-23_prepared.sdf

>  <GenAI_Model>  (1) 
DiffSBDD

>  <Protein>  (1) 
generic_title2

$$$$
DiffSBDD_15
     RDKit          3D

  0  0  0  0  0  0  0  0  0  0999 V3000
M  V30 BEGIN CTAB
M  V30 COUNTS 46 47 0 0 1
M  V30 BEGIN ATOM
M  V30 1 C 11.433349 9.082666 -4.923522 0
M  V30 2 C 9.126438 5.417417 -9.474776 0
M  V30 3 Cl 9.942767 6.144421 -11.985296 0
M  V30 4 C 12.309259 9.069290 -3.903672 0
M  V30 5 C 11.828748 6.629809 -3.445221 0
M  V30 6 C 10.709781 7.842432 -7.059932 0 CFG=2
M  V30 7 N 6.578576 5.090534 -12.284061 0 CFG=1 CHG=1
M  V30 8 C 10.790738 7.829118 -5.508785 0 CFG=1
M  V30 9 O 5.776060 7.416059 -11.985005 0
M  V30 10 C 8.600077 5.712442 -10.882341 0 CFG=1
M  V30 11 P 6.776158 6.636687 -13.081196 0
M  V30 12 C 6.673483 3.897387 -13.133115 0
M  V30 13 C 8.099945 3.707240 -12.634751 0
M  V30 14 N 9.592891 6.680336 -8.936168 0
M  V30 15 O 12.219405 7.990454 -8.950967 0
M  V30 16 O 5.589809 6.436102 -14.232672 0
M  V30 17 C 10.071373 6.531044 -7.578092 0
M  V30 18 C 12.768653 7.813135 -3.200000 0
M  V30 19 C 12.032605 8.233740 -7.759773 0
M  V30 20 C 7.698120 4.603865 -11.455703 0 CFG=2
M  V30 21 C 11.366605 6.518973 -4.909745 0
M  V30 22 H 11.152902 10.025132 -5.373547 0
M  V30 23 H 8.321237 5.044577 -8.839543 0
M  V30 24 H 9.910908 4.661996 -9.489091 0
M  V30 25 H 12.726960 9.990233 -3.547706 0
M  V30 26 H 12.304439 5.703036 -3.130832 0
M  V30 27 H 10.975242 6.734301 -2.786491 0
M  V30 28 H 10.022843 8.648859 -7.317266 0
M  V30 29 H 9.757834 7.881225 -5.185341 0
M  V30 30 H 6.226706 7.590467 -11.155163 0
M  V30 31 H 8.023477 6.624511 -10.785047 0
M  V30 32 H 5.994779 3.110842 -12.797871 0
M  V30 33 H 6.595081 4.062363 -14.208018 0
M  V30 34 H 8.360813 2.678505 -12.383765 0
M  V30 35 H 8.829118 4.141286 -13.320492 0
M  V30 36 H 8.804121 7.326804 -8.945370 0
M  V30 37 H 5.376744 7.290278 -14.577677 0
M  V30 38 H 9.224150 6.250081 -6.950365 0
M  V30 39 H 10.793763 5.714747 -7.530690 0
M  V30 40 H 13.775410 7.589132 -3.543444 0
M  V30 41 H 12.837912 8.011464 -2.129824 0
M  V30 42 H 12.768112 8.734914 -7.131222 0
M  V30 43 H 7.251463 4.000787 -10.661442 0
M  V30 44 H 10.607149 5.741223 -4.959509 0
M  V30 45 H 12.175370 6.152335 -5.530881 0
M  V30 46 H 5.719246 5.101201 -11.753967 0
M  V30 END ATOM
M  V30 BEGIN BOND
M  V30 1 2 4 1
M  V30 2 1 8 1
M  V30 3 1 8 6
M  V30 4 1 10 2
M  V30 5 1 10 3
M  V30 6 1 11 7
M  V30 7 1 11 9
M  V30 8 1 12 7
M  V30 9 1 13 12
M  V30 10 1 14 2
M  V30 11 1 16 11
M  V30 12 1 17 6
M  V30 13 1 17 14
M  V30 14 1 18 4
M  V30 15 1 18 5
M  V30 16 1 19 6
M  V30 17 2 19 15
M  V30 18 1 20 7
M  V30 19 1 20 10
M  V30 20 1 20 13
M  V30 21 1 21 5
M  V30 22 1 21 8
M  V30 23 1 22 1
M  V30 24 1 23 2
M  V30 25 1 24 2
M  V30 26 1 25 4
M  V30 27 1 26 5
M  V30 28 1 27 5
M  V30 29 1 6 28 CFG=1
M  V30 30 1 8 29 CFG=1
M  V30 31 1 30 9
M  V30 32 1 10 31 CFG=1
M  V30 33 1 32 12
M  V30 34 1 33 12
M  V30 35 1 34 13
M  V30 36 1 35 13
M  V30 37 1 36 14
M  V30 38 1 37 16
M  V30 39 1 38 17
M  V30 40 1 39 17
M  V30 41 1 40 18
M  V30 42 1 41 18
M  V30 43 1 42 19
M  V30 44 1 20 43 CFG=1
M  V30 45 1 44 21
M  V30 46 1 45 21
M  V30 47 1 7 46 CFG=1
M  V30 END BOND
M  V30 END CTAB
M  END
>  <i_epik_Tot_Q>  (1) 
1

>  <i_epik_Tot_abs_Q>  (1) 
1

>  <i_i_glide_confnum>  (1) 
409

>  <i_i_glide_lignum>  (1) 
57

>  <i_i_glide_posenum>  (1) 
42

>  <i_i_glide_rotatable_bonds>  (1) 
10

>  <i_lp_mmshare_version>  (1) 
72125

>  <i_m_source_file_index>  (1) 
16

>  <i_f3d_flags>  (1) 
0

>  <num_sample>  (1) 
50

>  <b_lp_Chiralities_Consistent>  (1) 
1

>  <r_epik_Charging_Adjusted_Penalty>  (1) 
0.56727467886288852

>  <r_epik_Ionization_Penalty>  (1) 
0.44114962020939286

>  <r_epik_Ionization_Penalty_Charging>  (1) 
0.027117031585188044

>  <r_epik_Ionization_Penalty_Neutral>  (1) 
0.41403258862420483

>  <r_epik_State_Penalty>  (1) 
0.54015764727770044

>  <r_glide_ring_energy>  (1) 
2.2593876707845975

>  <r_i_docking_score>  (1) 
-6.3907567926866591

>  <r_i_glide_ecoul>  (1) 
-8.9955276960499067

>  <r_i_glide_eff_state_penalty>  (1) 
0.54015764727770044

>  <r_i_glide_einternal>  (1) 
7.9147344509306574

>  <r_i_glide_emodel>  (1) 
-59.286398196468554

>  <r_i_glide_emodel_strain>  (1) 
0.71716928875265396

>  <r_i_glide_energy>  (1) 
-42.626505839920846

>  <r_i_glide_erotb>  (1) 
1.004531890689508

>  <r_i_glide_esite>  (1) 
-0.00069744566701199565

>  <r_i_glide_evdw>  (1) 
-33.630978143870941

>  <r_i_glide_gscore>  (1) 
-6.9309144399643596

>  <r_i_glide_gscore_strain>  (1) 
0

>  <r_i_glide_hbond>  (1) 
-0.30399999999999999

>  <r_i_glide_ligand_efficiency>  (1) 
-0.30432175203269807

>  <r_i_glide_ligand_efficiency_ln>  (1) 
-1.5801017032517399

>  <r_i_glide_ligand_efficiency_sa>  (1) 
-0.83960063908167126

>  <r_i_glide_lipo>  (1) 
-2.4375403220171887

>  <r_i_glide_metal>  (1) 
-0

>  <r_i_glide_rewards>  (1) 
-2.1623305013686327

>  <r_lp_Energy>  (1) 
9.1070440000000001

>  <r_lp_tautomer_probability>  (1) 
0.99990000499974985

>  <s_epik_cmdline>  (1) 
J2VwaWtfcHl0aG9uJywgJy1waHQnLCAnMS4wJywgJy1waCcsICc3LjQnLCAnLXRuJywgJzgnLCAnLW1hJywgJzUwMCcsICctaW1hZScsICc8aW5maWxlLm1hZT4nLCAnLW9tYWUnLCAnPG91dGZpbGUubWFlPic=

>  <s_epik_input>  (1) 
W0NIMl0xW0NIMl1bQ0gyXVtDSF09W0NIXVtDQEhdMVtDQEBIXShbQ0hdPU8pW0NIMl1bTkhdW0NIMl1bQ0BASF0oQ2wpW0NAQEhdMltDSDJdW0NIMl1OMlAoW09IXSlbT0hd

>  <s_glide_docking_method>  (1) 
confgen

>  <s_i_glide_gridfile>  (1) 
gpcr_drd2_6luq_protein_autoprepared_prepared

>  <s_lp_Force_Field>  (1) 
S-OPLS

>  <s_lp_Variant>  (1) 
DiffSBDD_15-4

>  <s_m_source_file>  (1) 
generated_generic_title2_ligand_DiffSBDD_2026-06-23_prepared.sdf

>  <GenAI_Model>  (1) 
DiffSBDD

>  <Protein>  (1) 
generic_title2

$$$$
DiffSBDD_46
     RDKit          3D

  0  0  0  0  0  0  0  0  0  0999 V3000
M  V30 BEGIN CTAB
M  V30 COUNTS 57 60 0 0 1
M  V30 BEGIN ATOM
M  V30 1 O 8.715189 5.990203 -7.097029 0
M  V30 2 C 11.368899 7.597834 -9.009343 0
M  V30 3 C 5.483352 6.178207 -15.437414 0
M  V30 4 C 12.929657 8.390222 -2.033785 0
M  V30 5 C 10.776098 8.746587 -6.382617 0
M  V30 6 C 11.491289 9.350798 -5.330387 0
M  V30 7 N 8.790346 5.584138 -11.879239 0
M  V30 8 C 10.577135 7.296815 -11.839265 0
M  V30 9 C 7.877623 4.776599 -11.045392 0
M  V30 10 N 10.090203 6.877788 -8.734124 0
M  V30 11 C 8.412308 4.228780 -13.993957 0
M  V30 12 C 11.520304 7.218417 -4.151641 0
M  V30 13 C 10.452440 7.371498 -6.321622 0
M  V30 14 C 11.287642 9.064147 -9.462944 0
M  V30 15 C 6.924579 5.823649 -15.070435 0 CFG=1
M  V30 16 C 11.866460 8.583519 -4.212663 0
M  V30 17 C 9.375410 6.220989 -9.850874 0
M  V30 18 C 7.383916 6.447784 -13.753875 0
M  V30 19 C 10.815461 6.627353 -5.194912 0
M  V30 20 C 9.663510 6.692651 -7.415938 0
M  V30 21 C 12.575379 9.167544 -3.149911 0
M  V30 22 C 7.143408 4.325259 -14.845701 0
M  V30 23 C 8.277377 5.206971 -9.524478 0
M  V30 24 C 8.598748 5.610778 -13.335512 0 CFG=1
M  V30 25 C 12.575407 7.032871 -1.985027 0
M  V30 26 C 9.597594 6.369074 -11.138999 0
M  V30 27 C 11.872681 6.454119 -3.036557 0
M  V30 28 H 12.063350 7.549366 -8.173069 0
M  V30 29 H 11.973720 6.995010 -9.669766 0
M  V30 30 H 4.801354 5.768583 -14.693392 0
M  V30 31 H 5.341151 7.258831 -15.474903 0
M  V30 32 H 5.210891 5.767750 -16.409293 0
M  V30 33 H 13.479440 8.833787 -1.217548 0
M  V30 34 H 10.459049 9.334285 -7.211387 0
M  V30 35 H 11.738958 10.401076 -5.377464 0
M  V30 36 H 10.230832 8.310533 -11.650520 0
M  V30 37 H 11.622230 7.148346 -11.599047 0
M  V30 38 H 10.605164 7.216712 -12.909076 0
M  V30 39 H 6.831104 4.995658 -11.257820 0
M  V30 40 H 8.060695 3.715276 -11.197102 0
M  V30 41 H 9.260412 4.050117 -14.650866 0
M  V30 42 H 8.366676 3.388908 -13.302434 0
M  V30 43 H 11.838696 9.210364 -10.385023 0
M  V30 44 H 10.253473 9.383426 -9.585025 0
M  V30 45 H 11.775419 9.737015 -8.761233 0
M  V30 46 H 7.590688 6.159203 -15.865091 0
M  V30 47 H 6.585325 6.369168 -13.015353 0
M  V30 48 H 7.628918 7.505837 -13.852317 0
M  V30 49 H 10.550724 5.590229 -5.134527 0
M  V30 50 H 12.851822 10.200525 -3.187560 0
M  V30 51 H 7.225358 3.769648 -15.781089 0
M  V30 52 H 6.306127 3.904759 -14.287255 0
M  V30 53 H 8.701164 4.390224 -8.956808 0
M  V30 54 H 7.385332 5.590268 -9.032750 0
M  V30 55 H 9.467940 5.990221 -13.854755 0
M  V30 56 H 12.861312 6.430222 -1.147299 0
M  V30 57 H 11.607262 5.420657 -2.989699 0
M  V30 END ATOM
M  V30 BEGIN BOND
M  V30 1 2 6 5
M  V30 2 1 9 7
M  V30 3 1 10 2
M  V30 4 1 13 5
M  V30 5 1 14 2
M  V30 6 1 15 3
M  V30 7 1 16 6
M  V30 8 1 16 12
M  V30 9 1 17 10
M  V30 10 1 18 15
M  V30 11 1 19 12
M  V30 12 2 19 13
M  V30 13 2 20 1
M  V30 14 1 20 10
M  V30 15 1 20 13
M  V30 16 1 21 4
M  V30 17 2 21 16
M  V30 18 1 22 11
M  V30 19 1 22 15
M  V30 20 1 23 9
M  V30 21 1 23 17
M  V30 22 1 24 7
M  V30 23 1 24 11
M  V30 24 1 24 18
M  V30 25 2 25 4
M  V30 26 1 26 7
M  V30 27 1 26 8
M  V30 28 2 26 17
M  V30 29 2 27 12
M  V30 30 1 27 25
M  V30 31 1 28 2
M  V30 32 1 29 2
M  V30 33 1 30 3
M  V30 34 1 31 3
M  V30 35 1 32 3
M  V30 36 1 33 4
M  V30 37 1 34 5
M  V30 38 1 35 6
M  V30 39 1 36 8
M  V30 40 1 37 8
M  V30 41 1 38 8
M  V30 42 1 39 9
M  V30 43 1 40 9
M  V30 44 1 41 11
M  V30 45 1 42 11
M  V30 46 1 43 14
M  V30 47 1 44 14
M  V30 48 1 45 14
M  V30 49 1 15 46 CFG=3
M  V30 50 1 47 18
M  V30 51 1 48 18
M  V30 52 1 49 19
M  V30 53 1 50 21
M  V30 54 1 51 22
M  V30 55 1 52 22
M  V30 56 1 53 23
M  V30 57 1 54 23
M  V30 58 1 24 55 CFG=3
M  V30 59 1 56 25
M  V30 60 1 57 27
M  V30 END BOND
M  V30 END CTAB
M  END
>  <i_epik_Tot_Q>  (1) 
0

>  <i_epik_Tot_abs_Q>  (1) 
0

>  <i_i_glide_confnum>  (1) 
30

>  <i_i_glide_lignum>  (1) 
124

>  <i_i_glide_posenum>  (1) 
400

>  <i_i_glide_rotatable_bonds>  (1) 
5

>  <i_lp_mmshare_version>  (1) 
72125

>  <i_m_source_file_index>  (1) 
47

>  <i_f3d_flags>  (1) 
0

>  <num_sample>  (1) 
50

>  <b_lp_Chiralities_Consistent>  (1) 
1

>  <r_epik_Charging_Adjusted_Penalty>  (1) 
7.6326947449564099e-08

>  <r_epik_Ionization_Penalty>  (1) 
7.1791624653063315e-05

>  <r_epik_Ionization_Penalty_Charging>  (1) 
7.6326947449564099e-08

>  <r_epik_Ionization_Penalty_Neutral>  (1) 
7.1715297705613756e-05

>  <r_epik_State_Penalty>  (1) 
-0

>  <r_glide_ring_energy>  (1) 
0

>  <r_i_docking_score>  (1) 
-6.3703972557255986

>  <r_i_glide_ecoul>  (1) 
0.62720694357689188

>  <r_i_glide_eff_state_penalty>  (1) 
-0

>  <r_i_glide_einternal>  (1) 
35.461675302872834

>  <r_i_glide_emodel>  (1) 
-23.149483819684988

>  <r_i_glide_emodel_strain>  (1) 
0.55717355980908678

>  <r_i_glide_energy>  (1) 
-31.49066287770513

>  <r_i_glide_erotb>  (1) 
0.58447327232945689

>  <r_i_glide_esite>  (1) 
-0.089639745602864418

>  <r_i_glide_evdw>  (1) 
-32.117869821282021

>  <r_i_glide_gscore>  (1) 
-6.3703972557255986

>  <r_i_glide_gscore_strain>  (1) 
0

>  <r_i_glide_hbond>  (1) 
0

>  <r_i_glide_ligand_efficiency>  (1) 
-0.23594063910094809

>  <r_i_glide_ligand_efficiency_ln>  (1) 
-1.482923456926071

>  <r_i_glide_ligand_efficiency_sa>  (1) 
-0.70782191730284438

>  <r_i_glide_lipo>  (1) 
-3.7219141702075782

>  <r_i_glide_metal>  (1) 
-0

>  <r_i_glide_rewards>  (1) 
-1.6315041627170452

>  <r_lp_Energy>  (1) 
50.30068

>  <r_lp_tautomer_probability>  (1) 
1

>  <s_epik_Chemistry_Notes>  (1) 
This compound has an imine and may undergo hydrolysis.

>  <s_epik_cmdline>  (1) 
J2VwaWtfcHl0aG9uJywgJy1waHQnLCAnMS4wJywgJy1waCcsICc3LjQnLCAnLXRuJywgJzgnLCAnLW1hJywgJzUwMCcsICctaW1hZScsICc8aW5maWxlLm1hZT4nLCAnLW9tYWUnLCAnPG91dGZpbGUubWFlPic=

>  <s_epik_input>  (1) 
W2NIXTFbY0hdW2NIXVtjSF1jKGMxMilbY0hdW2NIXWMoW2NIXTIpQyg9TylOKFtDSDJdW0NIM10pQyg9QzNbQ0gzXSlbQ0gyXVtDSDJdTjNbQ0BASF0oW0NIMl1bQ0gyXTQpW0NIMl1bQ0BASF00W0NIM10=

>  <s_glide_docking_method>  (1) 
confgen

>  <s_i_glide_gridfile>  (1) 
gpcr_drd2_6luq_protein_autoprepared_prepared

>  <s_lp_Force_Field>  (1) 
S-OPLS

>  <s_lp_Variant>  (1) 
DiffSBDD_46-1

>  <s_m_source_file>  (1) 
generated_generic_title2_ligand_DiffSBDD_2026-06-23_prepared.sdf

>  <GenAI_Model>  (1) 
DiffSBDD

>  <Protein>  (1) 
generic_title2

$$$$
DiffSBDD_32
     RDKit          3D

  0  0  0  0  0  0  0  0  0  0999 V3000
M  V30 BEGIN CTAB
M  V30 COUNTS 69 71 0 0 1
M  V30 BEGIN ATOM
M  V30 1 C 11.191670 8.738655 -6.499358 0
M  V30 2 C 11.003385 6.284058 -3.567558 0
M  V30 3 N 12.739552 8.390275 -2.588001 0
M  V30 4 C 9.668187 7.285286 -11.048159 0
M  V30 5 C 5.911250 -0.131968 -12.513799 0
M  V30 6 O 10.031611 6.618765 -6.237824 0
M  V30 7 O 8.175407 1.696240 -15.976659 0
M  V30 8 C 8.788935 5.245931 -9.237205 0
M  V30 9 C 7.802931 5.716179 -13.857666 0 CFG=2
M  V30 10 C 6.535818 6.129588 -14.629893 0
M  V30 11 C 8.138116 4.212492 -14.052072 0
M  V30 12 C 9.700118 6.362868 -8.683672 0 CFG=1
M  V30 13 C 9.909536 7.449887 -9.735821 0
M  V30 14 C 12.666703 7.087266 -1.963384 0
M  V30 15 C 9.155301 6.902668 -7.333645 0
M  V30 16 C 12.028522 9.726619 -5.965655 0
M  V30 17 C 8.421128 1.437693 -12.992944 0
M  V30 18 C 7.098675 1.279833 -15.162400 0
M  V30 19 C 9.162953 5.993742 -11.667430 0 CFG=1
M  V30 20 C 10.858544 7.603272 -5.729310 0
M  V30 21 N 6.976003 3.347651 -13.734471 0 CHG=1
M  V30 22 C 12.543890 9.590222 -4.668770 0
M  V30 23 C 5.901034 1.342210 -12.942498 0
M  V30 24 C 9.169783 4.821043 -10.663316 0
M  V30 25 C 11.375423 7.477813 -4.416122 0
M  V30 26 C 7.132892 1.864688 -13.722904 0 CFG=2
M  V30 27 O 5.960924 7.177153 -14.270922 0 CHG=-1
M  V30 28 O 6.175419 5.381647 -15.563801 0
M  V30 29 C 11.276844 6.508813 -2.071934 0
M  V30 30 C 7.796022 6.182578 -12.374744 0
M  V30 31 C 12.221433 8.483585 -3.889753 0
M  V30 32 H 10.807459 8.854856 -7.492597 0
M  V30 33 H 9.969088 5.990225 -3.738666 0
M  V30 34 H 11.653847 5.508222 -3.945774 0
M  V30 35 H 13.440482 9.049361 -2.274903 0
M  V30 36 H 9.840234 8.108165 -11.726443 0
M  V30 37 H 4.927407 -0.428503 -12.157587 0
M  V30 38 H 6.181247 -0.804287 -13.327770 0
M  V30 39 H 6.594821 -0.309998 -11.686218 0
M  V30 40 H 7.954502 2.522685 -16.380233 0
M  V30 41 H 8.820325 4.390361 -8.562698 0
M  V30 42 H 7.753730 5.589946 -9.246989 0
M  V30 43 H 8.575474 6.284859 -14.358032 0
M  V30 44 H 9.004187 3.943829 -13.452399 0
M  V30 45 H 8.436394 4.055287 -15.087439 0
M  V30 46 H 10.687865 5.941184 -8.496226 0
M  V30 47 H 10.270659 8.401083 -9.387871 0
M  V30 48 H 12.975446 7.186050 -0.929800 0
M  V30 49 H 13.375371 6.412437 -2.437285 0
M  V30 50 H 8.855807 7.949866 -7.386567 0
M  V30 51 H 8.231154 6.381260 -7.082713 0
M  V30 52 H 12.274204 10.594200 -6.550400 0
M  V30 53 H 8.444062 0.371777 -12.783548 0
M  V30 54 H 9.305644 1.590191 -13.584665 0
M  V30 55 H 8.575444 1.990198 -12.069041 0
M  V30 56 H 6.175478 1.538150 -15.675917 0
M  V30 57 H 7.139537 0.191017 -15.123007 0
M  V30 58 H 9.909179 5.763968 -12.429751 0
M  V30 59 H 6.247299 3.609985 -14.389316 0
M  V30 60 H 13.186946 10.346641 -4.265483 0
M  V30 61 H 5.780967 1.930027 -12.032591 0
M  V30 62 H 5.003889 1.518718 -13.538795 0
M  V30 63 H 8.507008 4.025797 -10.998869 0
M  V30 64 H 10.163979 4.385169 -10.648158 0
M  V30 65 H 10.567931 7.184140 -1.588530 0
M  V30 66 H 11.219313 5.590251 -1.505661 0
M  V30 67 H 7.528777 7.240747 -12.335308 0
M  V30 68 H 7.001396 5.680987 -11.821644 0
M  V30 69 H 6.671675 3.624731 -12.812415 0
M  V30 END ATOM
M  V30 BEGIN BOND
M  V30 1 1 10 9
M  V30 2 1 11 9
M  V30 3 1 12 8
M  V30 4 2 13 4
M  V30 5 1 13 12
M  V30 6 1 14 3
M  V30 7 1 15 6
M  V30 8 1 15 12
M  V30 9 1 16 1
M  V30 10 1 18 7
M  V30 11 1 19 4
M  V30 12 2 20 1
M  V30 13 1 20 6
M  V30 14 1 21 11
M  V30 15 2 22 16
M  V30 16 1 23 5
M  V30 17 1 24 8
M  V30 18 1 24 19
M  V30 19 1 25 2
M  V30 20 1 25 20
M  V30 21 1 26 17 CFG=1
M  V30 22 1 26 18
M  V30 23 1 26 21
M  V30 24 1 26 23
M  V30 25 1 27 10
M  V30 26 2 28 10
M  V30 27 1 29 2
M  V30 28 1 29 14
M  V30 29 1 30 9
M  V30 30 1 30 19
M  V30 31 1 31 3
M  V30 32 1 31 22
M  V30 33 2 31 25
M  V30 34 1 32 1
M  V30 35 1 33 2
M  V30 36 1 34 2
M  V30 37 1 35 3
M  V30 38 1 36 4
M  V30 39 1 37 5
M  V30 40 1 38 5
M  V30 41 1 39 5
M  V30 42 1 40 7
M  V30 43 1 41 8
M  V30 44 1 42 8
M  V30 45 1 9 43 CFG=3
M  V30 46 1 44 11
M  V30 47 1 45 11
M  V30 48 1 12 46 CFG=1
M  V30 49 1 47 13
M  V30 50 1 48 14
M  V30 51 1 49 14
M  V30 52 1 50 15
M  V30 53 1 51 15
M  V30 54 1 52 16
M  V30 55 1 53 17
M  V30 56 1 54 17
M  V30 57 1 55 17
M  V30 58 1 56 18
M  V30 59 1 57 18
M  V30 60 1 19 58 CFG=3
M  V30 61 1 59 21
M  V30 62 1 60 22
M  V30 63 1 61 23
M  V30 64 1 62 23
M  V30 65 1 63 24
M  V30 66 1 64 24
M  V30 67 1 65 29
M  V30 68 1 66 29
M  V30 69 1 67 30
M  V30 70 1 68 30
M  V30 71 1 69 21
M  V30 END BOND
M  V30 END CTAB
M  END
>  <i_epik_Tot_Q>  (1) 
0

>  <i_epik_Tot_abs_Q>  (1) 
2

>  <i_i_glide_confnum>  (1) 
1727

>  <i_i_glide_lignum>  (1) 
94

>  <i_i_glide_posenum>  (1) 
166

>  <i_i_glide_rotatable_bonds>  (1) 
12

>  <i_lp_mmshare_version>  (1) 
72125

>  <i_m_source_file_index>  (1) 
33

>  <i_f3d_flags>  (1) 
0

>  <num_sample>  (1) 
50

>  <b_lp_Chiralities_Consistent>  (1) 
1

>  <r_epik_Charging_Adjusted_Penalty>  (1) 
0.0085461583227070953

>  <r_epik_Ionization_Penalty>  (1) 
0.0085468934256092942

>  <r_epik_Ionization_Penalty_Charging>  (1) 
0.0021751899630769768

>  <r_epik_Ionization_Penalty_Neutral>  (1) 
0.0063717034625323165

>  <r_epik_State_Penalty>  (1) 
0.0063709683596301176

>  <r_glide_ring_energy>  (1) 
0

>  <r_i_docking_score>  (1) 
-6.3659057019709016

>  <r_i_glide_ecoul>  (1) 
-2.0577104040361496

>  <r_i_glide_eff_state_penalty>  (1) 
0.0063709683596301176

>  <r_i_glide_einternal>  (1) 
11.10447751928189

>  <r_i_glide_emodel>  (1) 
-40.944536248398293

>  <r_i_glide_emodel_strain>  (1) 
1.3559643902161866

>  <r_i_glide_energy>  (1) 
-34.266670192378371

>  <r_i_glide_erotb>  (1) 
0.9651189096568249

>  <r_i_glide_esite>  (1) 
0

>  <r_i_glide_evdw>  (1) 
-32.20895978834222

>  <r_i_glide_gscore>  (1) 
-6.3722766703305318

>  <r_i_glide_gscore_strain>  (1) 
0

>  <r_i_glide_hbond>  (1) 
-0.059912719629830226

>  <r_i_glide_ligand_efficiency>  (1) 
-0.20535179683777102

>  <r_i_glide_ligand_efficiency_ln>  (1) 
-1.435706827374591

>  <r_i_glide_ligand_efficiency_sa>  (1) 
-0.64508816151998205

>  <r_i_glide_lipo>  (1) 
-3.0541185934981461

>  <r_i_glide_metal>  (1) 
-0

>  <r_i_glide_rewards>  (1) 
-2.3042597168368464

>  <r_lp_Energy>  (1) 
27.112926999999999

>  <s_epik_cmdline>  (1) 
J2VwaWtfcHl0aG9uJywgJy1waHQnLCAnMS4wJywgJy1waCcsICc3LjQnLCAnLXRuJywgJzgnLCAnLW1hJywgJzUwMCcsICctaW1hZScsICc8aW5maWxlLm1hZT4nLCAnLW9tYWUnLCAnPG91dGZpbGUubWFlPic=

>  <s_epik_input>  (1) 
W0NIMl0xW0NIMl1bQ0gyXVtOSF1jKGMxMilbY0hdW2NIXVtjSF1jMk9bQ0gyXVtDQEhdM1tDSDJdW0NIMl1bQ0BIXShbQ0hdPVtDSF0zKVtDSDJdW0NASF0oQyg9TylbT0hdKVtDSDJdW05IXVtDQF0oW0NIM10pKFtDSDJdW09IXSlbQ0gyXVtDSDNd

>  <s_glide_docking_method>  (1) 
confgen

>  <s_i_glide_gridfile>  (1) 
gpcr_drd2_6luq_protein_autoprepared_prepared

>  <s_lp_Force_Field>  (1) 
S-OPLS

>  <s_lp_Variant>  (1) 
DiffSBDD_32-1

>  <s_m_source_file>  (1) 
generated_generic_title2_ligand_DiffSBDD_2026-06-23_prepared.sdf

>  <GenAI_Model>  (1) 
DiffSBDD

>  <Protein>  (1) 
generic_title2

$$$$
DiffSBDD_45
     RDKit          3D

  0  0  0  0  0  0  0  0  0  0999 V3000
M  V30 BEGIN CTAB
M  V30 COUNTS 54 58 0 0 1
M  V30 BEGIN ATOM
M  V30 1 C 11.352189 9.464707 -6.750309 0
M  V30 2 C 7.016494 4.734804 -15.299618 0 CFG=1
M  V30 3 C 8.142261 4.871593 -9.125112 0
M  V30 4 C 9.145304 5.846649 -8.945864 0
M  V30 5 C 8.437290 4.781311 -14.791450 0
M  V30 6 C 8.523384 4.619722 -13.262818 0
M  V30 7 C 10.843932 7.394984 -8.053558 0
M  V30 8 C 11.631420 7.962096 -6.870192 0 CFG=2
M  V30 9 C 6.032568 5.805670 -14.943236 0 CFG=1
M  V30 10 C 10.314291 7.428296 -10.434265 0
M  V30 11 N 8.483756 5.729557 -11.052886 0
M  V30 12 C 6.798251 6.476796 -12.633827 0
M  V30 13 O 13.050203 8.609631 -1.191529 0
M  V30 14 C 11.054413 7.922758 -9.350088 0
M  V30 15 O 11.440709 9.400893 -4.342246 0
M  V30 16 C 11.374987 7.293004 -5.484318 0
M  V30 17 C 6.421439 6.951558 -14.044114 0
M  V30 18 F 12.695019 6.466378 -2.713418 0
M  V30 19 C 11.911160 10.106221 -5.480951 0
M  V30 20 C 8.236077 5.920733 -12.473956 0 CFG=2
M  V30 21 C 9.375844 6.409860 -10.219248 0
M  V30 22 O 6.647012 5.756995 -16.239241 0
M  V30 23 C 11.776387 7.404326 -2.922729 0 CFG=1
M  V30 24 C 11.770239 8.374352 -1.719350 0
M  V30 25 C 11.984467 8.089096 -4.296086 0 CFG=2
M  V30 26 C 9.896616 6.353475 -7.858180 0
M  V30 27 N 7.752475 4.789658 -10.372349 0
M  V30 28 H 10.268912 9.590459 -6.750851 0
M  V30 29 H 11.771952 9.987839 -7.611134 0
M  V30 30 H 6.607651 3.743776 -15.497170 0
M  V30 31 H 7.682567 4.236681 -8.383217 0
M  V30 32 H 8.901851 5.714958 -15.102350 0
M  V30 33 H 8.984670 3.985871 -15.292322 0
M  V30 34 H 9.533734 4.288568 -13.014471 0
M  V30 35 H 7.855115 3.820296 -12.940521 0
M  V30 36 H 12.665418 7.846671 -7.185048 0
M  V30 37 H 4.979092 5.539220 -14.929848 0
M  V30 38 H 10.460315 7.833559 -11.422549 0
M  V30 39 H 6.069238 5.743645 -12.288142 0
M  V30 40 H 6.694649 7.330058 -11.960695 0
M  V30 41 H 13.369613 9.448025 -1.507346 0
M  V30 42 H 11.777309 8.710737 -9.505695 0
M  V30 43 H 11.732405 6.260955 -5.487223 0
M  V30 44 H 10.299476 7.257300 -5.293101 0
M  V30 45 H 7.225612 7.535491 -14.492264 0
M  V30 46 H 5.548154 7.594259 -13.975126 0
M  V30 47 H 11.576093 11.140170 -5.411839 0
M  V30 48 H 13.001210 10.122424 -5.517019 0
M  V30 49 H 8.934408 6.685027 -12.818536 0
M  V30 50 H 10.880327 6.790345 -2.932455 0
M  V30 51 H 11.120734 7.989342 -0.937904 0
M  V30 52 H 11.367738 9.348981 -1.976148 0
M  V30 53 H 13.051117 8.246658 -4.385024 0
M  V30 54 H 9.731602 5.944743 -6.873630 0
M  V30 END ATOM
M  V30 BEGIN BOND
M  V30 1 1 4 3
M  V30 2 1 5 2
M  V30 3 1 6 5
M  V30 4 1 8 1
M  V30 5 1 8 7
M  V30 6 1 9 2
M  V30 7 1 14 7
M  V30 8 2 14 10
M  V30 9 1 16 8
M  V30 10 1 17 9
M  V30 11 1 17 12
M  V30 12 1 19 1
M  V30 13 1 19 15
M  V30 14 1 20 6
M  V30 15 1 20 11
M  V30 16 1 20 12
M  V30 17 2 21 4
M  V30 18 1 21 10
M  V30 19 1 21 11
M  V30 20 1 22 2
M  V30 21 1 22 9
M  V30 22 1 23 18
M  V30 23 1 24 13
M  V30 24 1 24 23
M  V30 25 1 25 15
M  V30 26 1 25 16
M  V30 27 1 25 23
M  V30 28 1 26 4
M  V30 29 2 26 7
M  V30 30 2 27 3
M  V30 31 1 27 11
M  V30 32 1 28 1
M  V30 33 1 29 1
M  V30 34 1 2 30 CFG=3
M  V30 35 1 31 3
M  V30 36 1 32 5
M  V30 37 1 33 5
M  V30 38 1 34 6
M  V30 39 1 35 6
M  V30 40 1 8 36 CFG=3
M  V30 41 1 9 37 CFG=3
M  V30 42 1 38 10
M  V30 43 1 39 12
M  V30 44 1 40 12
M  V30 45 1 41 13
M  V30 46 1 42 14
M  V30 47 1 43 16
M  V30 48 1 44 16
M  V30 49 1 45 17
M  V30 50 1 46 17
M  V30 51 1 47 19
M  V30 52 1 48 19
M  V30 53 1 20 49 CFG=3
M  V30 54 1 23 50 CFG=3
M  V30 55 1 51 24
M  V30 56 1 52 24
M  V30 57 1 25 53 CFG=3
M  V30 58 1 54 26
M  V30 END BOND
M  V30 END CTAB
M  END
>  <i_epik_Tot_Q>  (1) 
0

>  <i_epik_Tot_abs_Q>  (1) 
0

>  <i_i_glide_confnum>  (1) 
86

>  <i_i_glide_lignum>  (1) 
123

>  <i_i_glide_posenum>  (1) 
307

>  <i_i_glide_rotatable_bonds>  (1) 
5

>  <i_lp_mmshare_version>  (1) 
72125

>  <i_m_source_file_index>  (1) 
46

>  <i_f3d_flags>  (1) 
0

>  <num_sample>  (1) 
50

>  <b_lp_Chiralities_Consistent>  (1) 
1

>  <r_epik_Charging_Adjusted_Penalty>  (1) 
0

>  <r_epik_Ionization_Penalty>  (1) 
1.2822463511274088e-05

>  <r_epik_Ionization_Penalty_Charging>  (1) 
0

>  <r_epik_Ionization_Penalty_Neutral>  (1) 
1.2822463511274088e-05

>  <r_epik_State_Penalty>  (1) 
-0

>  <r_glide_ring_energy>  (1) 
0

>  <r_i_docking_score>  (1) 
-6.3637773934524633

>  <r_i_glide_ecoul>  (1) 
-3.1214631101254544

>  <r_i_glide_eff_state_penalty>  (1) 
-0

>  <r_i_glide_einternal>  (1) 
8.8573812181134404

>  <r_i_glide_emodel>  (1) 
-32.614166258882072

>  <r_i_glide_emodel_strain>  (1) 
4.3657156050971793

>  <r_i_glide_energy>  (1) 
-34.421989991918863

>  <r_i_glide_erotb>  (1) 
0.55159765068717725

>  <r_i_glide_esite>  (1) 
-0.053328560639794347

>  <r_i_glide_evdw>  (1) 
-31.300526881793409

>  <r_i_glide_gscore>  (1) 
-6.3637773934524633

>  <r_i_glide_gscore_strain>  (1) 
0.091428901274294816

>  <r_i_glide_hbond>  (1) 
-0.32000000000000001

>  <r_i_glide_ligand_efficiency>  (1) 
-0.2356954590167579

>  <r_i_glide_ligand_efficiency_ln>  (1) 
-1.4813824621258442

>  <r_i_glide_ligand_efficiency_sa>  (1) 
-0.70708637705027388

>  <r_i_glide_lipo>  (1) 
-2.5547886386394327

>  <r_i_glide_metal>  (1) 
-0

>  <r_i_glide_rewards>  (1) 
-2.0454409355262198

>  <r_lp_Energy>  (1) 
29.727612999999998

>  <r_lp_tautomer_probability>  (1) 
1

>  <s_epik_cmdline>  (1) 
J2VwaWtfcHl0aG9uJywgJy1waHQnLCAnMS4wJywgJy1waCcsICc3LjQnLCAnLXRuJywgJzgnLCAnLW1hJywgJzUwMCcsICctaW1hZScsICc8aW5maWxlLm1hZT4nLCAnLW9tYWUnLCAnPG91dGZpbGUubWFlPic=

>  <s_epik_input>  (1) 
W09IXVtDSDJdW0NASF0oRilbQ0BASF0oW0NIMl0xKU9bQ0gyXVtDSDJdW0NASF0xYyhbY0hdMilbY0hdW2NIXWMoYzIzKW4obltjSF0zKVtDQEBIXShbQ0gyXVtDSDJdNClbQ0gyXVtDSDJdW0NAQEhdKE81KVtDQEhdNDU=

>  <s_glide_docking_method>  (1) 
confgen

>  <s_i_glide_gridfile>  (1) 
gpcr_drd2_6luq_protein_autoprepared_prepared

>  <s_lp_Force_Field>  (1) 
S-OPLS

>  <s_lp_Variant>  (1) 
DiffSBDD_45-2

>  <s_m_source_file>  (1) 
generated_generic_title2_ligand_DiffSBDD_2026-06-23_prepared.sdf

>  <GenAI_Model>  (1) 
DiffSBDD

>  <Protein>  (1) 
generic_title2

$$$$
DiffSBDD_33
     RDKit          3D

  0  0  0  0  0  0  0  0  0  0999 V3000
M  V30 BEGIN CTAB
M  V30 COUNTS 57 63 0 0 1
M  V30 BEGIN ATOM
M  V30 1 C 8.874421 3.455344 -12.822529 0
M  V30 2 C 7.455638 5.217477 -13.929246 0
M  V30 3 C 9.274013 6.039535 -11.395331 0 CFG=2
M  V30 4 C 12.605882 7.822105 -8.623419 0
M  V30 5 C 6.434059 5.536014 -18.877067 0
M  V30 6 C 7.495535 7.340591 -12.404862 0
M  V30 7 C 7.168726 5.101799 -16.379490 0
M  V30 8 S 5.776958 7.013186 -15.279934 0
M  V30 9 C 8.051794 3.995502 -16.375406 0
M  V30 10 C 6.456867 5.770023 -17.476473 0
M  V30 11 C 9.037126 8.880653 -7.644041 0
M  V30 12 C 6.874816 5.716453 -15.100363 0
M  V30 13 C 5.638313 6.316198 -19.730381 0
M  V30 14 N 7.996393 5.345583 -11.456695 0
M  V30 15 C 4.834415 7.589657 -17.835593 0
M  V30 16 O 10.294320 7.713597 -6.016920 0
M  V30 17 C 9.478046 7.544902 -7.155949 0 CFG=2
M  V30 18 N 8.565762 3.547757 -15.217799 0
M  V30 19 C 5.626856 6.839134 -16.982601 0
M  V30 20 C 4.840012 7.340933 -19.207837 0
M  V30 21 N 9.375955 7.616600 -9.631540 0 CFG=1 CHG=1
M  V30 22 C 9.761169 6.266706 -9.972034 0
M  V30 23 C 8.962256 7.400564 -11.963518 0 CFG=1
M  V30 24 C 8.275063 4.110472 -14.045170 0
M  V30 25 C 10.048241 8.165844 -8.440584 0 CFG=1
M  V30 26 C 11.446143 8.802916 -8.617526 0
M  V30 27 C 8.169138 3.918458 -11.547437 0
M  V30 28 C 7.160956 5.847086 -12.549998 0 CFG=2
M  V30 29 C 9.323722 8.393539 -10.871384 0
M  V30 30 H 8.744266 2.374063 -12.899489 0
M  V30 31 H 9.947753 3.622941 -12.796400 0
M  V30 32 H 10.053131 5.549133 -11.969692 0
M  V30 33 H 13.574855 8.296370 -8.487640 0
M  V30 34 H 12.468378 7.177685 -7.766083 0
M  V30 35 H 12.671865 7.246807 -9.546996 0
M  V30 36 H 7.035896 4.738063 -19.291405 0
M  V30 37 H 6.840409 7.749463 -11.631930 0
M  V30 38 H 7.346308 7.924980 -13.304646 0
M  V30 39 H 8.317591 3.472715 -17.282982 0
M  V30 40 H 8.176267 9.180568 -8.197167 0
M  V30 41 H 9.411386 9.673813 -7.138534 0
M  V30 42 H 5.634786 6.120102 -20.791804 0
M  V30 43 H 4.218172 8.359844 -17.428088 0
M  V30 44 H 10.890970 6.985043 -5.968744 0
M  V30 45 H 8.708193 6.776396 -7.092076 0
M  V30 46 H 4.227071 7.933911 -19.861094 0
M  V30 47 H 10.828535 6.390045 -9.946667 0
M  V30 48 H 9.429038 5.525334 -9.248382 0
M  V30 49 H 9.630139 7.554888 -12.792754 0
M  V30 50 H 11.494326 9.455520 -9.486448 0
M  V30 51 H 11.636041 9.439226 -7.756206 0
M  V30 52 H 7.164694 3.497222 -11.551961 0
M  V30 53 H 8.729664 3.588643 -10.676444 0
M  V30 54 H 6.116930 5.637405 -12.301491 0
M  V30 55 H 8.599077 9.209722 -10.789012 0
M  V30 56 H 10.316684 8.771701 -11.100232 0
M  V30 57 H 8.365658 7.590272 -9.387720 0
M  V30 END ATOM
M  V30 BEGIN BOND
M  V30 1 2 9 7
M  V30 2 2 10 5
M  V30 3 1 10 7
M  V30 4 2 12 2
M  V30 5 1 12 7
M  V30 6 1 12 8
M  V30 7 1 13 5
M  V30 8 1 14 3
M  V30 9 1 17 11
M  V30 10 1 17 16
M  V30 11 1 18 9
M  V30 12 1 19 8
M  V30 13 1 19 10
M  V30 14 2 19 15
M  V30 15 2 20 13
M  V30 16 1 20 15
M  V30 17 1 22 3
M  V30 18 1 22 21
M  V30 19 1 23 3
M  V30 20 1 23 6
M  V30 21 1 24 1
M  V30 22 1 24 2
M  V30 23 2 24 18
M  V30 24 1 25 11
M  V30 25 1 25 17
M  V30 26 1 25 21
M  V30 27 1 26 4
M  V30 28 1 25 26 CFG=3
M  V30 29 1 27 1
M  V30 30 1 27 14
M  V30 31 1 28 2
M  V30 32 1 28 6
M  V30 33 1 28 14
M  V30 34 1 29 21
M  V30 35 1 29 23
M  V30 36 1 30 1
M  V30 37 1 31 1
M  V30 38 1 3 32 CFG=3
M  V30 39 1 33 4
M  V30 40 1 34 4
M  V30 41 1 35 4
M  V30 42 1 36 5
M  V30 43 1 37 6
M  V30 44 1 38 6
M  V30 45 1 39 9
M  V30 46 1 40 11
M  V30 47 1 41 11
M  V30 48 1 42 13
M  V30 49 1 43 15
M  V30 50 1 44 16
M  V30 51 1 17 45 CFG=3
M  V30 52 1 46 20
M  V30 53 1 47 22
M  V30 54 1 48 22
M  V30 55 1 23 49 CFG=3
M  V30 56 1 50 26
M  V30 57 1 51 26
M  V30 58 1 52 27
M  V30 59 1 53 27
M  V30 60 1 28 54 CFG=1
M  V30 61 1 55 29
M  V30 62 1 56 29
M  V30 63 1 21 57 CFG=1
M  V30 END BOND
M  V30 END CTAB
M  END
>  <i_epik_Tot_Q>  (1) 
1

>  <i_epik_Tot_abs_Q>  (1) 
1

>  <i_i_glide_confnum>  (1) 
1

>  <i_i_glide_lignum>  (1) 
96

>  <i_i_glide_posenum>  (1) 
79

>  <i_i_glide_rotatable_bonds>  (1) 
3

>  <i_lp_mmshare_version>  (1) 
72125

>  <i_m_source_file_index>  (1) 
34

>  <i_f3d_flags>  (1) 
0

>  <num_sample>  (1) 
50

>  <b_lp_Chiralities_Consistent>  (1) 
1

>  <r_epik_Charging_Adjusted_Penalty>  (1) 
0.0056247907503774904

>  <r_epik_Ionization_Penalty>  (1) 
0.066233849197789949

>  <r_epik_Ionization_Penalty_Charging>  (1) 
0.0056247907503774904

>  <r_epik_Ionization_Penalty_Neutral>  (1) 
0.060609058447412462

>  <r_epik_State_Penalty>  (1) 
-0

>  <r_glide_ring_energy>  (1) 
0

>  <r_i_docking_score>  (1) 
-6.3602321752034099

>  <r_i_glide_ecoul>  (1) 
-10.297980921325472

>  <r_i_glide_eff_state_penalty>  (1) 
-0

>  <r_i_glide_einternal>  (1) 
0.11835862799742802

>  <r_i_glide_emodel>  (1) 
-32.020382470167647

>  <r_i_glide_emodel_strain>  (1) 
0.2834609592580648

>  <r_i_glide_energy>  (1) 
-24.760415532240568

>  <r_i_glide_erotb>  (1) 
0.11895510521466947

>  <r_i_glide_esite>  (1) 
-0.10000000000000001

>  <r_i_glide_evdw>  (1) 
-14.462434610915096

>  <r_i_glide_gscore>  (1) 
-6.3602321752034099

>  <r_i_glide_gscore_strain>  (1) 
0

>  <r_i_glide_hbond>  (1) 
-0.15733874963562294

>  <r_i_glide_ligand_efficiency>  (1) 
-0.21931835086908311

>  <r_i_glide_ligand_efficiency_ln>  (1) 
-1.4563318865493724

>  <r_i_glide_ligand_efficiency_sa>  (1) 
-0.67381545955675637

>  <r_i_glide_lipo>  (1) 
-2.4479233929218167

>  <r_i_glide_metal>  (1) 
-0

>  <r_i_glide_rewards>  (1) 
-1.506106269116064

>  <r_lp_Energy>  (1) 
35.548580999999999

>  <r_lp_tautomer_probability>  (1) 
1

>  <s_epik_cmdline>  (1) 
J2VwaWtfcHl0aG9uJywgJy1waHQnLCAnMS4wJywgJy1waCcsICc3LjQnLCAnLXRuJywgJzgnLCAnLW1hJywgJzUwMCcsICctaW1hZScsICc8aW5maWxlLm1hZT4nLCAnLW9tYWUnLCAnPG91dGZpbGUubWFlPic=

>  <s_epik_input>  (1) 
W09IXVtDQEhdMVtDSDJdW0NAXTEoW0NIMl1bQ0gzXSlOKFtDSDJdMilbQ0gyXVtDQEhdKFtDSDJdW0NAQEhdMzQpW0NAQEhdMk40W0NIMl1bQ0gyXWM1bltjSF1jKGM2YzM1KWM3YyhzNilbY0hdW2NIXVtjSF1bY0hdNw==

>  <s_glide_docking_method>  (1) 
confgen

>  <s_i_glide_gridfile>  (1) 
gpcr_drd2_6luq_protein_autoprepared_prepared

>  <s_lp_Force_Field>  (1) 
S-OPLS

>  <s_lp_Variant>  (1) 
DiffSBDD_33-2

>  <s_m_source_file>  (1) 
generated_generic_title2_ligand_DiffSBDD_2026-06-23_prepared.sdf

>  <GenAI_Model>  (1) 
DiffSBDD

>  <Protein>  (1) 
generic_title2

$$$$
DiffSBDD_39
     RDKit          3D

  0  0  0  0  0  0  0  0  0  0999 V3000
M  V30 BEGIN CTAB
M  V30 COUNTS 68 71 0 0 1
M  V30 BEGIN ATOM
M  V30 1 C 9.449594 6.043369 -11.106338 0
M  V30 2 F 11.630442 11.190215 -6.103078 0
M  V30 3 F 10.736979 10.077722 -4.455133 0
M  V30 4 C 5.901963 6.139890 -18.865920 0
M  V30 5 C 8.808842 5.238233 -13.440739 0
M  V30 6 C 6.770312 3.915902 -13.866757 0 CFG=1
M  V30 7 O 5.538848 7.193837 -19.734324 0
M  V30 8 C 11.268937 8.993867 -8.000651 0 CFG=2
M  V30 9 C 7.048351 4.782639 -10.040428 0
M  V30 10 C 7.170578 6.071784 -15.124148 0 CFG=2
M  V30 11 O 13.376156 8.390122 -8.958651 0
M  V30 12 C 8.221320 5.201456 -9.143203 0
M  V30 13 N 8.975425 6.334015 -9.724070 0 CFG=1 CHG=1
M  V30 14 C 12.723901 9.321077 -5.475975 0
M  V30 15 C 8.297915 5.642996 -12.043959 0 CFG=1
M  V30 16 C 10.043895 6.799691 -8.805159 0
M  V30 17 O 13.325754 9.190232 -6.785027 0
M  V30 18 C 6.326570 4.138975 -12.402457 0
M  V30 19 N 7.707073 4.934409 -14.359559 0
M  V30 20 C 6.238718 6.687334 -17.466584 0 CFG=1
M  V30 21 C 5.011041 7.302482 -16.775745 0
M  V30 22 C 10.444412 8.258846 -9.089422 0
M  V30 23 C 7.506442 4.460082 -11.468191 0 CFG=2
M  V30 24 C 12.656014 8.405084 -7.747578 0 CFG=1
M  V30 25 C 10.605054 9.159737 -6.639458 0
M  V30 26 C 5.415982 7.879418 -15.416086 0
M  V30 27 C 11.375328 9.981456 -5.620558 0
M  V30 28 O 9.512731 8.660944 -6.385016 0
M  V30 29 C 5.940712 6.767437 -14.497029 0
M  V30 30 O 7.446656 2.683747 -13.991599 0
M  V30 31 C 6.872834 5.608605 -16.568545 0
M  V30 32 H 10.175408 5.233574 -11.085926 0
M  V30 33 H 9.955878 6.915820 -11.518423 0
M  V30 34 H 5.090381 5.413300 -18.815455 0
M  V30 35 H 6.765990 5.630321 -19.294428 0
M  V30 36 H 9.427398 4.343837 -13.348524 0
M  V30 37 H 9.467832 5.990162 -13.863620 0
M  V30 38 H 5.895884 3.865922 -14.512063 0
M  V30 39 H 4.820033 7.670622 -19.348133 0
M  V30 40 H 11.461777 9.990096 -8.391639 0
M  V30 41 H 6.560042 3.912123 -9.604659 0
M  V30 42 H 6.305112 5.582016 -10.058897 0
M  V30 43 H 7.965821 6.808676 -15.185004 0
M  V30 44 H 13.616932 9.284373 -9.184559 0
M  V30 45 H 8.922262 4.390210 -8.980966 0
M  V30 46 H 7.826520 5.481810 -8.165144 0
M  V30 47 H 13.384027 9.932818 -4.860386 0
M  V30 48 H 12.575408 8.390237 -4.925972 0
M  V30 49 H 7.646473 6.510727 -12.123956 0
M  V30 50 H 9.674051 6.702283 -7.786732 0
M  V30 51 H 10.910597 6.142004 -8.858952 0
M  V30 52 H 5.787189 3.262545 -12.041264 0
M  V30 53 H 5.608756 4.958375 -12.359363 0
M  V30 54 H 6.975424 7.472199 -17.585122 0
M  V30 55 H 4.587634 8.090456 -17.393741 0
M  V30 56 H 4.226423 6.553979 -16.653280 0
M  V30 57 H 10.975200 8.317970 -10.039125 0
M  V30 58 H 9.529002 8.835199 -9.240841 0
M  V30 59 H 8.167450 3.590527 -11.434042 0
M  V30 60 H 12.575390 7.373129 -7.402596 0
M  V30 61 H 6.186749 8.636860 -15.568670 0
M  V30 62 H 4.575363 8.390221 -14.950916 0
M  V30 63 H 6.185889 7.198633 -13.529402 0
M  V30 64 H 5.135862 6.052025 -14.331040 0
M  V30 65 H 7.660217 2.365022 -13.128562 0
M  V30 66 H 6.175415 4.790215 -16.531230 0
M  V30 67 H 7.782533 5.222569 -17.031670 0
M  V30 68 H 8.275002 7.082397 -9.756530 0
M  V30 END ATOM
M  V30 BEGIN BOND
M  V30 1 1 7 4
M  V30 2 1 12 9
M  V30 3 1 13 1
M  V30 4 1 13 12
M  V30 5 1 15 1
M  V30 6 1 15 5
M  V30 7 1 16 13
M  V30 8 1 17 14
M  V30 9 1 18 6
M  V30 10 1 19 5
M  V30 11 1 19 6
M  V30 12 1 19 10
M  V30 13 1 20 4
M  V30 14 1 21 20
M  V30 15 1 22 8
M  V30 16 1 22 16
M  V30 17 1 23 9
M  V30 18 1 23 15
M  V30 19 1 23 18
M  V30 20 1 24 8
M  V30 21 1 24 11
M  V30 22 1 24 17
M  V30 23 1 25 8
M  V30 24 1 26 21
M  V30 25 1 27 2
M  V30 26 1 27 3
M  V30 27 1 27 14
M  V30 28 1 27 25
M  V30 29 2 28 25
M  V30 30 1 29 10
M  V30 31 1 29 26
M  V30 32 1 30 6
M  V30 33 1 31 10
M  V30 34 1 31 20
M  V30 35 1 32 1
M  V30 36 1 33 1
M  V30 37 1 34 4
M  V30 38 1 35 4
M  V30 39 1 36 5
M  V30 40 1 37 5
M  V30 41 1 6 38 CFG=3
M  V30 42 1 39 7
M  V30 43 1 8 40 CFG=3
M  V30 44 1 41 9
M  V30 45 1 42 9
M  V30 46 1 10 43 CFG=3
M  V30 47 1 44 11
M  V30 48 1 45 12
M  V30 49 1 46 12
M  V30 50 1 47 14
M  V30 51 1 48 14
M  V30 52 1 15 49 CFG=3
M  V30 53 1 50 16
M  V30 54 1 51 16
M  V30 55 1 52 18
M  V30 56 1 53 18
M  V30 57 1 20 54 CFG=3
M  V30 58 1 55 21
M  V30 59 1 56 21
M  V30 60 1 57 22
M  V30 61 1 58 22
M  V30 62 1 23 59 CFG=1
M  V30 63 1 24 60 CFG=1
M  V30 64 1 61 26
M  V30 65 1 62 26
M  V30 66 1 63 29
M  V30 67 1 64 29
M  V30 68 1 65 30
M  V30 69 1 66 31
M  V30 70 1 67 31
M  V30 71 1 13 68 CFG=3
M  V30 END BOND
M  V30 END CTAB
M  END
>  <i_epik_Tot_Q>  (1) 
1

>  <i_epik_Tot_abs_Q>  (1) 
1

>  <i_i_glide_confnum>  (1) 
239

>  <i_i_glide_lignum>  (1) 
109

>  <i_i_glide_posenum>  (1) 
127

>  <i_i_glide_rotatable_bonds>  (1) 
8

>  <i_lp_mmshare_version>  (1) 
72125

>  <i_m_source_file_index>  (1) 
40

>  <i_f3d_flags>  (1) 
0

>  <num_sample>  (1) 
50

>  <b_lp_Chiralities_Consistent>  (1) 
1

>  <r_epik_Charging_Adjusted_Penalty>  (1) 
0.93182942678714009

>  <r_epik_Ionization_Penalty>  (1) 
0.32046720352224994

>  <r_epik_Ionization_Penalty_Charging>  (1) 
0.0037689991519664944

>  <r_epik_Ionization_Penalty_Neutral>  (1) 
0.31669820437028345

>  <r_epik_State_Penalty>  (1) 
0.9280604276351736

>  <r_glide_ring_energy>  (1) 
0

>  <r_i_docking_score>  (1) 
-6.3553049473506844

>  <r_i_glide_ecoul>  (1) 
-9.68304014615466

>  <r_i_glide_eff_state_penalty>  (1) 
0.9280604276351736

>  <r_i_glide_einternal>  (1) 
22.233424291272289

>  <r_i_glide_emodel>  (1) 
-34.411396431504244

>  <r_i_glide_emodel_strain>  (1) 
0.3340388834844461

>  <r_i_glide_energy>  (1) 
-31.240415161502838

>  <r_i_glide_erotb>  (1) 
0.49989103335302049

>  <r_i_glide_esite>  (1) 
-0.10000000000000001

>  <r_i_glide_evdw>  (1) 
-21.557375015348178

>  <r_i_glide_gscore>  (1) 
-7.2833653749858582

>  <r_i_glide_gscore_strain>  (1) 
0

>  <r_i_glide_hbond>  (1) 
-0.52000000000000002

>  <r_i_glide_ligand_efficiency>  (1) 
-0.2050098370113124

>  <r_i_glide_ligand_efficiency_ln>  (1) 
-1.4333160323336189

>  <r_i_glide_ligand_efficiency_sa>  (1) 
-0.64401393553724984

>  <r_i_glide_lipo>  (1) 
-2.3654145848361487

>  <r_i_glide_metal>  (1) 
-0

>  <r_i_glide_rewards>  (1) 
-2.2675170508121214

>  <r_lp_Energy>  (1) 
47.661428000000001

>  <s_epik_Chemistry_Notes>  (1) 
This compound contains an acetal/aminal-like group ( X-CH(R)-Y where X, Y are N, S, or O) that may be acid/base labile, releasing an aldehyde.

>  <s_epik_cmdline>  (1) 
J2VwaWtfcHl0aG9uJywgJy1waHQnLCAnMS4wJywgJy1waCcsICc3LjQnLCAnLXRuJywgJzgnLCAnLW1hJywgJzUwMCcsICctaW1hZScsICc8aW5maWxlLm1hZT4nLCAnLW9tYWUnLCAnPG91dGZpbGUubWFlPic=

>  <s_epik_input>  (1) 
RkMxKEYpW0NIMl1PW0NASF0oW09IXSlbQ0BIXShDMT1PKVtDSDJdW0NIMl1OKFtDSDJdMilbQ0gyXVtDSDJdW0NASF0oW0NAQEhdMjMpW0NIMl1bQ0BIXShbT0hdKU4oW0NIMl0zKVtDQEBIXTRbQ0gyXVtDSDJdW0NIMl1bQ0BASF0oW0NIMl00KVtDSDJdW09IXQ==

>  <s_glide_docking_method>  (1) 
confgen

>  <s_i_glide_gridfile>  (1) 
gpcr_drd2_6luq_protein_autoprepared_prepared

>  <s_lp_Force_Field>  (1) 
S-OPLS

>  <s_lp_Variant>  (1) 
DiffSBDD_39-5

>  <s_m_source_file>  (1) 
generated_generic_title2_ligand_DiffSBDD_2026-06-23_prepared.sdf

>  <GenAI_Model>  (1) 
DiffSBDD

>  <Protein>  (1) 
generic_title2

$$$$
DiffSBDD_33
     RDKit          3D

  0  0  0  0  0  0  0  0  0  0999 V3000
M  V30 BEGIN CTAB
M  V30 COUNTS 57 63 0 0 1
M  V30 BEGIN ATOM
M  V30 1 C 8.886510 3.551141 -12.855037 0
M  V30 2 C 7.478932 5.319936 -13.992062 0
M  V30 3 C 9.310514 6.120429 -11.480886 0 CFG=2
M  V30 4 C 12.339570 8.722891 -9.313440 0
M  V30 5 C 6.331758 5.513606 -18.941767 0
M  V30 6 C 7.572738 7.475867 -12.469025 0
M  V30 7 C 7.145410 5.150179 -16.439632 0
M  V30 8 S 5.775818 7.104333 -15.365143 0
M  V30 9 C 8.042371 4.040229 -16.422869 0
M  V30 10 C 6.391713 5.790276 -17.547532 0
M  V30 11 C 9.232998 8.790248 -7.335921 0
M  V30 12 C 6.878600 5.797615 -15.167677 0
M  V30 13 C 5.505684 6.260839 -19.802312 0
M  V30 14 N 8.022639 5.435585 -11.523596 0
M  V30 15 C 4.738047 7.590222 -17.929277 0
M  V30 16 O 10.175328 6.976915 -5.985102 0
M  V30 17 C 9.331306 7.312025 -7.069089 0 CFG=2
M  V30 18 N 8.575284 3.605219 -15.260587 0
M  V30 19 C 5.567867 6.870280 -17.065397 0
M  V30 20 C 4.711416 7.294159 -19.295558 0
M  V30 21 N 9.375411 7.474385 -9.507668 0 CFG=1 CHG=1
M  V30 22 C 9.851737 6.212287 -10.054765 0
M  V30 23 C 9.005266 7.535507 -11.916544 0 CFG=1
M  V30 24 C 8.294342 4.197212 -14.092066 0
M  V30 25 C 10.062745 7.923468 -8.254071 0 CFG=1
M  V30 26 C 11.600076 7.938976 -8.223577 0
M  V30 27 C 8.144639 3.990332 -11.587321 0
M  V30 28 C 7.207862 5.978750 -12.615475 0 CFG=2
M  V30 29 C 9.296895 8.390195 -10.664283 0
M  V30 30 H 8.797070 2.467991 -12.947557 0
M  V30 31 H 9.955430 3.745852 -12.786923 0
M  V30 32 H 10.050798 5.703250 -12.159689 0
M  V30 33 H 13.396755 8.792001 -9.057388 0
M  V30 34 H 12.300781 8.229392 -10.282977 0
M  V30 35 H 11.950786 9.736323 -9.417313 0
M  V30 36 H 6.930681 4.712185 -19.348139 0
M  V30 37 H 6.888774 7.928195 -11.749924 0
M  V30 38 H 7.476887 8.039120 -13.393122 0
M  V30 39 H 8.295863 3.500593 -17.324134 0
M  V30 40 H 8.296110 9.190126 -7.711733 0
M  V30 41 H 9.783392 9.452736 -6.675235 0
M  V30 42 H 5.481536 6.031906 -20.858257 0
M  V30 43 H 4.126667 8.389897 -17.539458 0
M  V30 44 H 10.689894 7.732878 -5.751658 0
M  V30 45 H 8.493155 6.637429 -7.227710 0
M  V30 46 H 4.078972 7.864904 -19.958469 0
M  V30 47 H 10.915376 6.390227 -10.120813 0
M  V30 48 H 9.655212 5.349116 -9.417969 0
M  V30 49 H 9.684586 7.824355 -12.718364 0
M  V30 50 H 11.910745 8.376448 -7.274646 0
M  V30 51 H 11.945524 6.911494 -8.182377 0
M  V30 52 H 7.131661 3.589503 -11.580519 0
M  V30 53 H 8.670245 3.614922 -10.713664 0
M  V30 54 H 6.152357 5.823952 -12.387210 0
M  V30 55 H 8.584653 9.201525 -10.508343 0
M  V30 56 H 10.286253 8.790217 -10.810685 0
M  V30 57 H 8.376553 7.369246 -9.287012 0
M  V30 END ATOM
M  V30 BEGIN BOND
M  V30 1 2 9 7
M  V30 2 2 10 5
M  V30 3 1 10 7
M  V30 4 2 12 2
M  V30 5 1 12 7
M  V30 6 1 12 8
M  V30 7 1 13 5
M  V30 8 1 14 3
M  V30 9 1 17 11
M  V30 10 1 17 16
M  V30 11 1 18 9
M  V30 12 1 19 8
M  V30 13 1 19 10
M  V30 14 2 19 15
M  V30 15 2 20 13
M  V30 16 1 20 15
M  V30 17 1 22 3
M  V30 18 1 22 21
M  V30 19 1 23 3
M  V30 20 1 23 6
M  V30 21 1 24 1
M  V30 22 1 24 2
M  V30 23 2 24 18
M  V30 24 1 25 11
M  V30 25 1 25 17
M  V30 26 1 25 21
M  V30 27 1 26 4
M  V30 28 1 25 26 CFG=3
M  V30 29 1 27 1
M  V30 30 1 27 14
M  V30 31 1 28 2
M  V30 32 1 28 6
M  V30 33 1 28 14
M  V30 34 1 29 21
M  V30 35 1 29 23
M  V30 36 1 30 1
M  V30 37 1 31 1
M  V30 38 1 3 32 CFG=3
M  V30 39 1 33 4
M  V30 40 1 34 4
M  V30 41 1 35 4
M  V30 42 1 36 5
M  V30 43 1 37 6
M  V30 44 1 38 6
M  V30 45 1 39 9
M  V30 46 1 40 11
M  V30 47 1 41 11
M  V30 48 1 42 13
M  V30 49 1 43 15
M  V30 50 1 44 16
M  V30 51 1 17 45 CFG=3
M  V30 52 1 46 20
M  V30 53 1 47 22
M  V30 54 1 48 22
M  V30 55 1 23 49 CFG=3
M  V30 56 1 50 26
M  V30 57 1 51 26
M  V30 58 1 52 27
M  V30 59 1 53 27
M  V30 60 1 28 54 CFG=1
M  V30 61 1 55 29
M  V30 62 1 56 29
M  V30 63 1 21 57 CFG=1
M  V30 END BOND
M  V30 END CTAB
M  END
>  <i_epik_Tot_Q>  (1) 
1

>  <i_epik_Tot_abs_Q>  (1) 
1

>  <i_i_glide_confnum>  (1) 
2

>  <i_i_glide_lignum>  (1) 
96

>  <i_i_glide_posenum>  (1) 
278

>  <i_i_glide_rotatable_bonds>  (1) 
3

>  <i_lp_mmshare_version>  (1) 
72125

>  <i_m_source_file_index>  (1) 
34

>  <i_f3d_flags>  (1) 
0

>  <num_sample>  (1) 
50

>  <b_lp_Chiralities_Consistent>  (1) 
1

>  <r_epik_Charging_Adjusted_Penalty>  (1) 
0.0056247907503774904

>  <r_epik_Ionization_Penalty>  (1) 
0.066233849197789949

>  <r_epik_Ionization_Penalty_Charging>  (1) 
0.0056247907503774904

>  <r_epik_Ionization_Penalty_Neutral>  (1) 
0.060609058447412462

>  <r_epik_State_Penalty>  (1) 
-0

>  <r_glide_ring_energy>  (1) 
0

>  <r_i_docking_score>  (1) 
-6.3489608560638899

>  <r_i_glide_ecoul>  (1) 
-5.9499233762349828

>  <r_i_glide_eff_state_penalty>  (1) 
-0

>  <r_i_glide_einternal>  (1) 
0.39829833930414971

>  <r_i_glide_emodel>  (1) 
-37.047397472990504

>  <r_i_glide_emodel_strain>  (1) 
0.29065249234285773

>  <r_i_glide_energy>  (1) 
-29.948064924441987

>  <r_i_glide_erotb>  (1) 
0.11895510521466947

>  <r_i_glide_esite>  (1) 
-0.10000000000000001

>  <r_i_glide_evdw>  (1) 
-23.998141548207006

>  <r_i_glide_gscore>  (1) 
-6.3489608560638899

>  <r_i_glide_gscore_strain>  (1) 
0

>  <r_i_glide_hbond>  (1) 
-0.19305274400171152

>  <r_i_glide_ligand_efficiency>  (1) 
-0.21892968469185828

>  <r_i_glide_ligand_efficiency_ln>  (1) 
-1.453751040282415

>  <r_i_glide_ligand_efficiency_sa>  (1) 
-0.67262135392089351

>  <r_i_glide_lipo>  (1) 
-2.5871406182797343

>  <r_i_glide_metal>  (1) 
-0

>  <r_i_glide_rewards>  (1) 
-1.4953270151515157

>  <r_lp_Energy>  (1) 
35.548580999999999

>  <r_lp_tautomer_probability>  (1) 
1

>  <s_epik_cmdline>  (1) 
J2VwaWtfcHl0aG9uJywgJy1waHQnLCAnMS4wJywgJy1waCcsICc3LjQnLCAnLXRuJywgJzgnLCAnLW1hJywgJzUwMCcsICctaW1hZScsICc8aW5maWxlLm1hZT4nLCAnLW9tYWUnLCAnPG91dGZpbGUubWFlPic=

>  <s_epik_input>  (1) 
W09IXVtDQEhdMVtDSDJdW0NAXTEoW0NIMl1bQ0gzXSlOKFtDSDJdMilbQ0gyXVtDQEhdKFtDSDJdW0NAQEhdMzQpW0NAQEhdMk40W0NIMl1bQ0gyXWM1bltjSF1jKGM2YzM1KWM3YyhzNilbY0hdW2NIXVtjSF1bY0hdNw==

>  <s_glide_docking_method>  (1) 
confgen

>  <s_i_glide_gridfile>  (1) 
gpcr_drd2_6luq_protein_autoprepared_prepared

>  <s_lp_Force_Field>  (1) 
S-OPLS

>  <s_lp_Variant>  (1) 
DiffSBDD_33-2

>  <s_m_source_file>  (1) 
generated_generic_title2_ligand_DiffSBDD_2026-06-23_prepared.sdf

>  <GenAI_Model>  (1) 
DiffSBDD

>  <Protein>  (1) 
generic_title2

$$$$
DiffSBDD_46
     RDKit          3D

  0  0  0  0  0  0  0  0  0  0999 V3000
M  V30 BEGIN CTAB
M  V30 COUNTS 57 60 0 0 1
M  V30 BEGIN ATOM
M  V30 1 O 10.178233 5.598069 -7.740380 0
M  V30 2 C 11.452588 8.618971 -9.239893 0
M  V30 3 C 7.362126 2.303180 -14.928393 0
M  V30 4 C 12.576091 8.504938 -1.844734 0
M  V30 5 C 10.868216 8.902019 -6.396741 0
M  V30 6 C 11.299055 9.515463 -5.197604 0
M  V30 7 N 8.512481 5.804369 -11.592778 0
M  V30 8 C 8.101057 5.316144 -9.217664 0
M  V30 9 C 9.256685 6.643382 -12.553150 0
M  V30 10 N 10.507745 7.471118 -9.035582 0
M  V30 11 C 6.370815 5.250041 -12.814458 0
M  V30 12 C 11.773321 7.319356 -4.257916 0
M  V30 13 C 10.945489 7.490781 -6.547436 0
M  V30 14 C 12.731570 8.136069 -9.935169 0
M  V30 15 C 7.045507 3.001173 -13.597482 0 CFG=1
M  V30 16 C 11.758331 8.722550 -4.128444 0
M  V30 17 C 9.831607 6.944845 -10.242573 0
M  V30 18 C 8.253337 3.741955 -13.025303 0
M  V30 19 C 11.375271 6.713139 -5.456569 0
M  V30 20 C 10.500923 6.770231 -7.827034 0
M  V30 21 C 12.162518 9.316045 -2.914267 0
M  V30 22 C 5.929883 4.060122 -13.683550 0
M  V30 23 C 10.254144 7.528435 -11.591363 0
M  V30 24 C 7.612160 4.750580 -12.076760 0 CFG=1
M  V30 25 C 12.575403 7.107136 -1.985877 0
M  V30 26 C 8.870844 6.032565 -10.326461 0
M  V30 27 C 12.174513 6.521710 -3.185499 0
M  V30 28 H 10.969248 9.396409 -9.815869 0
M  V30 29 H 11.921602 9.150905 -8.429518 0
M  V30 30 H 7.746941 3.013050 -15.660306 0
M  V30 31 H 8.123010 1.533659 -14.788642 0
M  V30 32 H 6.480514 1.825730 -15.355468 0
M  V30 33 H 12.887683 8.955563 -0.912983 0
M  V30 34 H 10.471898 9.509899 -7.181923 0
M  V30 35 H 11.250080 10.589646 -5.094203 0
M  V30 36 H 8.580890 4.390086 -8.934800 0
M  V30 37 H 7.935520 5.958789 -8.353262 0
M  V30 38 H 7.079303 5.082934 -9.511481 0
M  V30 39 H 9.835939 6.035418 -13.251689 0
M  V30 40 H 8.576705 7.281325 -13.117339 0
M  V30 41 H 5.594785 5.577166 -12.119395 0
M  V30 42 H 6.610715 6.095884 -13.459981 0
M  V30 43 H 13.592394 8.105757 -9.263613 0
M  V30 44 H 12.575287 7.126664 -10.289759 0
M  V30 45 H 12.994360 8.771013 -10.781711 0
M  V30 46 H 6.729336 2.254805 -12.867649 0
M  V30 47 H 8.785502 4.243338 -13.832747 0
M  V30 48 H 8.955350 3.075473 -12.518053 0
M  V30 49 H 11.402213 5.635539 -5.542128 0
M  V30 50 H 12.140471 10.387978 -2.794377 0
M  V30 51 H 4.976607 3.651867 -13.341932 0
M  V30 52 H 5.786922 4.395800 -14.709685 0
M  V30 53 H 10.017315 8.596248 -11.667310 0
M  V30 54 H 11.273975 7.314395 -11.894949 0
M  V30 55 H 7.256840 4.133416 -11.256024 0
M  V30 56 H 12.897693 6.481231 -1.177982 0
M  V30 57 H 12.177937 5.451726 -3.285472 0
M  V30 END ATOM
M  V30 BEGIN BOND
M  V30 1 2 6 5
M  V30 2 1 9 7
M  V30 3 1 10 2
M  V30 4 1 13 5
M  V30 5 1 14 2
M  V30 6 1 15 3
M  V30 7 1 16 6
M  V30 8 1 16 12
M  V30 9 1 17 10
M  V30 10 1 18 15
M  V30 11 1 19 12
M  V30 12 2 19 13
M  V30 13 2 20 1
M  V30 14 1 20 10
M  V30 15 1 20 13
M  V30 16 1 21 4
M  V30 17 2 21 16
M  V30 18 1 22 11
M  V30 19 1 22 15
M  V30 20 1 23 9
M  V30 21 1 23 17
M  V30 22 1 24 7
M  V30 23 1 24 11
M  V30 24 1 24 18
M  V30 25 2 25 4
M  V30 26 1 26 7
M  V30 27 1 26 8
M  V30 28 2 26 17
M  V30 29 2 27 12
M  V30 30 1 27 25
M  V30 31 1 28 2
M  V30 32 1 29 2
M  V30 33 1 30 3
M  V30 34 1 31 3
M  V30 35 1 32 3
M  V30 36 1 33 4
M  V30 37 1 34 5
M  V30 38 1 35 6
M  V30 39 1 36 8
M  V30 40 1 37 8
M  V30 41 1 38 8
M  V30 42 1 39 9
M  V30 43 1 40 9
M  V30 44 1 41 11
M  V30 45 1 42 11
M  V30 46 1 43 14
M  V30 47 1 44 14
M  V30 48 1 45 14
M  V30 49 1 15 46 CFG=1
M  V30 50 1 47 18
M  V30 51 1 48 18
M  V30 52 1 49 19
M  V30 53 1 50 21
M  V30 54 1 51 22
M  V30 55 1 52 22
M  V30 56 1 53 23
M  V30 57 1 54 23
M  V30 58 1 24 55 CFG=1
M  V30 59 1 56 25
M  V30 60 1 57 27
M  V30 END BOND
M  V30 END CTAB
M  END
>  <i_epik_Tot_Q>  (1) 
0

>  <i_epik_Tot_abs_Q>  (1) 
0

>  <i_i_glide_confnum>  (1) 
68

>  <i_i_glide_lignum>  (1) 
124

>  <i_i_glide_posenum>  (1) 
204

>  <i_i_glide_rotatable_bonds>  (1) 
5

>  <i_lp_mmshare_version>  (1) 
72125

>  <i_m_source_file_index>  (1) 
47

>  <i_f3d_flags>  (1) 
0

>  <num_sample>  (1) 
50

>  <b_lp_Chiralities_Consistent>  (1) 
1

>  <r_epik_Charging_Adjusted_Penalty>  (1) 
7.6326947449564099e-08

>  <r_epik_Ionization_Penalty>  (1) 
7.1791624653063315e-05

>  <r_epik_Ionization_Penalty_Charging>  (1) 
7.6326947449564099e-08

>  <r_epik_Ionization_Penalty_Neutral>  (1) 
7.1715297705613756e-05

>  <r_epik_State_Penalty>  (1) 
-0

>  <r_glide_ring_energy>  (1) 
0

>  <r_i_docking_score>  (1) 
-6.3260350948177742

>  <r_i_glide_ecoul>  (1) 
1.0664545739876383

>  <r_i_glide_eff_state_penalty>  (1) 
-0

>  <r_i_glide_einternal>  (1) 
36.434277648923455

>  <r_i_glide_emodel>  (1) 
-24.09853420648016

>  <r_i_glide_emodel_strain>  (1) 
1.963134934108183

>  <r_i_glide_energy>  (1) 
-34.401243543614576

>  <r_i_glide_erotb>  (1) 
0.58447327232945689

>  <r_i_glide_esite>  (1) 
-0.059913277598311582

>  <r_i_glide_evdw>  (1) 
-35.467698117602218

>  <r_i_glide_gscore>  (1) 
-6.3260350948177742

>  <r_i_glide_gscore_strain>  (1) 
0

>  <r_i_glide_hbond>  (1) 
0

>  <r_i_glide_ligand_efficiency>  (1) 
-0.23429759610436202

>  <r_i_glide_ligand_efficiency_ln>  (1) 
-1.4725966772341115

>  <r_i_glide_ligand_efficiency_sa>  (1) 
-0.7028927883130861

>  <r_i_glide_lipo>  (1) 
-3.7604965076418386

>  <r_i_glide_metal>  (1) 
-0

>  <r_i_glide_rewards>  (1) 
-1.476681862125115

>  <r_lp_Energy>  (1) 
50.30068

>  <r_lp_tautomer_probability>  (1) 
1

>  <s_epik_Chemistry_Notes>  (1) 
This compound has an imine and may undergo hydrolysis.

>  <s_epik_cmdline>  (1) 
J2VwaWtfcHl0aG9uJywgJy1waHQnLCAnMS4wJywgJy1waCcsICc3LjQnLCAnLXRuJywgJzgnLCAnLW1hJywgJzUwMCcsICctaW1hZScsICc8aW5maWxlLm1hZT4nLCAnLW9tYWUnLCAnPG91dGZpbGUubWFlPic=

>  <s_epik_input>  (1) 
W2NIXTFbY0hdW2NIXVtjSF1jKGMxMilbY0hdW2NIXWMoW2NIXTIpQyg9TylOKFtDSDJdW0NIM10pQyg9QzNbQ0gzXSlbQ0gyXVtDSDJdTjNbQ0BASF0oW0NIMl1bQ0gyXTQpW0NIMl1bQ0BASF00W0NIM10=

>  <s_glide_docking_method>  (1) 
confgen

>  <s_i_glide_gridfile>  (1) 
gpcr_drd2_6luq_protein_autoprepared_prepared

>  <s_lp_Force_Field>  (1) 
S-OPLS

>  <s_lp_Variant>  (1) 
DiffSBDD_46-1

>  <s_m_source_file>  (1) 
generated_generic_title2_ligand_DiffSBDD_2026-06-23_prepared.sdf

>  <GenAI_Model>  (1) 
DiffSBDD

>  <Protein>  (1) 
generic_title2

$$$$
DiffSBDD_3
     RDKit          3D

  0  0  0  0  0  0  0  0  0  0999 V3000
M  V30 BEGIN CTAB
M  V30 COUNTS 27 27 0 0 1
M  V30 BEGIN ATOM
M  V30 1 C 10.682303 8.098812 -9.151719 0
M  V30 2 C 12.043660 8.372113 -8.872113 0
M  V30 3 C 11.380074 8.854984 -6.588808 0
M  V30 4 C 6.005906 6.477589 -13.881717 0
M  V30 5 C 7.524161 5.839684 -11.930515 0
M  V30 6 N 10.083985 8.594187 -6.856778 0
M  V30 7 C 6.941152 5.418271 -13.287041 0
M  V30 8 Cl 11.806485 9.327549 -4.985608 0
M  V30 9 C 12.392808 8.757273 -7.566889 0
M  V30 10 N 8.981525 7.472393 -10.744931 0 CHG=1
M  V30 11 C 8.450594 7.063829 -12.045936 0
M  V30 12 C 10.241054 7.686322 -10.504412 0
M  V30 13 C 9.748424 8.226241 -8.108193 0
M  V30 14 H 12.809295 8.290463 -9.633073 0
M  V30 15 H 5.609699 6.150398 -14.842192 0
M  V30 16 H 5.160715 6.673476 -13.222067 0
M  V30 17 H 6.528559 7.420011 -14.045562 0
M  V30 18 H 8.081705 5.004861 -11.502182 0
M  V30 19 H 6.708432 6.052987 -11.237134 0
M  V30 20 H 7.751284 5.219353 -13.989255 0
M  V30 21 H 6.393694 4.480645 -13.175794 0
M  V30 22 H 13.420152 8.973489 -7.309459 0
M  V30 23 H 7.903921 7.912549 -12.471661 0
M  V30 24 H 9.296905 6.853050 -12.685296 0
M  V30 25 H 10.966443 7.567428 -11.287367 0
M  V30 26 H 8.707434 8.028766 -8.279157 0
M  V30 27 H 8.280550 7.590253 -9.980288 0
M  V30 END ATOM
M  V30 BEGIN BOND
M  V30 1 1 2 1
M  V30 2 2 6 3
M  V30 3 1 7 4
M  V30 4 1 7 5
M  V30 5 1 8 3
M  V30 6 2 9 2
M  V30 7 1 9 3
M  V30 8 1 11 5
M  V30 9 1 11 10
M  V30 10 1 12 1
M  V30 11 2 12 10
M  V30 12 2 13 1
M  V30 13 1 13 6
M  V30 14 1 14 2
M  V30 15 1 15 4
M  V30 16 1 16 4
M  V30 17 1 17 4
M  V30 18 1 18 5
M  V30 19 1 19 5
M  V30 20 1 20 7
M  V30 21 1 21 7
M  V30 22 1 22 9
M  V30 23 1 23 11
M  V30 24 1 24 11
M  V30 25 1 25 12
M  V30 26 1 26 13
M  V30 27 1 27 10
M  V30 END BOND
M  V30 END CTAB
M  END
>  <i_epik_Tot_Q>  (1) 
1

>  <i_epik_Tot_abs_Q>  (1) 
1

>  <i_i_glide_confnum>  (1) 
4

>  <i_i_glide_lignum>  (1) 
25

>  <i_i_glide_posenum>  (1) 
249

>  <i_i_glide_rotatable_bonds>  (1) 
4

>  <i_lp_mmshare_version>  (1) 
72125

>  <i_m_source_file_index>  (1) 
4

>  <i_f3d_flags>  (1) 
0

>  <num_sample>  (1) 
50

>  <b_lp_Chiralities_Consistent>  (1) 
1

>  <r_epik_Charging_Adjusted_Penalty>  (1) 
0.029699158874294952

>  <r_epik_Ionization_Penalty>  (1) 
0.014849585528506534

>  <r_epik_Ionization_Penalty_Charging>  (1) 
0.014849579437147471

>  <r_epik_Ionization_Penalty_Neutral>  (1) 
6.091359062829099e-09

>  <r_epik_State_Penalty>  (1) 
0.01484957943714748

>  <r_glide_ring_energy>  (1) 
0

>  <r_i_docking_score>  (1) 
-6.3242609032631387

>  <r_i_glide_ecoul>  (1) 
-12.382705794334267

>  <r_i_glide_eff_state_penalty>  (1) 
0.01484957943714748

>  <r_i_glide_einternal>  (1) 
1.8571434648055949

>  <r_i_glide_emodel>  (1) 
-49.395667990806267

>  <r_i_glide_emodel_strain>  (1) 
0.00014450206792382403

>  <r_i_glide_energy>  (1) 
-32.460762627648521

>  <r_i_glide_erotb>  (1) 
0.83262420793162661

>  <r_i_glide_esite>  (1) 
-0.15027520119885687

>  <r_i_glide_evdw>  (1) 
-20.07805683331425

>  <r_i_glide_gscore>  (1) 
-6.3391104827002858

>  <r_i_glide_gscore_strain>  (1) 
0

>  <r_i_glide_hbond>  (1) 
-0.17568427750725718

>  <r_i_glide_ligand_efficiency>  (1) 
-0.48648160794331835

>  <r_i_glide_ligand_efficiency_ln>  (1) 
-1.7740114288093005

>  <r_i_glide_ligand_efficiency_sa>  (1) 
-1.1438810796952947

>  <r_i_glide_lipo>  (1) 
-1.3191318649542612

>  <r_i_glide_metal>  (1) 
-0

>  <r_i_glide_rewards>  (1) 
-2.6653346361556847

>  <r_lp_Energy>  (1) 
19.410530999999999

>  <s_epik_Chemistry_Notes>  (1) 
This compound has an imine and may undergo hydrolysis.

>  <s_epik_cmdline>  (1) 
J2VwaWtfcHl0aG9uJywgJy1waHQnLCAnMS4wJywgJy1waCcsICc3LjQnLCAnLXRuJywgJzgnLCAnLW1hJywgJzUwMCcsICctaW1hZScsICc8aW5maWxlLm1hZT4nLCAnLW9tYWUnLCAnPG91dGZpbGUubWFlPic=

>  <s_epik_input>  (1) 
W2NIXTFuYyhDbClbY0hdW2NIXWMxXFtDSF09TlxbQ0gyXVtDSDJdW0NIMl1bQ0gzXQ==

>  <s_glide_docking_method>  (1) 
confgen

>  <s_i_glide_gridfile>  (1) 
gpcr_drd2_6luq_protein_autoprepared_prepared

>  <s_lp_Force_Field>  (1) 
S-OPLS

>  <s_lp_Variant>  (1) 
DiffSBDD_3-1

>  <s_m_source_file>  (1) 
generated_generic_title2_ligand_DiffSBDD_2026-06-23_prepared.sdf

>  <GenAI_Model>  (1) 
DiffSBDD

>  <Protein>  (1) 
generic_title2

$$$$
DiffSBDD_6
     RDKit          3D

  0  0  0  0  0  0  0  0  0  0999 V3000
M  V30 BEGIN CTAB
M  V30 COUNTS 73 76 0 0 1
M  V30 BEGIN ATOM
M  V30 1 C 5.144477 7.703708 -17.229703 0
M  V30 2 C 5.534147 6.304196 -16.759103 0 CFG=1
M  V30 3 N 7.869412 5.377402 -11.864676 0
M  V30 4 C 7.962398 5.222685 -9.385994 0
M  V30 5 O 12.554864 8.389227 -10.384612 0
M  V30 6 C 8.699160 5.646212 -10.646902 0 CFG=2
M  V30 7 C 13.344380 8.528960 -8.181123 0
M  V30 8 C 6.876071 5.919680 -17.258432 0
M  V30 9 N 9.898418 4.955723 -15.607771 0
M  V30 10 C 7.120879 6.023823 -18.769038 0
M  V30 11 O 10.926302 7.574731 -7.251090 0
M  V30 12 C 12.096381 8.570470 -9.064928 0 CFG=2
M  V30 13 C 9.145050 5.152408 -16.687561 0
M  V30 14 C 5.815512 6.097121 -15.226735 0 CFG=2
M  V30 15 C 6.783987 6.912419 -14.399190 0 CFG=1
M  V30 16 C 8.300918 4.540245 -12.837955 0
M  V30 17 C 5.097768 6.931393 -21.757023 0
M  V30 18 C 11.175565 6.363909 -6.553998 0
M  V30 19 C 6.467859 7.191346 -12.938153 0
M  V30 20 C 7.756530 5.546211 -16.338632 0
M  V30 21 C 11.056373 6.623046 -5.051847 0
M  V30 22 C 9.663087 7.718556 -9.242862 0
M  V30 23 C 11.066391 7.483068 -8.669052 0 CFG=2
M  V30 24 C 6.211287 7.058431 -19.437117 0
M  V30 25 C 9.303671 7.089481 -10.620942 0
M  V30 26 F 4.570454 5.752620 -21.425005 0
M  V30 27 C 7.271923 5.575879 -14.937279 0 CFG=2
M  V30 28 C 6.537339 6.016187 -11.946284 0
M  V30 29 C 7.383870 4.330326 -14.054812 0
M  V30 30 C 8.481720 4.434229 -8.442921 0
M  V30 31 F 4.195331 7.892877 -21.570014 0
M  V30 32 O 9.590430 5.014709 -17.822745 0
M  V30 33 F 5.410439 6.904714 -23.050946 0
M  V30 34 C 6.375821 7.201858 -20.944429 0
M  V30 35 C 5.333549 7.808341 -18.734757 0
M  V30 36 O 9.375643 3.960051 -12.783777 0
M  V30 37 H 5.748572 8.473242 -16.748625 0
M  V30 38 H 4.102386 7.901170 -16.977190 0
M  V30 39 H 4.792664 5.590231 -17.107153 0
M  V30 40 H 6.962356 5.589889 -9.261118 0
M  V30 41 H 13.162204 9.093042 -10.570513 0
M  V30 42 H 9.577777 5.001401 -10.647730 0
M  V30 43 H 13.110099 8.796461 -7.152536 0
M  V30 44 H 14.134808 9.190258 -8.513944 0
M  V30 45 H 13.775410 7.540160 -8.185265 0
M  V30 46 H 10.866278 4.686182 -15.710914 0
M  V30 47 H 9.502949 5.070856 -14.686044 0
M  V30 48 H 8.125072 6.367075 -19.006079 0
M  V30 49 H 6.962809 5.048911 -19.232050 0
M  V30 50 H 11.648313 9.561393 -8.985317 0
M  V30 51 H 4.986427 5.653135 -14.677394 0
M  V30 52 H 7.186444 7.794413 -14.895074 0
M  V30 53 H 10.465695 5.595894 -6.861524 0
M  V30 54 H 12.175142 5.997501 -6.784152 0
M  V30 55 H 5.461479 7.605085 -12.893697 0
M  V30 56 H 7.126586 7.989778 -12.606201 0
M  V30 57 H 11.271954 5.723021 -4.476533 0
M  V30 58 H 10.045805 6.938927 -4.800487 0
M  V30 59 H 11.746021 7.402402 -4.727094 0
M  V30 60 H 9.476945 8.790921 -9.295228 0
M  V30 61 H 8.967687 7.376259 -8.485392 0
M  V30 62 H 11.396969 6.489047 -8.962487 0
M  V30 63 H 10.163149 7.139004 -11.290031 0
M  V30 64 H 8.576748 7.767478 -11.055123 0
M  V30 65 H 6.212713 6.390395 -10.983244 0
M  V30 66 H 5.767738 5.281939 -12.180989 0
M  V30 67 H 7.778428 3.505132 -14.647917 0
M  V30 68 H 6.398630 3.981515 -13.748254 0
M  V30 69 H 9.487334 4.047426 -8.523720 0
M  V30 70 H 7.904101 4.167123 -7.584990 0
M  V30 71 H 6.756170 8.199315 -21.164350 0
M  V30 72 H 7.149537 6.506647 -21.273684 0
M  V30 73 H 4.722020 8.536582 -19.246638 0
M  V30 END ATOM
M  V30 BEGIN BOND
M  V30 1 1 2 1
M  V30 2 1 6 3
M  V30 3 1 6 4
M  V30 4 1 8 2
M  V30 5 1 10 8
M  V30 6 1 12 5
M  V30 7 1 12 7
M  V30 8 1 13 9
M  V30 9 1 14 2
M  V30 10 1 15 14
M  V30 11 1 16 3
M  V30 12 1 18 11
M  V30 13 1 19 15
M  V30 14 2 20 8
M  V30 15 1 20 13
M  V30 16 1 21 18
M  V30 17 1 23 11
M  V30 18 1 23 12
M  V30 19 1 23 22
M  V30 20 1 24 10
M  V30 21 1 25 6
M  V30 22 1 25 22
M  V30 23 1 26 17
M  V30 24 1 27 14
M  V30 25 1 27 15
M  V30 26 1 27 20
M  V30 27 1 28 3
M  V30 28 1 28 19
M  V30 29 1 29 16
M  V30 30 1 27 29 CFG=1
M  V30 31 2 30 4
M  V30 32 1 31 17
M  V30 33 2 32 13
M  V30 34 1 33 17
M  V30 35 1 34 17
M  V30 36 1 34 24
M  V30 37 1 35 1
M  V30 38 2 35 24
M  V30 39 2 36 16
M  V30 40 1 37 1
M  V30 41 1 38 1
M  V30 42 1 2 39 CFG=3
M  V30 43 1 40 4
M  V30 44 1 41 5
M  V30 45 1 6 42 CFG=3
M  V30 46 1 43 7
M  V30 47 1 44 7
M  V30 48 1 45 7
M  V30 49 1 46 9
M  V30 50 1 47 9
M  V30 51 1 48 10
M  V30 52 1 49 10
M  V30 53 1 12 50 CFG=3
M  V30 54 1 14 51 CFG=1
M  V30 55 1 15 52 CFG=3
M  V30 56 1 53 18
M  V30 57 1 54 18
M  V30 58 1 55 19
M  V30 59 1 56 19
M  V30 60 1 57 21
M  V30 61 1 58 21
M  V30 62 1 59 21
M  V30 63 1 60 22
M  V30 64 1 61 22
M  V30 65 1 23 62 CFG=1
M  V30 66 1 63 25
M  V30 67 1 64 25
M  V30 68 1 65 28
M  V30 69 1 66 28
M  V30 70 1 67 29
M  V30 71 1 68 29
M  V30 72 1 69 30
M  V30 73 1 70 30
M  V30 74 1 71 34
M  V30 75 1 72 34
M  V30 76 1 73 35
M  V30 END BOND
M  V30 END CTAB
M  END
>  <i_epik_Tot_Q>  (1) 
0

>  <i_epik_Tot_abs_Q>  (1) 
0

>  <i_i_glide_confnum>  (1) 
625

>  <i_i_glide_lignum>  (1) 
30

>  <i_i_glide_posenum>  (1) 
369

>  <i_i_glide_rotatable_bonds>  (1) 
12

>  <i_lp_mmshare_version>  (1) 
72125

>  <i_m_source_file_index>  (1) 
7

>  <i_f3d_flags>  (1) 
0

>  <num_sample>  (1) 
50

>  <b_lp_Chiralities_Consistent>  (1) 
1

>  <r_epik_Charging_Adjusted_Penalty>  (1) 
0

>  <r_epik_Ionization_Penalty>  (1) 
7.0933553160111078e-06

>  <r_epik_Ionization_Penalty_Charging>  (1) 
0

>  <r_epik_Ionization_Penalty_Neutral>  (1) 
7.0933553160111078e-06

>  <r_epik_State_Penalty>  (1) 
-0

>  <r_glide_ring_energy>  (1) 
0

>  <r_i_docking_score>  (1) 
-6.2890872336562111

>  <r_i_glide_ecoul>  (1) 
-3.3228034203303167

>  <r_i_glide_eff_state_penalty>  (1) 
-0

>  <r_i_glide_einternal>  (1) 
13.11248640998398

>  <r_i_glide_emodel>  (1) 
-42.613644225644876

>  <r_i_glide_emodel_strain>  (1) 
2.7255954516228229

>  <r_i_glide_energy>  (1) 
-39.372499714212573

>  <r_i_glide_erotb>  (1) 
0.62865897288938211

>  <r_i_glide_esite>  (1) 
-0.02687979345417333

>  <r_i_glide_evdw>  (1) 
-36.049696293882256

>  <r_i_glide_gscore>  (1) 
-6.2890872336562111

>  <r_i_glide_gscore_strain>  (1) 
0

>  <r_i_glide_hbond>  (1) 
-0.088391449039294398

>  <r_i_glide_ligand_efficiency>  (1) 
-0.17469686760156142

>  <r_i_glide_ligand_efficiency_ln>  (1) 
-1.3721089228824255

>  <r_i_glide_ligand_efficiency_sa>  (1) 
-0.57683634743013268

>  <r_i_glide_lipo>  (1) 
-2.9971798206326894

>  <r_i_glide_metal>  (1) 
-0

>  <r_i_glide_rewards>  (1) 
-1.5043898156757765

>  <r_lp_Energy>  (1) 
24.422612999999998

>  <r_lp_tautomer_probability>  (1) 
1

>  <s_epik_cmdline>  (1) 
J2VwaWtfcHl0aG9uJywgJy1waHQnLCAnMS4wJywgJy1waCcsICc3LjQnLCAnLXRuJywgJzgnLCAnLW1hJywgJzUwMCcsICctaW1hZScsICc8aW5maWxlLm1hZT4nLCAnLW9tYWUnLCAnPG91dGZpbGUubWFlPic=

>  <s_epik_input>  (1) 
RkMoRikoRilbQ0gyXUMoPVtDSF1bQ0gyXTEpW0NIMl1DKD1DMkMoPU8pW05IMl0pW0NASF0xW0NIXShbQ0BAXTIzNClbQ0BIXTNbQ0gyXVtDSDJdTihDKD1PKVtDSDJdNClbQ0BIXShbQ0hdPVtDSDJdKVtDSDJdW0NIMl1bQ0BASF0oW0NASF0oW09IXSlbQ0gzXSlPW0NIMl1bQ0gzXQ==

>  <s_glide_docking_method>  (1) 
confgen

>  <s_i_glide_gridfile>  (1) 
gpcr_drd2_6luq_protein_autoprepared_prepared

>  <s_lp_Force_Field>  (1) 
S-OPLS

>  <s_lp_Variant>  (1) 
DiffSBDD_6-1

>  <s_m_source_file>  (1) 
generated_generic_title2_ligand_DiffSBDD_2026-06-23_prepared.sdf

>  <GenAI_Model>  (1) 
DiffSBDD

>  <Protein>  (1) 
generic_title2

$$$$
DiffSBDD_28
     RDKit          3D

  0  0  0  0  0  0  0  0  0  0999 V3000
M  V30 BEGIN CTAB
M  V30 COUNTS 79 86 0 0 1
M  V30 BEGIN ATOM
M  V30 1 F 11.426910 9.468413 -9.375589 0
M  V30 2 C 5.700642 6.702112 -18.864906 0 CFG=1
M  V30 3 C 6.205820 5.652030 -15.225863 0 CFG=2
M  V30 4 C 7.363836 5.158854 -20.406678 0 CFG=2
M  V30 5 C 7.657446 4.874062 -10.628599 0 CFG=1
M  V30 6 C 4.594368 5.699914 -19.117675 0
M  V30 7 C 7.539735 5.979912 -13.027604 0 CFG=2
M  V30 8 C 9.475593 7.328321 -8.355293 0 CFG=1
M  V30 9 C 5.695873 7.097378 -15.140490 0
M  V30 10 C 8.916479 5.637553 -10.215959 0 CFG=1
M  V30 11 C 6.493526 7.797513 -20.604175 0 CFG=1
M  V30 12 C 8.538836 5.690751 -15.303550 0
M  V30 13 C 6.756428 6.461461 -19.939734 0 CFG=1
M  V30 14 O 6.088590 7.751840 -21.953595 0
M  V30 15 C 11.696632 8.554333 -8.380659 0 CFG=1
M  V30 16 C 7.000302 5.029964 -11.993740 0 CFG=1
M  V30 17 O 7.895115 3.972192 -11.715645 0
M  V30 18 N 7.424056 5.373609 -14.403504 0 CFG=2 CHG=1
M  V30 19 O 8.145042 3.655796 -22.213273 0
M  V30 20 C 11.802918 9.188883 -7.054051 0
M  V30 21 O 8.127490 6.150770 -19.685780 0
M  V30 22 C 9.189405 6.788991 -11.195052 0
M  V30 23 C 5.395095 8.041011 -19.577150 0
M  V30 24 N 6.152046 6.780347 -17.433958 0
M  V30 25 C 7.621420 4.944013 -21.886503 0
M  V30 26 N 8.991095 7.402726 -6.964035 0 CHG=1
M  V30 27 C 9.001253 6.355909 -12.634661 0
M  V30 28 C 8.817471 6.025853 -6.494063 0
M  V30 29 C 8.822252 5.146890 -7.749008 0
M  V30 30 O 11.394338 8.810296 -5.956057 0
M  V30 31 C 8.105832 5.305144 -16.707029 0
M  V30 32 C 11.019522 7.198639 -8.408175 0
M  V30 33 O 12.921743 8.738096 -7.585171 0
M  V30 34 N 8.765856 6.119866 -8.829569 0 CFG=1 CHG=1
M  V30 35 C 5.137317 7.324396 -16.538270 0
M  V30 36 C 7.207742 2.583751 -22.125924 0
M  V30 37 C 6.596819 5.548943 -16.740641 0 CFG=1
M  V30 38 H 5.395487 4.971633 -14.955749 0
M  V30 39 H 7.152679 4.261451 -19.828593 0
M  V30 40 H 7.069847 4.419190 -9.832232 0
M  V30 41 H 4.267385 5.716615 -20.156987 0
M  V30 42 H 4.933386 4.680491 -18.915883 0
M  V30 43 H 3.726944 5.993431 -18.536758 0
M  V30 44 H 6.945127 6.887541 -12.937710 0
M  V30 45 H 9.157771 8.225404 -8.891532 0
M  V30 46 H 6.511353 7.803340 -14.990541 0
M  V30 47 H 4.987615 7.260891 -14.332276 0
M  V30 48 H 9.766017 4.955412 -10.249907 0
M  V30 49 H 7.266329 8.549438 -20.450243 0
M  V30 50 H 9.515673 5.282713 -15.034711 0
M  V30 51 H 8.575409 6.770342 -15.214058 0
M  V30 52 H 5.530420 6.998828 -22.055745 0
M  V30 53 H 5.959878 4.725236 -12.088378 0
M  V30 54 H 10.207743 7.161246 -11.084777 0
M  V30 55 H 8.542793 7.642930 -11.012000 0
M  V30 56 H 5.526382 8.935601 -18.980453 0
M  V30 57 H 4.406065 8.059033 -20.036672 0
M  V30 58 H 6.677014 5.102019 -22.411086 0
M  V30 59 H 8.313092 5.716488 -22.230799 0
M  V30 60 H 8.056159 7.801556 -6.960441 0
M  V30 61 H 9.703373 5.541952 -12.832975 0
M  V30 62 H 9.310513 7.227951 -13.176209 0
M  V30 63 H 7.864778 5.969406 -5.975408 0
M  V30 64 H 9.631959 5.793692 -5.813852 0
M  V30 65 H 7.992906 4.441668 -7.770503 0
M  V30 66 H 9.753937 4.605312 -7.899513 0
M  V30 67 H 8.324306 4.249782 -16.886103 0
M  V30 68 H 8.651121 5.884190 -17.438770 0
M  V30 69 H 11.387650 6.570086 -7.593417 0
M  V30 70 H 11.353423 6.701403 -9.315452 0
M  V30 71 H 4.946449 8.378965 -16.730031 0
M  V30 72 H 4.191721 6.789528 -16.638917 0
M  V30 73 H 7.609349 1.698366 -22.621983 0
M  V30 74 H 7.007791 2.320493 -21.087417 0
M  V30 75 H 6.256568 2.807347 -22.612022 0
M  V30 76 H 6.180805 4.679413 -17.222579 0
M  V30 77 H 7.450764 4.370905 -14.268411 0
M  V30 78 H 9.619889 7.931584 -6.370140 0
M  V30 79 H 7.815129 6.492598 -8.853116 0
M  V30 END ATOM
M  V30 BEGIN BOND
M  V30 1 1 2 6 CFG=1
M  V30 2 1 9 3
M  V30 3 1 10 5
M  V30 4 1 13 2
M  V30 5 1 13 4
M  V30 6 1 13 11
M  V30 7 1 14 11
M  V30 8 1 15 1 CFG=3
M  V30 9 1 16 5
M  V30 10 1 16 7
M  V30 11 1 17 5
M  V30 12 1 17 16
M  V30 13 1 18 3
M  V30 14 1 18 7
M  V30 15 1 18 12
M  V30 16 1 20 15
M  V30 17 1 21 4
M  V30 18 1 13 21 CFG=1
M  V30 19 1 22 10
M  V30 20 1 23 2
M  V30 21 1 23 11
M  V30 22 1 24 2
M  V30 23 1 25 4
M  V30 24 1 25 19
M  V30 25 1 26 8
M  V30 26 1 27 7
M  V30 27 1 27 22
M  V30 28 1 28 26
M  V30 29 1 29 28
M  V30 30 2 30 20
M  V30 31 1 31 12
M  V30 32 1 32 8
M  V30 33 1 32 15
M  V30 34 1 33 15
M  V30 35 1 33 20
M  V30 36 1 34 8
M  V30 37 1 34 10
M  V30 38 1 34 29
M  V30 39 1 35 9
M  V30 40 1 35 24
M  V30 41 1 36 19
M  V30 42 1 37 3
M  V30 43 1 37 24
M  V30 44 1 37 31
M  V30 45 1 3 38 CFG=1
M  V30 46 1 4 39 CFG=1
M  V30 47 1 5 40 CFG=1
M  V30 48 1 41 6
M  V30 49 1 42 6
M  V30 50 1 43 6
M  V30 51 1 7 44 CFG=3
M  V30 52 1 8 45 CFG=3
M  V30 53 1 46 9
M  V30 54 1 47 9
M  V30 55 1 10 48 CFG=1
M  V30 56 1 11 49 CFG=3
M  V30 57 1 50 12
M  V30 58 1 51 12
M  V30 59 1 52 14
M  V30 60 1 16 53 CFG=1
M  V30 61 1 54 22
M  V30 62 1 55 22
M  V30 63 1 56 23
M  V30 64 1 57 23
M  V30 65 1 58 25
M  V30 66 1 59 25
M  V30 67 1 60 26
M  V30 68 1 61 27
M  V30 69 1 62 27
M  V30 70 1 63 28
M  V30 71 1 64 28
M  V30 72 1 65 29
M  V30 73 1 66 29
M  V30 74 1 67 31
M  V30 75 1 68 31
M  V30 76 1 69 32
M  V30 77 1 70 32
M  V30 78 1 71 35
M  V30 79 1 72 35
M  V30 80 1 73 36
M  V30 81 1 74 36
M  V30 82 1 75 36
M  V30 83 1 37 76 CFG=3
M  V30 84 1 18 77 CFG=1
M  V30 85 1 78 26
M  V30 86 1 34 79 CFG=3
M  V30 END BOND
M  V30 END CTAB
M  END
>  <i_epik_Tot_Q>  (1) 
3

>  <i_epik_Tot_abs_Q>  (1) 
3

>  <i_i_glide_confnum>  (1) 
275

>  <i_i_glide_lignum>  (1) 
79

>  <i_i_glide_posenum>  (1) 
273

>  <i_i_glide_rotatable_bonds>  (1) 
8

>  <i_lp_mmshare_version>  (1) 
72125

>  <i_m_source_file_index>  (1) 
29

>  <i_f3d_flags>  (1) 
0

>  <num_sample>  (1) 
50

>  <b_lp_Chiralities_Consistent>  (1) 
1

>  <r_epik_Charging_Adjusted_Penalty>  (1) 
2.5241965566360229

>  <r_epik_Ionization_Penalty>  (1) 
2.0480993089750741

>  <r_epik_Ionization_Penalty_Charging>  (1) 
2.0477503768466887

>  <r_epik_Ionization_Penalty_Neutral>  (1) 
0.00034893212838530931

>  <r_epik_State_Penalty>  (1) 
0.4764461797893344

>  <r_glide_ring_energy>  (1) 
0.8191457475608499

>  <r_i_docking_score>  (1) 
-6.2572015970467572

>  <r_i_glide_ecoul>  (1) 
-9.7575399239617866

>  <r_i_glide_eff_state_penalty>  (1) 
0.4764461797893344

>  <r_i_glide_einternal>  (1) 
8.5025594282053518

>  <r_i_glide_emodel>  (1) 
-41.747819008762335

>  <r_i_glide_emodel_strain>  (1) 
1.1095891313586321

>  <r_i_glide_energy>  (1) 
-24.729911816640907

>  <r_i_glide_erotb>  (1) 
0.31289092967319998

>  <r_i_glide_esite>  (1) 
-0.27183328588465994

>  <r_i_glide_evdw>  (1) 
-14.972371892679122

>  <r_i_glide_gscore>  (1) 
-6.7336477768360918

>  <r_i_glide_gscore_strain>  (1) 
0

>  <r_i_glide_hbond>  (1) 
-0.3881744823971145

>  <r_i_glide_ligand_efficiency>  (1) 
-0.16911355667693939

>  <r_i_glide_ligand_efficiency_ln>  (1) 
-1.3570403367815409

>  <r_i_glide_ligand_efficiency_sa>  (1) 
-0.56352388896846384

>  <r_i_glide_lipo>  (1) 
-2.0108387271313131

>  <r_i_glide_metal>  (1) 
-0

>  <r_i_glide_rewards>  (1) 
-2.1634426278679801

>  <r_lp_Energy>  (1) 
81.803054000000003

>  <s_epik_Chemistry_Notes>  (1) 
This compound has an ester and may undergo hydrolysis at high or low pH. This compound contains an acetal/aminal-like group ( X-CH(R)-Y where X, Y are N, S, or O) that may be acid/base labile, releasing an aldehyde.

>  <s_epik_cmdline>  (1) 
J2VwaWtfcHl0aG9uJywgJy1waHQnLCAnMS4wJywgJy1waCcsICc3LjQnLCAnLXRuJywgJzgnLCAnLW1hJywgJzUwMCcsICctaW1hZScsICc8aW5maWxlLm1hZT4nLCAnLW9tYWUnLCAnPG91dGZpbGUubWFlPic=

>  <s_epik_input>  (1) 
Tz1DKE8xKUMxKEYpW0NIMl1bQ0BASF0yW05IXVtDSDJdW0NIMl1OMltDQEBIXTNbQ0gyXVtDSDJdW0NASF0oW0NAQEhdKE80KVtDQEhdMzQpTjVbQ0gyXVtDSDJdW0NAQEhdKFtDQEhdNTYpTihbQ0gyXVtDSDJdNilbQ0BAXShbQ0gzXSkoW0NIMl1bQ0BASF03W09IXSlbQ0BAXTc4W0NASF0oTzgpW0NIMl1PW0NIM10=

>  <s_glide_docking_method>  (1) 
confgen

>  <s_i_glide_gridfile>  (1) 
gpcr_drd2_6luq_protein_autoprepared_prepared

>  <s_lp_Force_Field>  (1) 
S-OPLS

>  <s_lp_Variant>  (1) 
DiffSBDD_28-2

>  <s_m_source_file>  (1) 
generated_generic_title2_ligand_DiffSBDD_2026-06-23_prepared.sdf

>  <GenAI_Model>  (1) 
DiffSBDD

>  <Protein>  (1) 
generic_title2

$$$$
DiffSBDD_21
     RDKit          3D

  0  0  0  0  0  0  0  0  0  0999 V3000
M  V30 BEGIN CTAB
M  V30 COUNTS 63 67 0 0 1
M  V30 BEGIN ATOM
M  V30 1 C 12.318717 7.286965 -2.685861 0
M  V30 2 N 12.304694 9.393106 -3.041520 0
M  V30 3 C 8.618960 4.456522 -11.246627 0 CFG=1
M  V30 4 C 9.707179 8.053952 -10.621399 0
M  V30 5 C 12.538179 5.990180 -1.984994 0
M  V30 6 C 10.303103 7.249697 -9.497633 0 CFG=2
M  V30 7 C 6.509012 5.008211 -12.735793 0 CFG=1
M  V30 8 C 7.260071 7.251858 -13.627081 0
M  V30 9 O 9.774307 4.259320 -12.032608 0
M  V30 10 C 5.194943 4.396731 -13.242479 0
M  V30 11 C 11.307732 9.448479 -5.401060 0
M  V30 12 C 11.775407 7.483126 -3.985123 0
M  V30 13 C 8.596304 5.865067 -10.604060 0 CFG=1
M  V30 14 C 7.327101 3.972071 -11.954075 0
M  V30 15 C 9.584088 5.926117 -9.443129 0 CFG=2
M  V30 16 C 11.272104 6.656478 -5.017698 0
M  V30 17 C 10.784585 7.209849 -6.224085 0
M  V30 18 C 7.357176 5.727683 -13.814606 0 CFG=2
M  V30 19 O 10.297614 6.363656 -7.198168 0
M  V30 20 C 8.944913 7.078139 -11.537761 0 CFG=1
M  V30 21 C 7.765598 7.798033 -12.263171 0
M  V30 22 C 9.517809 6.877587 -8.269830 0 CFG=1
M  V30 23 C 11.775532 8.874193 -4.210852 0
M  V30 24 C 8.319291 5.475039 -16.189427 0 CFG=1
M  V30 25 C 10.804837 8.615327 -6.416485 0
M  V30 26 C 7.912174 5.640931 -17.594245 0
M  V30 27 C 7.101577 5.275039 -15.271563 0
M  V30 28 C 9.379844 4.381249 -16.046683 0
M  V30 29 N 7.591605 5.774560 -18.697679 0
M  V30 30 N 12.625916 8.432005 -2.124684 0
M  V30 31 H 8.770543 3.754295 -10.435733 0
M  V30 32 H 9.035942 8.799721 -10.194337 0
M  V30 33 H 10.493470 8.564314 -11.167345 0
M  V30 34 H 12.965734 5.257533 -2.665162 0
M  V30 35 H 11.598631 5.593450 -1.603251 0
M  V30 36 H 13.229009 6.075272 -1.149244 0
M  V30 37 H 11.389586 7.224393 -9.443065 0
M  V30 38 H 6.184377 5.740635 -11.999030 0
M  V30 39 H 6.221286 7.560101 -13.755319 0
M  V30 40 H 7.775482 7.757643 -14.437008 0
M  V30 41 H 9.765034 4.862118 -12.758773 0
M  V30 42 H 5.376058 3.518441 -13.856076 0
M  V30 43 H 4.624182 5.115579 -13.830136 0
M  V30 44 H 4.575759 4.075663 -12.405997 0
M  V30 45 H 11.327285 10.519876 -5.534868 0
M  V30 46 H 7.611705 5.990265 -10.160532 0
M  V30 47 H 6.659030 3.590303 -11.181943 0
M  V30 48 H 7.557839 3.113914 -12.587709 0
M  V30 49 H 10.175413 5.030400 -9.271060 0
M  V30 50 H 11.253203 5.590189 -4.878956 0
M  V30 51 H 8.397590 5.485574 -13.653238 0
M  V30 52 H 9.675884 6.770461 -12.284378 0
M  V30 53 H 8.055938 8.833758 -12.440649 0
M  V30 54 H 6.917672 7.869906 -11.585136 0
M  V30 55 H 8.575410 7.343511 -7.990104 0
M  V30 56 H 8.813888 6.390031 -15.897107 0
M  V30 57 H 10.437829 9.047557 -7.334588 0
M  V30 58 H 6.242691 5.820755 -15.665776 0
M  V30 59 H 6.840696 4.218490 -15.320824 0
M  V30 60 H 10.201789 4.550690 -16.742056 0
M  V30 61 H 8.972584 3.389766 -16.251174 0
M  V30 62 H 9.806189 4.390232 -15.044450 0
M  V30 63 H 12.458076 10.368916 -2.832367 0
M  V30 END ATOM
M  V30 BEGIN BOND
M  V30 1 1 5 1
M  V30 2 1 6 4
M  V30 3 1 9 3
M  V30 4 1 10 7
M  V30 5 1 12 1
M  V30 6 1 13 3
M  V30 7 1 14 3
M  V30 8 1 14 7
M  V30 9 1 15 6
M  V30 10 1 15 13
M  V30 11 1 16 12
M  V30 12 2 17 16
M  V30 13 1 18 7
M  V30 14 1 18 8
M  V30 15 1 19 17
M  V30 16 1 20 4
M  V30 17 1 20 13
M  V30 18 1 21 8
M  V30 19 1 21 20
M  V30 20 1 22 6
M  V30 21 1 22 15
M  V30 22 1 22 19
M  V30 23 1 23 2
M  V30 24 1 23 11
M  V30 25 2 23 12
M  V30 26 2 25 11
M  V30 27 1 25 17
M  V30 28 1 26 24
M  V30 29 1 27 18
M  V30 30 1 27 24
M  V30 31 1 28 24
M  V30 32 3 29 26
M  V30 33 2 30 1
M  V30 34 1 30 2
M  V30 35 1 3 31 CFG=1
M  V30 36 1 32 4
M  V30 37 1 33 4
M  V30 38 1 34 5
M  V30 39 1 35 5
M  V30 40 1 36 5
M  V30 41 1 6 37 CFG=1
M  V30 42 1 7 38 CFG=1
M  V30 43 1 39 8
M  V30 44 1 40 8
M  V30 45 1 41 9
M  V30 46 1 42 10
M  V30 47 1 43 10
M  V30 48 1 44 10
M  V30 49 1 45 11
M  V30 50 1 13 46 CFG=1
M  V30 51 1 47 14
M  V30 52 1 48 14
M  V30 53 1 15 49 CFG=1
M  V30 54 1 50 16
M  V30 55 1 18 51 CFG=1
M  V30 56 1 20 52 CFG=3
M  V30 57 1 53 21
M  V30 58 1 54 21
M  V30 59 1 22 55 CFG=1
M  V30 60 1 24 56 CFG=1
M  V30 61 1 57 25
M  V30 62 1 58 27
M  V30 63 1 59 27
M  V30 64 1 60 28
M  V30 65 1 61 28
M  V30 66 1 62 28
M  V30 67 1 63 2
M  V30 END BOND
M  V30 END CTAB
M  END
>  <i_epik_Tot_Q>  (1) 
0

>  <i_epik_Tot_abs_Q>  (1) 
0

>  <i_i_glide_confnum>  (1) 
14

>  <i_i_glide_lignum>  (1) 
68

>  <i_i_glide_posenum>  (1) 
91

>  <i_i_glide_rotatable_bonds>  (1) 
5

>  <i_lp_mmshare_version>  (1) 
72125

>  <i_m_source_file_index>  (1) 
22

>  <i_f3d_flags>  (1) 
0

>  <num_sample>  (1) 
50

>  <b_lp_Chiralities_Consistent>  (1) 
1

>  <r_epik_Charging_Adjusted_Penalty>  (1) 
0

>  <r_epik_Ionization_Penalty>  (1) 
6.9991700099201596e-06

>  <r_epik_Ionization_Penalty_Charging>  (1) 
0

>  <r_epik_Ionization_Penalty_Neutral>  (1) 
6.9991700099201596e-06

>  <r_epik_State_Penalty>  (1) 
-0

>  <r_glide_ring_energy>  (1) 
0

>  <r_i_docking_score>  (1) 
-6.2330298795900854

>  <r_i_glide_ecoul>  (1) 
-0.84422865726896257

>  <r_i_glide_eff_state_penalty>  (1) 
-0

>  <r_i_glide_einternal>  (1) 
27.960103724917456

>  <r_i_glide_emodel>  (1) 
-35.07963486164244

>  <r_i_glide_emodel_strain>  (1) 
0.24286611796662783

>  <r_i_glide_energy>  (1) 
-37.957865745177543

>  <r_i_glide_erotb>  (1) 
0.35530975304463774

>  <r_i_glide_esite>  (1) 
0

>  <r_i_glide_evdw>  (1) 
-37.113637087908579

>  <r_i_glide_gscore>  (1) 
-6.2330298795900854

>  <r_i_glide_gscore_strain>  (1) 
0

>  <r_i_glide_hbond>  (1) 
-0.039809968750407751

>  <r_i_glide_ligand_efficiency>  (1) 
-0.20776766265300284

>  <r_i_glide_ligand_efficiency_ln>  (1) 
-1.4162123029429141

>  <r_i_glide_ligand_efficiency_sa>  (1) 
-0.64558243508146607

>  <r_i_glide_lipo>  (1) 
-2.9923743227520632

>  <r_i_glide_metal>  (1) 
-0

>  <r_i_glide_rewards>  (1) 
-1.5738391881464795

>  <r_lp_Energy>  (1) 
45.650846999999999

>  <r_lp_tautomer_probability>  (1) 
1

>  <s_epik_cmdline>  (1) 
J2VwaWtfcHl0aG9uJywgJy1waHQnLCAnMS4wJywgJy1waCcsICc3LjQnLCAnLXRuJywgJzgnLCAnLW1hJywgJzUwMCcsICctaW1hZScsICc8aW5maWxlLm1hZT4nLCAnLW9tYWUnLCAnPG91dGZpbGUubWFlPic=

>  <s_epik_input>  (1) 
W0NIM11jMVtuSF1uYyhjMTIpW2NIXVtjSF1jKFtjSF0yKU9bQ0BASF0zW0NASF0oW0NASF0zNClbQ0BIXTVbQ0BIXShbQ0gyXTQpW0NIMl1bQ0gyXVtDQEhdKFtDSDJdW0NASF0oQyNOKVtDSDNdKVtDQEBIXShbQ0gzXSlbQ0gyXVtDQEhdNVtPSF0=

>  <s_glide_docking_method>  (1) 
confgen

>  <s_i_glide_gridfile>  (1) 
gpcr_drd2_6luq_protein_autoprepared_prepared

>  <s_lp_Force_Field>  (1) 
S-OPLS

>  <s_lp_Variant>  (1) 
DiffSBDD_21-1

>  <s_m_source_file>  (1) 
generated_generic_title2_ligand_DiffSBDD_2026-06-23_prepared.sdf

>  <GenAI_Model>  (1) 
DiffSBDD

>  <Protein>  (1) 
generic_title2

$$$$
DiffSBDD_15
     RDKit          3D

  0  0  0  0  0  0  0  0  0  0999 V3000
M  V30 BEGIN CTAB
M  V30 COUNTS 46 47 0 0 1
M  V30 BEGIN ATOM
M  V30 1 C 11.045702 6.390225 -3.665816 0
M  V30 2 C 9.245138 6.059204 -8.690294 0
M  V30 3 Cl 11.225738 7.590221 -9.838497 0
M  V30 4 C 11.389909 6.424705 -2.373323 0
M  V30 5 C 13.012842 8.263454 -2.841156 0
M  V30 6 C 10.407755 7.783837 -5.725636 0 CFG=2
M  V30 7 N 7.812005 6.390245 -11.567685 0 CFG=2 CHG=1
M  V30 8 C 11.474325 7.425655 -4.681683 0 CFG=1
M  V30 9 O 6.192286 4.707660 -12.785510 0
M  V30 10 C 9.528087 7.031379 -9.843449 0 CFG=1
M  V30 11 P 6.996713 4.857546 -11.333867 0
M  V30 12 C 8.175378 6.745196 -12.943207 0
M  V30 13 C 9.470570 7.311457 -12.385022 0
M  V30 14 N 8.975410 6.839670 -7.501517 0
M  V30 15 O 12.118706 8.790203 -7.103024 0
M  V30 16 O 5.539585 5.459565 -10.785019 0
M  V30 17 C 9.834964 6.517014 -6.385559 0
M  V30 18 C 12.250643 7.502155 -1.772538 0
M  V30 19 C 10.936411 8.790245 -6.758660 0
M  V30 20 C 9.235855 6.414255 -11.194794 0 CFG=2
M  V30 21 C 12.119519 8.666726 -4.002844 0
M  V30 22 H 10.431594 5.590228 -4.023183 0
M  V30 23 H 8.347801 5.472507 -8.880394 0
M  V30 24 H 10.065869 5.349296 -8.580080 0
M  V30 25 H 11.042842 5.651359 -1.705245 0
M  V30 26 H 13.505641 9.132309 -2.404580 0
M  V30 27 H 13.775405 7.590399 -3.226444 0
M  V30 28 H 9.594847 8.288861 -5.227337 0
M  V30 29 H 12.175408 6.831526 -5.238560 0
M  V30 30 H 5.301862 4.977919 -12.618204 0
M  V30 31 H 8.975423 7.957635 -9.724306 0
M  V30 32 H 8.348108 5.885381 -13.593202 0
M  V30 33 H 7.511977 7.479513 -13.400601 0
M  V30 34 H 10.400762 7.047591 -12.885483 0
M  V30 35 H 9.412021 8.377710 -12.156153 0
M  V30 36 H 7.977523 6.925171 -7.285365 0
M  V30 37 H 5.447539 5.254991 -9.858915 0
M  V30 38 H 9.207764 5.990175 -5.672217 0
M  V30 39 H 10.652924 5.855080 -6.673356 0
M  V30 40 H 11.630506 8.178210 -1.185027 0
M  V30 41 H 12.975411 7.018742 -1.131895 0
M  V30 42 H 10.198714 9.483950 -7.148139 0
M  V30 43 H 9.707527 5.440356 -11.347744 0
M  V30 44 H 12.723289 9.242855 -4.702994 0
M  V30 45 H 11.348668 9.344771 -3.637022 0
M  V30 46 H 7.347018 7.139009 -11.054012 0
M  V30 END ATOM
M  V30 BEGIN BOND
M  V30 1 2 4 1
M  V30 2 1 8 1
M  V30 3 1 8 6
M  V30 4 1 10 2
M  V30 5 1 10 3
M  V30 6 1 11 7
M  V30 7 1 11 9
M  V30 8 1 12 7
M  V30 9 1 13 12
M  V30 10 1 14 2
M  V30 11 1 16 11
M  V30 12 1 17 6
M  V30 13 1 17 14
M  V30 14 1 18 4
M  V30 15 1 18 5
M  V30 16 1 19 6
M  V30 17 2 19 15
M  V30 18 1 20 7
M  V30 19 1 20 10
M  V30 20 1 20 13
M  V30 21 1 21 5
M  V30 22 1 21 8
M  V30 23 1 22 1
M  V30 24 1 23 2
M  V30 25 1 24 2
M  V30 26 1 25 4
M  V30 27 1 26 5
M  V30 28 1 27 5
M  V30 29 1 6 28 CFG=1
M  V30 30 1 8 29 CFG=3
M  V30 31 1 30 9
M  V30 32 1 10 31 CFG=1
M  V30 33 1 32 12
M  V30 34 1 33 12
M  V30 35 1 34 13
M  V30 36 1 35 13
M  V30 37 1 36 14
M  V30 38 1 37 16
M  V30 39 1 38 17
M  V30 40 1 39 17
M  V30 41 1 40 18
M  V30 42 1 41 18
M  V30 43 1 42 19
M  V30 44 1 20 43 CFG=3
M  V30 45 1 44 21
M  V30 46 1 45 21
M  V30 47 1 7 46 CFG=1
M  V30 END BOND
M  V30 END CTAB
M  END
>  <i_epik_Tot_Q>  (1) 
1

>  <i_epik_Tot_abs_Q>  (1) 
1

>  <i_i_glide_confnum>  (1) 
327

>  <i_i_glide_lignum>  (1) 
56

>  <i_i_glide_posenum>  (1) 
328

>  <i_i_glide_rotatable_bonds>  (1) 
10

>  <i_lp_mmshare_version>  (1) 
72125

>  <i_m_source_file_index>  (1) 
16

>  <i_f3d_flags>  (1) 
0

>  <num_sample>  (1) 
50

>  <b_lp_Chiralities_Consistent>  (1) 
1

>  <r_epik_Charging_Adjusted_Penalty>  (1) 
0.56727467886288852

>  <r_epik_Ionization_Penalty>  (1) 
0.44114962020939286

>  <r_epik_Ionization_Penalty_Charging>  (1) 
0.027117031585188044

>  <r_epik_Ionization_Penalty_Neutral>  (1) 
0.41403258862420483

>  <r_epik_State_Penalty>  (1) 
0.54015764727770044

>  <r_glide_ring_energy>  (1) 
0

>  <r_i_docking_score>  (1) 
-6.2199672188132125

>  <r_i_glide_ecoul>  (1) 
-13.180925266403328

>  <r_i_glide_eff_state_penalty>  (1) 
0.54015764727770044

>  <r_i_glide_einternal>  (1) 
9.4408887085658062

>  <r_i_glide_emodel>  (1) 
-43.314805207530199

>  <r_i_glide_emodel_strain>  (1) 
4.399489123982864

>  <r_i_glide_energy>  (1) 
-35.434530128205125

>  <r_i_glide_erotb>  (1) 
1.004531890689508

>  <r_i_glide_esite>  (1) 
-0.13304588517216601

>  <r_i_glide_evdw>  (1) 
-22.253604861801794

>  <r_i_glide_gscore>  (1) 
-6.760124866090913

>  <r_i_glide_gscore_strain>  (1) 
0.09987228099571599

>  <r_i_glide_hbond>  (1) 
-0.64813691131587725

>  <r_i_glide_ligand_efficiency>  (1) 
-0.29618891518158152

>  <r_i_glide_ligand_efficiency_ln>  (1) 
-1.5378743262243595

>  <r_i_glide_ligand_efficiency_sa>  (1) 
-0.81716275887056256

>  <r_i_glide_lipo>  (1) 
-1.84161330098945

>  <r_i_glide_metal>  (1) 
-0

>  <r_i_glide_rewards>  (1) 
-2.1519139072480549

>  <r_lp_Energy>  (1) 
5.779852

>  <r_lp_tautomer_probability>  (1) 
0.99990000499974985

>  <s_epik_cmdline>  (1) 
J2VwaWtfcHl0aG9uJywgJy1waHQnLCAnMS4wJywgJy1waCcsICc3LjQnLCAnLXRuJywgJzgnLCAnLW1hJywgJzUwMCcsICctaW1hZScsICc8aW5maWxlLm1hZT4nLCAnLW9tYWUnLCAnPG91dGZpbGUubWFlPic=

>  <s_epik_input>  (1) 
W0NIMl0xW0NIMl1bQ0gyXVtDSF09W0NIXVtDQEhdMVtDQEBIXShbQ0hdPU8pW0NIMl1bTkhdW0NIMl1bQ0BASF0oQ2wpW0NAQEhdMltDSDJdW0NIMl1OMlAoW09IXSlbT0hd

>  <s_glide_docking_method>  (1) 
confgen

>  <s_i_glide_gridfile>  (1) 
gpcr_drd2_6luq_protein_autoprepared_prepared

>  <s_lp_Force_Field>  (1) 
S-OPLS

>  <s_lp_Variant>  (1) 
DiffSBDD_15-3

>  <s_m_source_file>  (1) 
generated_generic_title2_ligand_DiffSBDD_2026-06-23_prepared.sdf

>  <GenAI_Model>  (1) 
DiffSBDD

>  <Protein>  (1) 
generic_title2

$$$$
DiffSBDD_8
     RDKit          3D

  0  0  0  0  0  0  0  0  0  0999 V3000
M  V30 BEGIN CTAB
M  V30 COUNTS 69 72 0 0 1
M  V30 BEGIN ATOM
M  V30 1 N 6.631725 5.762951 -16.413834 0
M  V30 2 C 5.186910 5.712452 -19.488765 0
M  V30 3 C 6.075978 5.033917 -12.144962 0 CFG=1
M  V30 4 N 6.578000 6.655693 -21.154187 0
M  V30 5 O 7.775411 7.031112 -13.892854 0
M  V30 6 C 9.442688 6.196285 -9.564708 0
M  V30 7 F 8.410236 7.190224 -19.877450 0
M  V30 8 C 10.038593 7.620022 -9.691470 0
M  V30 9 N 8.231419 5.990223 -10.385075 0 CHG=1
M  V30 10 C 8.398480 6.059256 -11.857273 0 CFG=1
M  V30 11 C 7.429182 6.302451 -20.030887 0 CFG=1
M  V30 12 C 11.372736 6.565699 -4.478334 0
M  V30 13 C 7.520419 5.070291 -12.597140 0 CFG=2
M  V30 14 O 6.892442 7.978962 -11.985025 0
M  V30 15 O 7.280777 6.207997 -22.326437 0
M  V30 16 C 11.317769 7.889143 -8.867588 0
M  V30 17 C 8.548418 5.008483 -14.970919 0
M  V30 18 C 5.731432 6.890028 -16.144028 0
M  V30 19 C 7.060987 5.003389 -15.273911 0 CFG=1
M  V30 20 C 6.456664 6.277965 -18.843955 0 CFG=2
M  V30 21 C 6.983288 5.410865 -17.678475 0
M  V30 22 C 5.255801 3.856348 -12.532755 0
M  V30 23 C 8.032563 7.385492 -12.559487 0 CFG=2
M  V30 24 C 7.587448 5.622244 -13.988884 0 CFG=2
M  V30 25 O 11.845779 7.803832 -3.987669 0
M  V30 26 O 7.697683 4.435895 -17.915400 0
M  V30 27 C 10.222393 6.805891 -5.465463 0
M  V30 28 C 7.624788 7.361607 -23.073432 0
M  V30 29 C 5.455687 5.741257 -20.998253 0
M  V30 30 O 10.666388 6.839348 -6.812900 0
M  V30 31 C 11.095147 7.988118 -7.356489 0
M  V30 32 N 5.798107 3.990231 -11.185083 0
M  V30 33 O 11.304110 9.030422 -6.734814 0
M  V30 34 H 4.975379 4.691332 -19.169076 0
M  V30 35 H 4.325734 6.329976 -19.231923 0
M  V30 36 H 5.544947 5.977372 -12.051343 0
M  V30 37 H 10.175422 5.435318 -9.814954 0
M  V30 38 H 9.134663 6.001892 -8.538885 0
M  V30 39 H 9.284620 8.362738 -9.428599 0
M  V30 40 H 10.292278 7.809518 -10.733091 0
M  V30 41 H 7.863904 5.071953 -10.173183 0
M  V30 42 H 9.435255 5.829195 -12.113014 0
M  V30 43 H 7.891908 5.328842 -20.204720 0
M  V30 44 H 12.174144 5.990455 -4.940688 0
M  V30 45 H 11.012252 5.990375 -3.626163 0
M  V30 46 H 7.945262 4.064866 -12.565761 0
M  V30 47 H 6.975413 7.990741 -11.025430 0
M  V30 48 H 11.750127 8.837072 -9.190836 0
M  V30 49 H 12.070925 7.132253 -9.072169 0
M  V30 50 H 9.187759 5.673760 -15.547896 0
M  V30 51 H 8.979798 4.041293 -14.729800 0
M  V30 52 H 6.240620 7.840758 -16.309219 0
M  V30 53 H 4.835614 6.849903 -16.764476 0
M  V30 54 H 5.386132 6.883534 -15.109312 0
M  V30 55 H 6.575375 4.036285 -15.167456 0
M  V30 56 H 6.288348 7.313726 -18.554041 0
M  V30 57 H 4.185252 3.990239 -12.662649 0
M  V30 58 H 5.702138 3.095128 -13.170122 0
M  V30 59 H 8.836955 8.120340 -12.517401 0
M  V30 60 H 11.955502 8.393408 -4.722388 0
M  V30 61 H 9.506496 5.990242 -5.391449 0
M  V30 62 H 9.673131 7.711569 -5.213678 0
M  V30 63 H 8.219584 7.065847 -23.936296 0
M  V30 64 H 6.734731 7.877862 -23.436384 0
M  V30 65 H 8.222816 8.060099 -22.485854 0
M  V30 66 H 5.738593 4.742389 -21.336964 0
M  V30 67 H 4.591023 6.065477 -21.577319 0
M  V30 68 H 5.142226 4.201624 -10.442250 0
M  V30 69 H 7.541639 6.674694 -10.048234 0
M  V30 END ATOM
M  V30 BEGIN BOND
M  V30 1 1 8 6
M  V30 2 1 9 6
M  V30 3 1 10 9
M  V30 4 1 11 4
M  V30 5 1 11 7
M  V30 6 1 13 3
M  V30 7 1 13 10
M  V30 8 1 15 4
M  V30 9 1 16 8
M  V30 10 1 18 1
M  V30 11 1 19 1
M  V30 12 1 19 17
M  V30 13 1 20 2
M  V30 14 1 20 11
M  V30 15 1 21 1
M  V30 16 1 21 20
M  V30 17 1 22 3
M  V30 18 1 23 5
M  V30 19 1 23 10
M  V30 20 1 23 14
M  V30 21 1 24 5 CFG=1
M  V30 22 1 24 13
M  V30 23 1 24 17
M  V30 24 1 24 19
M  V30 25 1 25 12
M  V30 26 2 26 21
M  V30 27 1 27 12
M  V30 28 1 28 15
M  V30 29 1 29 2
M  V30 30 1 29 4
M  V30 31 1 30 27
M  V30 32 1 31 16
M  V30 33 1 31 30
M  V30 34 1 32 3
M  V30 35 1 32 22
M  V30 36 2 33 31
M  V30 37 1 34 2
M  V30 38 1 35 2
M  V30 39 1 3 36 CFG=1
M  V30 40 1 37 6
M  V30 41 1 38 6
M  V30 42 1 39 8
M  V30 43 1 40 8
M  V30 44 1 41 9
M  V30 45 1 10 42 CFG=1
M  V30 46 1 11 43 CFG=3
M  V30 47 1 44 12
M  V30 48 1 45 12
M  V30 49 1 13 46 CFG=3
M  V30 50 1 47 14
M  V30 51 1 48 16
M  V30 52 1 49 16
M  V30 53 1 50 17
M  V30 54 1 51 17
M  V30 55 1 52 18
M  V30 56 1 53 18
M  V30 57 1 54 18
M  V30 58 1 19 55 CFG=1
M  V30 59 1 20 56 CFG=1
M  V30 60 1 57 22
M  V30 61 1 58 22
M  V30 62 1 23 59 CFG=3
M  V30 63 1 60 25
M  V30 64 1 61 27
M  V30 65 1 62 27
M  V30 66 1 63 28
M  V30 67 1 64 28
M  V30 68 1 65 28
M  V30 69 1 66 29
M  V30 70 1 67 29
M  V30 71 1 68 32
M  V30 72 1 69 9
M  V30 END BOND
M  V30 END CTAB
M  END
>  <i_epik_Tot_Q>  (1) 
1

>  <i_epik_Tot_abs_Q>  (1) 
1

>  <i_i_glide_confnum>  (1) 
397

>  <i_i_glide_lignum>  (1) 
33

>  <i_i_glide_posenum>  (1) 
187

>  <i_i_glide_rotatable_bonds>  (1) 
15

>  <i_lp_mmshare_version>  (1) 
72125

>  <i_m_source_file_index>  (1) 
9

>  <i_f3d_flags>  (1) 
0

>  <num_sample>  (1) 
50

>  <b_lp_Chiralities_Consistent>  (1) 
1

>  <r_epik_Charging_Adjusted_Penalty>  (1) 
0.31458683345696248

>  <r_epik_Ionization_Penalty>  (1) 
0.14300301403106822

>  <r_epik_Ionization_Penalty_Charging>  (1) 
0.065080964065447874

>  <r_epik_Ionization_Penalty_Neutral>  (1) 
0.077922049965620341

>  <r_epik_State_Penalty>  (1) 
0.24950586939151459

>  <r_glide_ring_energy>  (1) 
0

>  <r_i_docking_score>  (1) 
-6.2129008350187771

>  <r_i_glide_ecoul>  (1) 
-15.083634668406658

>  <r_i_glide_eff_state_penalty>  (1) 
0.24950586939151459

>  <r_i_glide_einternal>  (1) 
14.9992512616748

>  <r_i_glide_emodel>  (1) 
-61.030419540714988

>  <r_i_glide_emodel_strain>  (1) 
0.82073510529673399

>  <r_i_glide_energy>  (1) 
-46.962586231193569

>  <r_i_glide_erotb>  (1) 
1.0741905119875848

>  <r_i_glide_esite>  (1) 
-0.14968616923600706

>  <r_i_glide_evdw>  (1) 
-31.878951562786913

>  <r_i_glide_gscore>  (1) 
-6.4624067044102915

>  <r_i_glide_gscore_strain>  (1) 
0

>  <r_i_glide_hbond>  (1) 
-0.32666339479689066

>  <r_i_glide_ligand_efficiency>  (1) 
-0.18826972227329627

>  <r_i_glide_ligand_efficiency_ln>  (1) 
-1.381716977029283

>  <r_i_glide_ligand_efficiency_sa>  (1) 
-0.60388159749037773

>  <r_i_glide_lipo>  (1) 
-1.8768344018154126

>  <r_i_glide_metal>  (1) 
-0

>  <r_i_glide_rewards>  (1) 
-1.3269204721492209

>  <r_lp_Energy>  (1) 
37.534118999999997

>  <s_epik_Chemistry_Notes>  (1) 
This compound has an ester and may undergo hydrolysis at high or low pH. This compound contains an acetal/aminal-like group ( X-CH(R)-Y where X, Y are N, S, or O) that may be acid/base labile, releasing an aldehyde. This compound has a N-S or N-O group and may undergo hydrolysis at high or low pH.

>  <s_epik_cmdline>  (1) 
J2VwaWtfcHl0aG9uJywgJy1waHQnLCAnMS4wJywgJy1waCcsICc3LjQnLCAnLXRuJywgJzgnLCAnLW1hJywgJzUwMCcsICctaW1hZScsICc8aW5maWxlLm1hZT4nLCAnLW9tYWUnLCAnPG91dGZpbGUubWFlPic=

>  <s_epik_input>  (1) 
W0NIM11PTjFbQ0BIXShGKVtDQEBIXShbQ0gyXVtDSDJdMSlDKD1PKU4oW0NIM10pW0NASF0yW0NIMl1DMjNPW0NAQEhdKFtPSF0pW0NASF0oW0NASF0zW0NASF00W0NIMl1bTkhdNClbTkhdW0NIMl1bQ0gyXVtDSDJdQyg9TylPW0NIMl1bQ0gyXVtPSF0=

>  <s_glide_docking_method>  (1) 
confgen

>  <s_i_glide_gridfile>  (1) 
gpcr_drd2_6luq_protein_autoprepared_prepared

>  <s_lp_Force_Field>  (1) 
S-OPLS

>  <s_lp_Variant>  (1) 
DiffSBDD_8-2

>  <s_m_source_file>  (1) 
generated_generic_title2_ligand_DiffSBDD_2026-06-23_prepared.sdf

>  <GenAI_Model>  (1) 
DiffSBDD

>  <Protein>  (1) 
generic_title2

$$$$
DiffSBDD_12
     RDKit          3D

  0  0  0  0  0  0  0  0  0  0999 V3000
M  V30 BEGIN CTAB
M  V30 COUNTS 55 56 0 0 1
M  V30 BEGIN ATOM
M  V30 1 C 4.883307 7.068672 -17.468148 0 CFG=2
M  V30 2 C 10.343166 7.579798 -6.151911 0 CFG=2
M  V30 3 C 11.349735 8.650056 -6.603396 0
M  V30 4 C 10.213919 6.952565 -8.612511 0
M  V30 5 C 11.312133 7.909043 -9.031926 0
M  V30 6 C 7.614257 5.928571 -11.746954 0
M  V30 7 C 5.119633 6.101104 -19.831948 0
M  V30 8 C 5.746873 6.244489 -18.440866 0
M  V30 9 C 10.969926 6.642751 -5.107839 0
M  V30 10 C 6.834275 6.495041 -14.103814 0
M  V30 11 C 8.578957 5.365681 -9.435610 0
M  V30 12 C 7.078992 5.372157 -13.093595 0 CFG=1
M  V30 13 C 9.052183 3.893861 -11.468116 0
M  V30 14 C 5.598287 7.420227 -16.155336 0
M  V30 15 C 8.040835 4.337242 -13.715833 0
M  V30 16 C 5.900510 6.190224 -15.274926 0
M  V30 17 C 8.417510 3.253052 -12.705675 0
M  V30 18 O 9.689398 6.229257 -9.664124 0
M  V30 19 F 3.752644 6.424574 -17.185046 0
M  V30 20 C 9.779472 6.801910 -7.338386 0
M  V30 21 C 12.191055 8.336883 -7.843564 0
M  V30 22 O 7.375405 7.590228 -13.984893 0
M  V30 23 O 11.481407 9.707406 -5.988275 0
M  V30 24 C 8.045087 4.818766 -10.772408 0 CFG=2
M  V30 25 H 4.580432 7.990234 -17.962031 0
M  V30 26 H 9.505330 8.103640 -5.692678 0
M  V30 27 H 11.924710 7.438921 -9.801153 0
M  V30 28 H 10.847213 8.783792 -9.488490 0
M  V30 29 H 6.841127 6.537506 -11.278061 0
M  V30 30 H 8.465323 6.589746 -11.918261 0
M  V30 31 H 5.779622 5.545771 -20.498706 0
M  V30 32 H 4.175398 5.562650 -19.781770 0
M  V30 33 H 4.931240 7.075144 -20.284873 0
M  V30 34 H 6.721760 6.721629 -18.548450 0
M  V30 35 H 5.934959 5.251893 -18.032021 0
M  V30 36 H 11.740751 6.008786 -5.548832 0
M  V30 37 H 11.424469 7.202776 -4.290035 0
M  V30 38 H 10.214015 5.990237 -4.670768 0
M  V30 39 H 8.881070 4.538436 -8.792105 0
M  V30 40 H 7.775482 5.895212 -8.926646 0
M  V30 41 H 6.124135 4.882088 -12.901900 0
M  V30 42 H 9.949660 4.447274 -11.748666 0
M  V30 43 H 9.375411 3.119279 -10.785032 0
M  V30 44 H 4.983276 8.121931 -15.589390 0
M  V30 45 H 6.518618 7.955481 -16.392558 0
M  V30 46 H 8.949480 4.830386 -14.067386 0
M  V30 47 H 7.584659 3.868864 -14.588851 0
M  V30 48 H 6.377460 5.414665 -15.871911 0
M  V30 49 H 4.975401 5.764922 -14.888172 0
M  V30 50 H 9.096240 2.530663 -13.151470 0
M  V30 51 H 7.527767 2.691590 -12.420458 0
M  V30 52 H 8.993547 6.099235 -7.111675 0
M  V30 53 H 12.871081 7.526929 -7.585034 0
M  V30 54 H 12.809816 9.190219 -8.112286 0
M  V30 55 H 7.158836 4.229442 -10.532917 0
M  V30 END ATOM
M  V30 BEGIN BOND
M  V30 1 1 3 2
M  V30 2 1 5 4
M  V30 3 1 8 1
M  V30 4 1 8 7
M  V30 5 1 9 2
M  V30 6 1 12 6
M  V30 7 1 12 10
M  V30 8 1 14 1
M  V30 9 1 15 12
M  V30 10 1 16 10
M  V30 11 1 16 14
M  V30 12 1 17 13
M  V30 13 1 17 15
M  V30 14 1 18 4
M  V30 15 1 18 11
M  V30 16 1 19 1
M  V30 17 1 20 2
M  V30 18 2 20 4
M  V30 19 1 21 3
M  V30 20 1 21 5
M  V30 21 2 22 10
M  V30 22 2 23 3
M  V30 23 1 24 6
M  V30 24 1 24 11
M  V30 25 1 24 13
M  V30 26 1 1 25 CFG=3
M  V30 27 1 2 26 CFG=1
M  V30 28 1 27 5
M  V30 29 1 28 5
M  V30 30 1 29 6
M  V30 31 1 30 6
M  V30 32 1 31 7
M  V30 33 1 32 7
M  V30 34 1 33 7
M  V30 35 1 34 8
M  V30 36 1 35 8
M  V30 37 1 36 9
M  V30 38 1 37 9
M  V30 39 1 38 9
M  V30 40 1 39 11
M  V30 41 1 40 11
M  V30 42 1 12 41 CFG=1
M  V30 43 1 42 13
M  V30 44 1 43 13
M  V30 45 1 44 14
M  V30 46 1 45 14
M  V30 47 1 46 15
M  V30 48 1 47 15
M  V30 49 1 48 16
M  V30 50 1 49 16
M  V30 51 1 50 17
M  V30 52 1 51 17
M  V30 53 1 52 20
M  V30 54 1 53 21
M  V30 55 1 54 21
M  V30 56 1 24 55 CFG=1
M  V30 END BOND
M  V30 END CTAB
M  END
>  <i_epik_Tot_Q>  (1) 
0

>  <i_epik_Tot_abs_Q>  (1) 
0

>  <i_i_glide_confnum>  (1) 
187

>  <i_i_glide_lignum>  (1) 
49

>  <i_i_glide_posenum>  (1) 
204

>  <i_i_glide_rotatable_bonds>  (1) 
8

>  <i_lp_mmshare_version>  (1) 
72125

>  <i_m_source_file_index>  (1) 
13

>  <i_f3d_flags>  (1) 
0

>  <num_sample>  (1) 
50

>  <b_lp_Chiralities_Consistent>  (1) 
1

>  <r_epik_Charging_Adjusted_Penalty>  (1) 
0

>  <r_epik_Ionization_Penalty>  (1) 
4.1955247269604324e-12

>  <r_epik_Ionization_Penalty_Charging>  (1) 
0

>  <r_epik_Ionization_Penalty_Neutral>  (1) 
4.1955247269604324e-12

>  <r_epik_State_Penalty>  (1) 
-0

>  <r_glide_ring_energy>  (1) 
0

>  <r_i_docking_score>  (1) 
-6.1901989114859379

>  <r_i_glide_ecoul>  (1) 
-1.599006593922933

>  <r_i_glide_eff_state_penalty>  (1) 
-0

>  <r_i_glide_einternal>  (1) 
2.5041468264043552

>  <r_i_glide_emodel>  (1) 
-48.995281915631963

>  <r_i_glide_emodel_strain>  (1) 
0

>  <r_i_glide_energy>  (1) 
-37.503424271102119

>  <r_i_glide_erotb>  (1) 
1.1556109002290837

>  <r_i_glide_esite>  (1) 
0

>  <r_i_glide_evdw>  (1) 
-35.90441767717919

>  <r_i_glide_gscore>  (1) 
-6.1901989114859379

>  <r_i_glide_gscore_strain>  (1) 
0

>  <r_i_glide_hbond>  (1) 
0

>  <r_i_glide_ligand_efficiency>  (1) 
-0.2579249546452474

>  <r_i_glide_ligand_efficiency_ln>  (1) 
-1.4815986492377056

>  <r_i_glide_ligand_efficiency_sa>  (1) 
-0.74398431001733178

>  <r_i_glide_lipo>  (1) 
-2.5486237970469805

>  <r_i_glide_metal>  (1) 
-0

>  <r_i_glide_rewards>  (1) 
-2.7621141417206418

>  <r_lp_Energy>  (1) 
10.280693999999999

>  <r_lp_tautomer_probability>  (1) 
1

>  <s_epik_cmdline>  (1) 
J2VwaWtfcHl0aG9uJywgJy1waHQnLCAnMS4wJywgJy1waCcsICc3LjQnLCAnLXRuJywgJzgnLCAnLW1hJywgJzUwMCcsICctaW1hZScsICc8aW5maWxlLm1hZT4nLCAnLW9tYWUnLCAnPG91dGZpbGUubWFlPic=

>  <s_epik_input>  (1) 
W0NIM11bQ0gyXVtDQEBIXShGKVtDSDJdW0NIMl1DKD1PKVtDQEBIXTFbQ0gyXVtDQEBIXShbQ0gyXVtDSDJdW0NIMl0xKVtDSDJdT0MoPVtDSF0yKVtDSDJdW0NIMl1DKD1PKVtDQEhdMltDSDNd

>  <s_glide_docking_method>  (1) 
confgen

>  <s_i_glide_gridfile>  (1) 
gpcr_drd2_6luq_protein_autoprepared_prepared

>  <s_lp_Force_Field>  (1) 
S-OPLS

>  <s_lp_Variant>  (1) 
DiffSBDD_12-2

>  <s_m_source_file>  (1) 
generated_generic_title2_ligand_DiffSBDD_2026-06-23_prepared.sdf

>  <GenAI_Model>  (1) 
DiffSBDD

>  <Protein>  (1) 
generic_title2

$$$$
DiffSBDD_15
     RDKit          3D

  0  0  0  0  0  0  0  0  0  0999 V3000
M  V30 BEGIN CTAB
M  V30 COUNTS 46 47 0 0 1
M  V30 BEGIN ATOM
M  V30 1 C 10.980750 6.387975 -3.987257 0
M  V30 2 C 9.276921 5.484827 -9.077652 0
M  V30 3 Cl 10.288253 7.000622 -11.165839 0
M  V30 4 C 11.367741 6.390920 -2.695777 0
M  V30 5 C 12.938845 8.293187 -3.154677 0
M  V30 6 C 10.419200 7.690299 -6.183141 0 CFG=2
M  V30 7 N 7.496643 5.266142 -12.468543 0 CFG=1 CHG=1
M  V30 8 C 11.398586 7.427554 -5.001043 0 CFG=1
M  V30 9 O 6.134261 7.356419 -11.985028 0
M  V30 10 C 8.968953 5.990721 -10.499741 0 CFG=1
M  V30 11 P 7.397190 6.933463 -12.990041 0
M  V30 12 C 8.096013 4.343161 -13.437611 0
M  V30 13 C 9.372691 4.353690 -12.605485 0
M  V30 14 N 9.375376 6.641126 -8.205192 0
M  V30 15 O 12.238881 8.790184 -7.342727 0
M  V30 16 O 6.188717 6.666635 -14.103163 0
M  V30 17 C 10.000278 6.380539 -6.913417 0
M  V30 18 C 12.244365 7.456553 -2.081736 0
M  V30 19 C 11.021805 8.658508 -7.220642 0
M  V30 20 C 8.508920 4.881730 -11.462630 0 CFG=2
M  V30 21 C 11.977723 8.683713 -4.286041 0
M  V30 22 H 10.350755 5.591679 -4.346167 0
M  V30 23 H 8.470655 4.848916 -8.709077 0
M  V30 24 H 10.179217 4.883931 -9.066557 0
M  V30 25 H 11.030824 5.605173 -2.036924 0
M  V30 26 H 13.375744 9.185035 -2.705678 0
M  V30 27 H 13.747285 7.690054 -3.569872 0
M  V30 28 H 9.519854 8.171525 -5.798266 0
M  V30 29 H 12.175399 6.846256 -5.467812 0
M  V30 30 H 6.463406 7.590054 -11.108825 0
M  V30 31 H 8.175424 6.699202 -10.385468 0
M  V30 32 H 7.597721 3.371891 -13.433291 0
M  V30 33 H 8.211311 4.735507 -14.449093 0
M  V30 34 H 9.806061 3.369673 -12.426327 0
M  V30 35 H 10.111377 5.056838 -12.990157 0
M  V30 36 H 8.461128 7.086821 -8.116232 0
M  V30 37 H 5.421019 7.097970 -13.754844 0
M  V30 38 H 9.287508 5.825468 -6.306589 0
M  V30 39 H 10.874207 5.743510 -7.058466 0
M  V30 40 H 11.618013 8.093948 -1.457095 0
M  V30 41 H 12.975421 6.984075 -1.429406 0
M  V30 42 H 10.297769 9.190241 -7.829013 0
M  V30 43 H 8.086934 4.035432 -10.915506 0
M  V30 44 H 12.524820 9.328467 -4.970509 0
M  V30 45 H 11.167398 9.293531 -3.886324 0
M  V30 46 H 6.577263 4.952934 -12.192320 0
M  V30 END ATOM
M  V30 BEGIN BOND
M  V30 1 2 4 1
M  V30 2 1 8 1
M  V30 3 1 8 6
M  V30 4 1 10 2
M  V30 5 1 10 3
M  V30 6 1 11 7
M  V30 7 1 11 9
M  V30 8 1 12 7
M  V30 9 1 13 12
M  V30 10 1 14 2
M  V30 11 1 16 11
M  V30 12 1 17 6
M  V30 13 1 17 14
M  V30 14 1 18 4
M  V30 15 1 18 5
M  V30 16 1 19 6
M  V30 17 2 19 15
M  V30 18 1 20 7
M  V30 19 1 20 10
M  V30 20 1 20 13
M  V30 21 1 21 5
M  V30 22 1 21 8
M  V30 23 1 22 1
M  V30 24 1 23 2
M  V30 25 1 24 2
M  V30 26 1 25 4
M  V30 27 1 26 5
M  V30 28 1 27 5
M  V30 29 1 6 28 CFG=1
M  V30 30 1 8 29 CFG=3
M  V30 31 1 30 9
M  V30 32 1 10 31 CFG=1
M  V30 33 1 32 12
M  V30 34 1 33 12
M  V30 35 1 34 13
M  V30 36 1 35 13
M  V30 37 1 36 14
M  V30 38 1 37 16
M  V30 39 1 38 17
M  V30 40 1 39 17
M  V30 41 1 40 18
M  V30 42 1 41 18
M  V30 43 1 42 19
M  V30 44 1 20 43 CFG=1
M  V30 45 1 44 21
M  V30 46 1 45 21
M  V30 47 1 7 46 CFG=1
M  V30 END BOND
M  V30 END CTAB
M  END
>  <i_epik_Tot_Q>  (1) 
1

>  <i_epik_Tot_abs_Q>  (1) 
1

>  <i_i_glide_confnum>  (1) 
409

>  <i_i_glide_lignum>  (1) 
57

>  <i_i_glide_posenum>  (1) 
322

>  <i_i_glide_rotatable_bonds>  (1) 
10

>  <i_lp_mmshare_version>  (1) 
72125

>  <i_m_source_file_index>  (1) 
16

>  <i_f3d_flags>  (1) 
0

>  <num_sample>  (1) 
50

>  <b_lp_Chiralities_Consistent>  (1) 
1

>  <r_epik_Charging_Adjusted_Penalty>  (1) 
0.56727467886288852

>  <r_epik_Ionization_Penalty>  (1) 
0.44114962020939286

>  <r_epik_Ionization_Penalty_Charging>  (1) 
0.027117031585188044

>  <r_epik_Ionization_Penalty_Neutral>  (1) 
0.41403258862420483

>  <r_epik_State_Penalty>  (1) 
0.54015764727770044

>  <r_glide_ring_energy>  (1) 
2.2593876707845975

>  <r_i_docking_score>  (1) 
-6.188591602271992

>  <r_i_glide_ecoul>  (1) 
-11.572689366284218

>  <r_i_glide_eff_state_penalty>  (1) 
0.54015764727770044

>  <r_i_glide_einternal>  (1) 
12.015990664243757

>  <r_i_glide_emodel>  (1) 
-49.373593342826737

>  <r_i_glide_emodel_strain>  (1) 
2.0070019101565286

>  <r_i_glide_energy>  (1) 
-36.67645750408068

>  <r_i_glide_erotb>  (1) 
1.004531890689508

>  <r_i_glide_esite>  (1) 
-0.015783672045793368

>  <r_i_glide_evdw>  (1) 
-25.103768137796465

>  <r_i_glide_gscore>  (1) 
-6.7287492495496926

>  <r_i_glide_gscore_strain>  (1) 
0

>  <r_i_glide_hbond>  (1) 
-0.28308396051041584

>  <r_i_glide_ligand_efficiency>  (1) 
-0.29469483820342818

>  <r_i_glide_ligand_efficiency_ln>  (1) 
-1.5301167684349457

>  <r_i_glide_ligand_efficiency_sa>  (1) 
-0.81304071377416087

>  <r_i_glide_lipo>  (1) 
-2.3440600744791324

>  <r_i_glide_metal>  (1) 
-0

>  <r_i_glide_rewards>  (1) 
-2.0992616213714017

>  <r_lp_Energy>  (1) 
9.1070440000000001

>  <r_lp_tautomer_probability>  (1) 
0.99990000499974985

>  <s_epik_cmdline>  (1) 
J2VwaWtfcHl0aG9uJywgJy1waHQnLCAnMS4wJywgJy1waCcsICc3LjQnLCAnLXRuJywgJzgnLCAnLW1hJywgJzUwMCcsICctaW1hZScsICc8aW5maWxlLm1hZT4nLCAnLW9tYWUnLCAnPG91dGZpbGUubWFlPic=

>  <s_epik_input>  (1) 
W0NIMl0xW0NIMl1bQ0gyXVtDSF09W0NIXVtDQEhdMVtDQEBIXShbQ0hdPU8pW0NIMl1bTkhdW0NIMl1bQ0BASF0oQ2wpW0NAQEhdMltDSDJdW0NIMl1OMlAoW09IXSlbT0hd

>  <s_glide_docking_method>  (1) 
confgen

>  <s_i_glide_gridfile>  (1) 
gpcr_drd2_6luq_protein_autoprepared_prepared

>  <s_lp_Force_Field>  (1) 
S-OPLS

>  <s_lp_Variant>  (1) 
DiffSBDD_15-4

>  <s_m_source_file>  (1) 
generated_generic_title2_ligand_DiffSBDD_2026-06-23_prepared.sdf

>  <GenAI_Model>  (1) 
DiffSBDD

>  <Protein>  (1) 
generic_title2

$$$$
DiffSBDD_8
     RDKit          3D

  0  0  0  0  0  0  0  0  0  0999 V3000
M  V30 BEGIN CTAB
M  V30 COUNTS 69 72 0 0 1
M  V30 BEGIN ATOM
M  V30 1 N 7.430212 3.452785 -15.459867 0
M  V30 2 C 9.467031 5.424347 -17.904030 0
M  V30 3 C 6.757637 6.312476 -12.248918 0 CFG=1
M  V30 4 N 7.388656 6.019816 -18.880664 0
M  V30 5 O 9.040253 4.152309 -13.096533 0
M  V30 6 C 9.168942 5.655522 -8.682630 0
M  V30 7 F 6.197672 4.105072 -18.501487 0
M  V30 8 C 9.742851 6.915678 -8.011013 0
M  V30 9 N 8.575410 5.990228 -9.994185 0 CHG=1
M  V30 10 C 8.436491 4.885078 -10.959226 0 CFG=1
M  V30 11 C 7.422180 4.574483 -18.731020 0 CFG=2
M  V30 12 C 11.840929 8.508300 -2.482521 0
M  V30 13 C 7.175168 4.910474 -11.815837 0 CFG=2
M  V30 14 O 9.911985 6.176573 -12.385932 0
M  V30 15 O 6.862195 6.272549 -20.194846 0
M  V30 16 C 10.280717 6.655833 -6.591465 0
M  V30 17 C 7.251761 2.601812 -13.050790 0
M  V30 18 C 7.576607 2.099530 -16.011491 0
M  V30 19 C 6.825868 3.545760 -14.160201 0 CFG=1
M  V30 20 C 8.416117 4.346800 -17.577127 0 CFG=2
M  V30 21 C 7.782072 4.557487 -16.167681 0
M  V30 22 C 5.514109 6.612127 -13.034913 0
M  V30 23 C 9.553838 4.865030 -12.015715 0 CFG=2
M  V30 24 C 7.626199 4.064816 -12.982345 0 CFG=2
M  V30 25 O 12.975293 8.790119 -1.691216 0
M  V30 26 O 7.617855 5.697669 -15.729824 0
M  V30 27 C 12.149353 8.602960 -3.984007 0
M  V30 28 C 5.648171 6.983949 -20.022745 0
M  V30 29 C 8.807448 6.338517 -18.951760 0
M  V30 30 O 11.375965 7.638269 -4.698054 0
M  V30 31 C 10.975453 7.867363 -5.959837 0
M  V30 32 N 5.526378 6.685894 -11.585064 0
M  V30 33 O 11.138954 8.922284 -6.573581 0
M  V30 34 H 9.780136 5.990161 -17.025865 0
M  V30 35 H 10.370663 4.974427 -18.316835 0
M  V30 36 H 7.545055 7.059762 -12.311223 0
M  V30 37 H 9.966153 4.921516 -8.809152 0
M  V30 38 H 8.401299 5.196528 -8.057386 0
M  V30 39 H 8.975390 7.689288 -7.961744 0
M  V30 40 H 10.541389 7.316420 -8.637654 0
M  V30 41 H 7.698897 6.501877 -9.834941 0
M  V30 42 H 8.467947 3.946004 -10.423104 0
M  V30 43 H 7.778844 4.099157 -19.646932 0
M  V30 44 H 11.520272 7.497441 -2.224577 0
M  V30 45 H 11.035859 9.190291 -2.222316 0
M  V30 46 H 6.348065 4.414938 -11.303300 0
M  V30 47 H 10.530712 6.104143 -13.100049 0
M  V30 48 H 11.000273 5.836996 -6.615120 0
M  V30 49 H 9.466760 6.342629 -5.937347 0
M  V30 50 H 8.054331 1.892089 -13.244551 0
M  V30 51 H 6.470208 2.240616 -12.385223 0
M  V30 52 H 7.167753 2.024228 -17.019719 0
M  V30 53 H 8.624209 1.797138 -16.028045 0
M  V30 54 H 7.036002 1.361222 -15.418080 0
M  V30 55 H 5.775077 3.812576 -14.165280 0
M  V30 56 H 8.896887 3.375911 -17.674546 0
M  V30 57 H 5.468857 7.551437 -13.581303 0
M  V30 58 H 4.975985 5.785377 -13.490687 0
M  V30 59 H 10.461083 4.389829 -11.657979 0
M  V30 60 H 13.180740 9.720921 -1.706867 0
M  V30 61 H 11.972144 9.621052 -4.334614 0
M  V30 62 H 13.203882 8.390242 -4.149679 0
M  V30 63 H 5.209096 7.196964 -20.997519 0
M  V30 64 H 4.922756 6.403121 -19.451050 0
M  V30 65 H 5.811594 7.935829 -19.515264 0
M  V30 66 H 8.990943 7.397808 -18.785081 0
M  V30 67 H 9.193796 6.090644 -19.942156 0
M  V30 68 H 5.544666 7.586876 -11.116812 0
M  V30 69 H 9.185119 6.650414 -10.456990 0
M  V30 END ATOM
M  V30 BEGIN BOND
M  V30 1 1 8 6
M  V30 2 1 9 6
M  V30 3 1 10 9
M  V30 4 1 11 4
M  V30 5 1 11 7
M  V30 6 1 13 3
M  V30 7 1 13 10
M  V30 8 1 15 4
M  V30 9 1 16 8
M  V30 10 1 18 1
M  V30 11 1 19 1
M  V30 12 1 19 17
M  V30 13 1 20 2
M  V30 14 1 20 11
M  V30 15 1 21 1
M  V30 16 1 21 20
M  V30 17 1 22 3
M  V30 18 1 23 5
M  V30 19 1 23 10
M  V30 20 1 23 14
M  V30 21 1 24 5 CFG=3
M  V30 22 1 24 13
M  V30 23 1 24 17
M  V30 24 1 24 19
M  V30 25 1 25 12
M  V30 26 2 26 21
M  V30 27 1 27 12
M  V30 28 1 28 15
M  V30 29 1 29 2
M  V30 30 1 29 4
M  V30 31 1 30 27
M  V30 32 1 31 16
M  V30 33 1 31 30
M  V30 34 1 32 3
M  V30 35 1 32 22
M  V30 36 2 33 31
M  V30 37 1 34 2
M  V30 38 1 35 2
M  V30 39 1 3 36 CFG=3
M  V30 40 1 37 6
M  V30 41 1 38 6
M  V30 42 1 39 8
M  V30 43 1 40 8
M  V30 44 1 41 9
M  V30 45 1 10 42 CFG=1
M  V30 46 1 11 43 CFG=3
M  V30 47 1 44 12
M  V30 48 1 45 12
M  V30 49 1 13 46 CFG=1
M  V30 50 1 47 14
M  V30 51 1 48 16
M  V30 52 1 49 16
M  V30 53 1 50 17
M  V30 54 1 51 17
M  V30 55 1 52 18
M  V30 56 1 53 18
M  V30 57 1 54 18
M  V30 58 1 19 55 CFG=3
M  V30 59 1 20 56 CFG=1
M  V30 60 1 57 22
M  V30 61 1 58 22
M  V30 62 1 23 59 CFG=1
M  V30 63 1 60 25
M  V30 64 1 61 27
M  V30 65 1 62 27
M  V30 66 1 63 28
M  V30 67 1 64 28
M  V30 68 1 65 28
M  V30 69 1 66 29
M  V30 70 1 67 29
M  V30 71 1 68 32
M  V30 72 1 69 9
M  V30 END BOND
M  V30 END CTAB
M  END
>  <i_epik_Tot_Q>  (1) 
1

>  <i_epik_Tot_abs_Q>  (1) 
1

>  <i_i_glide_confnum>  (1) 
3313

>  <i_i_glide_lignum>  (1) 
32

>  <i_i_glide_posenum>  (1) 
304

>  <i_i_glide_rotatable_bonds>  (1) 
15

>  <i_lp_mmshare_version>  (1) 
72125

>  <i_m_source_file_index>  (1) 
9

>  <i_f3d_flags>  (1) 
0

>  <num_sample>  (1) 
50

>  <b_lp_Chiralities_Consistent>  (1) 
1

>  <r_epik_Charging_Adjusted_Penalty>  (1) 
0.31458683345696248

>  <r_epik_Ionization_Penalty>  (1) 
0.14300301403106822

>  <r_epik_Ionization_Penalty_Charging>  (1) 
0.065080964065447874

>  <r_epik_Ionization_Penalty_Neutral>  (1) 
0.077922049965620341

>  <r_epik_State_Penalty>  (1) 
0.24950586939151459

>  <r_glide_ring_energy>  (1) 
0

>  <r_i_docking_score>  (1) 
-6.1885901875750511

>  <r_i_glide_ecoul>  (1) 
-10.901340507845912

>  <r_i_glide_eff_state_penalty>  (1) 
0.24950586939151459

>  <r_i_glide_einternal>  (1) 
9.4226714963103184

>  <r_i_glide_emodel>  (1) 
-61.601068757788603

>  <r_i_glide_emodel_strain>  (1) 
1.8911862028720492

>  <r_i_glide_energy>  (1) 
-46.02441951947803

>  <r_i_glide_erotb>  (1) 
1.0741905119875848

>  <r_i_glide_esite>  (1) 
-0.093162902897863983

>  <r_i_glide_evdw>  (1) 
-35.123079011632122

>  <r_i_glide_gscore>  (1) 
-6.4380960569665655

>  <r_i_glide_gscore_strain>  (1) 
0

>  <r_i_glide_hbond>  (1) 
-0.56537806327947604

>  <r_i_glide_ligand_efficiency>  (1) 
-0.18753303598712276

>  <r_i_glide_ligand_efficiency_ln>  (1) 
-1.3763104149115941

>  <r_i_glide_ligand_efficiency_sa>  (1) 
-0.60151865093703905

>  <r_i_glide_lipo>  (1) 
-1.820788076897174

>  <r_i_glide_metal>  (1) 
-0

>  <r_i_glide_rewards>  (1) 
-1.6416024991211431

>  <r_lp_Energy>  (1) 
36.819628999999999

>  <s_epik_Chemistry_Notes>  (1) 
This compound has an ester and may undergo hydrolysis at high or low pH. This compound contains an acetal/aminal-like group ( X-CH(R)-Y where X, Y are N, S, or O) that may be acid/base labile, releasing an aldehyde. This compound has a N-S or N-O group and may undergo hydrolysis at high or low pH.

>  <s_epik_cmdline>  (1) 
J2VwaWtfcHl0aG9uJywgJy1waHQnLCAnMS4wJywgJy1waCcsICc3LjQnLCAnLXRuJywgJzgnLCAnLW1hJywgJzUwMCcsICctaW1hZScsICc8aW5maWxlLm1hZT4nLCAnLW9tYWUnLCAnPG91dGZpbGUubWFlPic=

>  <s_epik_input>  (1) 
W0NIM11PTjFbQ0BIXShGKVtDQEBIXShbQ0gyXVtDSDJdMSlDKD1PKU4oW0NIM10pW0NASF0yW0NIMl1DMjNPW0NAQEhdKFtPSF0pW0NASF0oW0NASF0zW0NASF00W0NIMl1bTkhdNClbTkhdW0NIMl1bQ0gyXVtDSDJdQyg9TylPW0NIMl1bQ0gyXVtPSF0=

>  <s_glide_docking_method>  (1) 
confgen

>  <s_i_glide_gridfile>  (1) 
gpcr_drd2_6luq_protein_autoprepared_prepared

>  <s_lp_Force_Field>  (1) 
S-OPLS

>  <s_lp_Variant>  (1) 
DiffSBDD_8-1

>  <s_m_source_file>  (1) 
generated_generic_title2_ligand_DiffSBDD_2026-06-23_prepared.sdf

>  <GenAI_Model>  (1) 
DiffSBDD

>  <Protein>  (1) 
generic_title2

$$$$
DiffSBDD_27
     RDKit          3D

  0  0  0  0  0  0  0  0  0  0999 V3000
M  V30 BEGIN CTAB
M  V30 COUNTS 50 50 0 0 1
M  V30 BEGIN ATOM
M  V30 1 F 12.443930 8.615858 -0.788548 0
M  V30 2 C 11.375377 7.410441 -6.249114 0
M  V30 3 C 6.280069 6.931334 -13.791358 0
M  V30 4 C 11.775418 9.077629 -4.369787 0
M  V30 5 C 7.486258 4.191429 -12.534844 0
M  V30 6 O 8.175467 1.964706 -13.184982 0
M  V30 7 O 10.964080 6.617196 -12.784968 0
M  V30 8 C 5.547295 6.229350 -11.469002 0
M  V30 9 C 9.960166 7.521450 -9.394170 0 CFG=2
M  V30 10 O 9.375417 8.789921 -9.264626 0
M  V30 11 F 12.185810 5.990170 -1.596473 0
M  V30 12 C 11.775276 6.694600 -3.844329 0
M  V30 13 C 6.741419 6.648635 -12.350403 0
M  V30 14 C 8.768832 5.767063 -11.000190 0
M  V30 15 C 9.675200 7.026049 -10.851005 0 CFG=2
M  V30 16 C 9.496701 6.628019 -8.216811 0
M  V30 17 S 9.611537 7.435369 -6.589047 0
M  V30 18 C 12.041599 9.368952 -3.016565 0
M  V30 19 C 8.573200 3.318541 -13.171488 0
M  V30 20 C 7.939521 5.654359 -12.310165 0 CFG=1
M  V30 21 C 12.049247 6.991195 -2.495673 0
M  V30 22 C 12.181362 8.328690 -2.083625 0
M  V30 23 O 10.979404 6.792363 -11.352610 0
M  V30 24 C 11.641454 7.737153 -4.785570 0
M  V30 25 H 11.773958 6.421940 -6.482183 0
M  V30 26 H 11.878779 8.125637 -6.900268 0
M  V30 27 H 5.994227 6.021052 -14.317058 0
M  V30 28 H 5.412575 7.590088 -13.800084 0
M  V30 29 H 7.068745 7.418850 -14.366834 0
M  V30 30 H 11.673752 9.880190 -5.085997 0
M  V30 31 H 7.151565 3.762899 -11.589955 0
M  V30 32 H 6.619698 4.155823 -13.194220 0
M  V30 33 H 8.379228 1.586812 -12.339342 0
M  V30 34 H 10.985518 5.672543 -12.862137 0
M  V30 35 H 5.026352 5.360560 -11.869832 0
M  V30 36 H 5.848937 5.988646 -10.450247 0
M  V30 37 H 4.827243 7.043971 -11.395078 0
M  V30 38 H 11.030622 7.693725 -9.271149 0
M  V30 39 H 8.426618 8.629058 -9.251578 0
M  V30 40 H 11.675320 5.666280 -4.159161 0
M  V30 41 H 7.083975 7.608055 -11.963369 0
M  V30 42 H 9.390700 4.883631 -10.855239 0
M  V30 43 H 8.037615 5.722468 -10.202056 0
M  V30 44 H 9.253939 7.850158 -11.430071 0
M  V30 45 H 8.441837 6.381782 -8.299407 0
M  V30 46 H 10.040824 5.683017 -8.206589 0
M  V30 47 H 12.138797 10.389791 -2.691379 0
M  V30 48 H 8.733035 3.652396 -14.196391 0
M  V30 49 H 9.523100 3.400878 -12.642777 0
M  V30 50 H 8.584476 5.918857 -13.146182 0
M  V30 END ATOM
M  V30 BEGIN BOND
M  V30 1 1 10 9
M  V30 2 1 13 3
M  V30 3 1 13 8
M  V30 4 1 15 9
M  V30 5 1 15 14
M  V30 6 1 16 9
M  V30 7 1 17 2
M  V30 8 1 17 16
M  V30 9 2 18 4
M  V30 10 1 19 5
M  V30 11 1 19 6
M  V30 12 1 20 5
M  V30 13 1 20 13
M  V30 14 1 20 14
M  V30 15 1 21 11
M  V30 16 1 21 12
M  V30 17 1 22 1
M  V30 18 1 22 18
M  V30 19 2 22 21
M  V30 20 1 23 7
M  V30 21 1 23 15
M  V30 22 1 24 2
M  V30 23 1 24 4
M  V30 24 2 24 12
M  V30 25 1 25 2
M  V30 26 1 26 2
M  V30 27 1 27 3
M  V30 28 1 28 3
M  V30 29 1 29 3
M  V30 30 1 30 4
M  V30 31 1 31 5
M  V30 32 1 32 5
M  V30 33 1 33 6
M  V30 34 1 34 7
M  V30 35 1 35 8
M  V30 36 1 36 8
M  V30 37 1 37 8
M  V30 38 1 9 38 CFG=3
M  V30 39 1 39 10
M  V30 40 1 40 12
M  V30 41 1 41 13
M  V30 42 1 42 14
M  V30 43 1 43 14
M  V30 44 1 15 44 CFG=3
M  V30 45 1 45 16
M  V30 46 1 46 16
M  V30 47 1 47 18
M  V30 48 1 48 19
M  V30 49 1 49 19
M  V30 50 1 20 50 CFG=3
M  V30 END BOND
M  V30 END CTAB
M  END
>  <i_epik_Tot_Q>  (1) 
0

>  <i_epik_Tot_abs_Q>  (1) 
0

>  <i_i_glide_confnum>  (1) 
1153

>  <i_i_glide_lignum>  (1) 
77

>  <i_i_glide_posenum>  (1) 
241

>  <i_i_glide_rotatable_bonds>  (1) 
14

>  <i_lp_mmshare_version>  (1) 
72125

>  <i_m_source_file_index>  (1) 
28

>  <i_f3d_flags>  (1) 
0

>  <num_sample>  (1) 
50

>  <b_lp_Chiralities_Consistent>  (1) 
1

>  <r_epik_Charging_Adjusted_Penalty>  (1) 
0

>  <r_epik_Ionization_Penalty>  (1) 
1.248774447628934e-05

>  <r_epik_Ionization_Penalty_Charging>  (1) 
0

>  <r_epik_Ionization_Penalty_Neutral>  (1) 
1.248774447628934e-05

>  <r_epik_State_Penalty>  (1) 
-0

>  <r_glide_ring_energy>  (1) 
0

>  <r_i_docking_score>  (1) 
-6.1879615813334023

>  <r_i_glide_ecoul>  (1) 
-9.9813366924552867

>  <r_i_glide_eff_state_penalty>  (1) 
-0

>  <r_i_glide_einternal>  (1) 
7.1294429055357362

>  <r_i_glide_emodel>  (1) 
-47.493589596648

>  <r_i_glide_emodel_strain>  (1) 
3.8704288756849508

>  <r_i_glide_energy>  (1) 
-38.777721744632927

>  <r_i_glide_erotb>  (1) 
1.3026288034546341

>  <r_i_glide_esite>  (1) 
-0.0079588233531650565

>  <r_i_glide_evdw>  (1) 
-28.796385052177637

>  <r_i_glide_gscore>  (1) 
-6.1879615813334023

>  <r_i_glide_gscore_strain>  (1) 
0

>  <r_i_glide_hbond>  (1) 
-0.44653876082117261

>  <r_i_glide_ligand_efficiency>  (1) 
-0.25783173255555841

>  <r_i_glide_ligand_efficiency_ln>  (1) 
-1.4810631534678129

>  <r_i_glide_ligand_efficiency_sa>  (1) 
-0.74371541097973759

>  <r_i_glide_lipo>  (1) 
-2.2048112003742393

>  <r_i_glide_metal>  (1) 
-0

>  <r_i_glide_rewards>  (1) 
-1.8942618437622847

>  <r_lp_Energy>  (1) 
13.121089999999999

>  <r_lp_tautomer_probability>  (1) 
1

>  <s_epik_cmdline>  (1) 
J2VwaWtfcHl0aG9uJywgJy1waHQnLCAnMS4wJywgJy1waCcsICc3LjQnLCAnLXRuJywgJzgnLCAnLW1hJywgJzUwMCcsICctaW1hZScsICc8aW5maWxlLm1hZT4nLCAnLW9tYWUnLCAnPG91dGZpbGUubWFlPic=

>  <s_epik_input>  (1) 
RmMxW2NIXVtjSF1jKFtjSF1jMUYpW0NIMl1TW0NIMl1bQ0BIXShbT0hdKVtDQEBIXShPW09IXSlbQ0gyXVtDQEhdKFtDSF0oW0NIM10pW0NIM10pW0NIMl1bQ0gyXVtPSF0=

>  <s_glide_docking_method>  (1) 
confgen

>  <s_i_glide_gridfile>  (1) 
gpcr_drd2_6luq_protein_autoprepared_prepared

>  <s_lp_Force_Field>  (1) 
S-OPLS

>  <s_lp_Variant>  (1) 
DiffSBDD_27-1

>  <s_m_source_file>  (1) 
generated_generic_title2_ligand_DiffSBDD_2026-06-23_prepared.sdf

>  <GenAI_Model>  (1) 
DiffSBDD

>  <Protein>  (1) 
generic_title2

$$$$
DiffSBDD_14
     RDKit          3D

  0  0  0  0  0  0  0  0  0  0999 V3000
M  V30 BEGIN CTAB
M  V30 COUNTS 71 74 0 0 1
M  V30 BEGIN ATOM
M  V30 1 C 7.068064 4.548578 -11.852342 0
M  V30 2 O 6.576567 4.156773 -18.096879 0
M  V30 3 C 6.886058 6.447755 -18.500934 0 CFG=2
M  V30 4 O 5.577719 6.189719 -15.937435 0
M  V30 5 C 8.900398 5.164646 -8.448437 0
M  V30 6 C 10.615382 6.945988 -9.241693 0
M  V30 7 N 9.286696 6.199242 -11.124345 0
M  V30 8 C 9.648678 6.486504 -8.140074 0 CFG=2
M  V30 9 C 11.680920 8.823035 -4.492518 0
M  V30 10 C 6.227622 4.379891 -19.460904 0
M  V30 11 C 12.641401 7.204607 -1.919541 0
M  V30 12 C 11.023808 7.708151 -4.662063 0
M  V30 13 C 10.791592 9.022589 -6.498683 0
M  V30 14 C 10.246028 7.670860 -5.915884 0 CFG=1
M  V30 15 C 6.921710 4.335208 -15.151242 0
M  V30 16 C 13.023482 8.438167 -2.247635 0
M  V30 17 C 5.448071 7.410670 -16.654817 0
M  V30 18 C 10.356411 6.389265 -6.749965 0 CFG=2
M  V30 19 C 7.222810 5.300064 -17.545549 0 CFG=1
M  V30 20 C 5.535980 7.105096 -18.153202 0
M  V30 21 O 10.175388 5.990225 -13.185069 0
M  V30 22 C 9.226510 5.855226 -12.421357 0
M  V30 23 O 11.573271 9.728757 -5.486901 0
M  V30 24 C 6.858442 5.720562 -19.832044 0
M  V30 25 C 10.975314 6.574511 -3.726726 0
M  V30 26 C 12.511975 9.276202 -3.352588 0
M  V30 27 C 11.774772 5.798560 -6.731823 0
M  V30 28 C 10.426115 6.790217 -10.569067 0
M  V30 29 C 8.105005 4.337807 -14.167685 0
M  V30 30 C 7.893001 5.267189 -12.937610 0 CFG=1
M  V30 31 C 11.654329 6.370917 -2.572420 0
M  V30 32 C 6.863361 5.584673 -16.061559 0 CFG=1
M  V30 33 H 6.722090 5.231995 -11.076795 0
M  V30 34 H 6.180280 4.076510 -12.273959 0
M  V30 35 H 7.660060 3.765318 -11.383684 0
M  V30 36 H 7.680899 7.190374 -18.476077 0
M  V30 37 H 8.093368 5.307168 -9.162041 0
M  V30 38 H 9.575973 4.392229 -8.819012 0
M  V30 39 H 8.383507 4.764128 -7.584678 0
M  V30 40 H 11.520543 7.423479 -8.907738 0
M  V30 41 H 8.498268 6.029483 -10.514962 0
M  V30 42 H 8.888526 7.262102 -8.057133 0
M  V30 43 H 5.140558 4.432534 -19.537876 0
M  V30 44 H 6.568134 3.564578 -20.097893 0
M  V30 45 H 13.122769 6.770629 -1.061291 0
M  V30 46 H 9.923947 9.590267 -6.800711 0
M  V30 47 H 11.428109 8.881769 -7.368083 0
M  V30 48 H 9.200121 7.824396 -5.656582 0
M  V30 49 H 6.981404 3.432150 -15.758544 0
M  V30 50 H 5.990505 4.242030 -14.590188 0
M  V30 51 H 13.776432 8.906751 -1.635879 0
M  V30 52 H 4.483595 7.858937 -16.414360 0
M  V30 53 H 6.214439 8.125396 -16.351045 0
M  V30 54 H 9.759951 5.685963 -6.179480 0
M  V30 55 H 8.292762 5.094652 -17.611884 0
M  V30 56 H 4.705413 6.446897 -18.414474 0
M  V30 57 H 5.394960 8.015783 -18.735783 0
M  V30 58 H 6.313744 6.252129 -20.614016 0
M  V30 59 H 7.877468 5.557258 -20.185335 0
M  V30 60 H 10.299094 5.783518 -4.001734 0
M  V30 61 H 13.380598 9.766368 -3.789778 0
M  V30 62 H 11.936110 10.057263 -2.861097 0
M  V30 63 H 12.499348 6.466598 -7.185019 0
M  V30 64 H 12.154887 5.594043 -5.734626 0
M  V30 65 H 11.775335 4.818501 -7.184993 0
M  V30 66 H 11.152191 7.115528 -11.300929 0
M  V30 67 H 8.999701 4.587743 -14.739508 0
M  V30 68 H 8.274449 3.319635 -13.811891 0
M  V30 69 H 7.314720 6.133719 -13.263554 0
M  V30 70 H 11.440000 5.449187 -2.070346 0
M  V30 71 H 7.577980 6.318754 -15.685469 0
M  V30 END ATOM
M  V30 BEGIN BOND
M  V30 1 1 8 5
M  V30 2 1 8 6
M  V30 3 1 10 2
M  V30 4 2 12 9
M  V30 5 1 14 12
M  V30 6 1 14 13
M  V30 7 2 16 11
M  V30 8 1 17 4
M  V30 9 1 18 8
M  V30 10 1 18 14
M  V30 11 1 19 2
M  V30 12 1 19 3
M  V30 13 1 20 3
M  V30 14 1 20 17
M  V30 15 1 22 7
M  V30 16 2 22 21
M  V30 17 1 23 9
M  V30 18 1 23 13
M  V30 19 1 24 3
M  V30 20 1 24 10
M  V30 21 1 25 12
M  V30 22 1 26 9
M  V30 23 1 26 16
M  V30 24 1 27 18
M  V30 25 2 28 6
M  V30 26 1 28 7
M  V30 27 1 29 15
M  V30 28 1 30 1
M  V30 29 1 30 22
M  V30 30 1 30 29
M  V30 31 1 31 11
M  V30 32 2 31 25
M  V30 33 1 32 4
M  V30 34 1 32 15
M  V30 35 1 32 19
M  V30 36 1 33 1
M  V30 37 1 34 1
M  V30 38 1 35 1
M  V30 39 1 3 36 CFG=3
M  V30 40 1 37 5
M  V30 41 1 38 5
M  V30 42 1 39 5
M  V30 43 1 40 6
M  V30 44 1 41 7
M  V30 45 1 8 42 CFG=1
M  V30 46 1 43 10
M  V30 47 1 44 10
M  V30 48 1 45 11
M  V30 49 1 46 13
M  V30 50 1 47 13
M  V30 51 1 14 48 CFG=1
M  V30 52 1 49 15
M  V30 53 1 50 15
M  V30 54 1 51 16
M  V30 55 1 52 17
M  V30 56 1 53 17
M  V30 57 1 18 54 CFG=1
M  V30 58 1 19 55 CFG=1
M  V30 59 1 56 20
M  V30 60 1 57 20
M  V30 61 1 58 24
M  V30 62 1 59 24
M  V30 63 1 60 25
M  V30 64 1 61 26
M  V30 65 1 62 26
M  V30 66 1 63 27
M  V30 67 1 64 27
M  V30 68 1 65 27
M  V30 69 1 66 28
M  V30 70 1 67 29
M  V30 71 1 68 29
M  V30 72 1 30 69 CFG=3
M  V30 73 1 70 31
M  V30 74 1 32 71 CFG=1
M  V30 END BOND
M  V30 END CTAB
M  END
>  <i_epik_Tot_Q>  (1) 
0

>  <i_epik_Tot_abs_Q>  (1) 
0

>  <i_i_glide_confnum>  (1) 
409

>  <i_i_glide_lignum>  (1) 
53

>  <i_i_glide_posenum>  (1) 
346

>  <i_i_glide_rotatable_bonds>  (1) 
9

>  <i_lp_mmshare_version>  (1) 
72125

>  <i_m_source_file_index>  (1) 
15

>  <i_f3d_flags>  (1) 
0

>  <num_sample>  (1) 
50

>  <b_lp_Chiralities_Consistent>  (1) 
1

>  <r_epik_Charging_Adjusted_Penalty>  (1) 
0

>  <r_epik_Ionization_Penalty>  (1) 
2.2973717276536928e-08

>  <r_epik_Ionization_Penalty_Charging>  (1) 
0

>  <r_epik_Ionization_Penalty_Neutral>  (1) 
2.2973717276536928e-08

>  <r_epik_State_Penalty>  (1) 
-0

>  <r_glide_ring_energy>  (1) 
0.077735394311321385

>  <r_i_docking_score>  (1) 
-6.1738770503694109

>  <r_i_glide_ecoul>  (1) 
-2.0113598460967066

>  <r_i_glide_eff_state_penalty>  (1) 
-0

>  <r_i_glide_einternal>  (1) 
14.503309437151795

>  <r_i_glide_emodel>  (1) 
-28.824912805679766

>  <r_i_glide_emodel_strain>  (1) 
2.3527748382730067

>  <r_i_glide_energy>  (1) 
-30.426891861965284

>  <r_i_glide_erotb>  (1) 
0.7170138056727231

>  <r_i_glide_esite>  (1) 
-0.036769022318325233

>  <r_i_glide_evdw>  (1) 
-28.415532015868578

>  <r_i_glide_gscore>  (1) 
-6.1738770503694109

>  <r_i_glide_gscore_strain>  (1) 
0

>  <r_i_glide_hbond>  (1) 
0

>  <r_i_glide_ligand_efficiency>  (1) 
-0.19293365782404409

>  <r_i_glide_ligand_efficiency_ln>  (1) 
-1.3824993651099677

>  <r_i_glide_ligand_efficiency_sa>  (1) 
-0.61252618277992055

>  <r_i_glide_lipo>  (1) 
-3.633754122756458

>  <r_i_glide_metal>  (1) 
-0

>  <r_i_glide_rewards>  (1) 
-1.4978871332594155

>  <r_lp_Energy>  (1) 
16.754915

>  <r_lp_tautomer_probability>  (1) 
1

>  <s_epik_cmdline>  (1) 
J2VwaWtfcHl0aG9uJywgJy1waHQnLCAnMS4wJywgJy1waCcsICc3LjQnLCAnLXRuJywgJzgnLCAnLW1hJywgJzUwMCcsICctaW1hZScsICc8aW5maWxlLm1hZT4nLCAnLW9tYWUnLCAnPG91dGZpbGUubWFlPic=

>  <s_epik_input>  (1) 
W0NIMl0xW0NIMl1PW0NAQEhdKFtDQEBIXTEyKVtDQEBIXShPW0NIMl1bQ0gyXTIpW0NIMl1bQ0gyXVtDQEBIXShbQ0gzXSlDKD1PKVtOSF0vW0NIXT1bQ0hdXFtDQEBIXShbQ0gzXSlbQ0BASF0oW0NIM10pW0NASF0oW0NIMl1PMylDKD1DMzQpW0NIXT1bQ0hdW0NIXT1bQ0hdW0NIMl00

>  <s_glide_docking_method>  (1) 
confgen

>  <s_i_glide_gridfile>  (1) 
gpcr_drd2_6luq_protein_autoprepared_prepared

>  <s_lp_Force_Field>  (1) 
S-OPLS

>  <s_lp_Variant>  (1) 
DiffSBDD_14-2

>  <s_m_source_file>  (1) 
generated_generic_title2_ligand_DiffSBDD_2026-06-23_prepared.sdf

>  <GenAI_Model>  (1) 
DiffSBDD

>  <Protein>  (1) 
generic_title2

$$$$
DiffSBDD_28
     RDKit          3D

  0  0  0  0  0  0  0  0  0  0999 V3000
M  V30 BEGIN CTAB
M  V30 COUNTS 79 86 0 0 1
M  V30 BEGIN ATOM
M  V30 1 F 8.553483 -0.634649 -19.756345 0
M  V30 2 C 10.507794 6.884227 -9.333363 0 CFG=1
M  V30 3 C 8.395273 5.988133 -12.308769 0 CFG=2
M  V30 4 C 10.553327 8.336032 -6.960181 0 CFG=2
M  V30 5 C 5.998062 1.743623 -13.790907 0 CFG=1
M  V30 6 C 10.477905 5.676372 -8.370207 0
M  V30 7 C 7.596722 3.733580 -12.945324 0 CFG=2
M  V30 8 C 7.550672 -0.191627 -16.791337 0 CFG=1
M  V30 9 C 8.074101 7.492040 -12.223361 0
M  V30 10 C 6.725632 1.590791 -15.121844 0 CFG=1
M  V30 11 C 11.838243 8.642994 -9.329504 0 CFG=1
M  V30 12 C 6.727163 5.062368 -11.081092 0
M  V30 13 C 10.737793 8.088947 -8.450827 0 CFG=1
M  V30 14 O 13.077247 8.790220 -8.679466 0
M  V30 15 C 8.532365 0.533671 -19.016993 0 CFG=1
M  V30 16 C 6.465681 2.735772 -12.746752 0 CFG=1
M  V30 17 O 5.375431 3.025899 -13.584944 0
M  V30 18 N 7.230769 5.098575 -12.455922 0
M  V30 19 O 10.975412 9.657072 -4.916289 0
M  V30 20 C 9.410049 1.624533 -19.495675 0
M  V30 21 O 9.608897 8.790227 -7.952426 0
M  V30 22 C 8.126279 2.218251 -14.966596 0
M  V30 23 C 11.739854 7.360751 -10.146250 0
M  V30 24 N 9.280384 6.932933 -10.203697 0 CFG=1 CHG=1
M  V30 25 C 11.401025 9.387526 -6.241282 0
M  V30 26 N 7.036182 -1.522418 -17.185043 0 CHG=1
M  V30 27 C 8.052058 3.673515 -14.425517 0
M  V30 28 C 5.609119 -1.577305 -16.823490 0
M  V30 29 C 5.391704 -0.429474 -15.829149 0
M  V30 30 O 8.989046 2.777714 -19.554805 0
M  V30 31 C 7.966758 4.845248 -10.234399 0
M  V30 32 C 7.433161 0.781276 -17.994088 0
M  V30 33 O 9.850922 0.917698 -18.485045 0
M  V30 34 N 6.728615 0.167913 -15.598174 0 CFG=1 CHG=1
M  V30 35 C 9.037919 8.048087 -11.166183 0
M  V30 36 C 11.784235 9.048407 -3.923267 0
M  V30 37 C 9.030671 5.677629 -10.941999 0 CFG=1
M  V30 38 H 9.119388 5.838570 -13.108763 0
M  V30 39 H 10.201612 7.514518 -6.340105 0
M  V30 40 H 5.382478 0.911945 -13.452072 0
M  V30 41 H 11.367955 5.636397 -7.740791 0
M  V30 42 H 9.628368 5.746449 -7.688777 0
M  V30 43 H 10.365052 4.707229 -8.846787 0
M  V30 44 H 8.442337 3.345382 -12.379323 0
M  V30 45 H 8.591916 -0.276365 -16.478651 0
M  V30 46 H 7.049041 7.671202 -11.900283 0
M  V30 47 H 8.175798 7.990240 -13.187141 0
M  V30 48 H 6.191895 2.175477 -15.867178 0
M  V30 49 H 11.576717 9.523718 -9.914117 0
M  V30 50 H 6.265762 6.012698 -10.814052 0
M  V30 51 H 5.945531 4.330723 -10.898095 0
M  V30 52 H 13.607515 9.387649 -9.201591 0
M  V30 53 H 6.175386 2.489170 -11.729153 0
M  V30 54 H 8.661492 2.226680 -15.913360 0
M  V30 55 H 8.694175 1.590002 -14.277961 0
M  V30 56 H 11.651254 7.482513 -11.221786 0
M  V30 57 H 12.628788 6.790226 -9.973506 0
M  V30 58 H 12.444351 9.071940 -6.245685 0
M  V30 59 H 11.375576 10.327806 -6.784914 0
M  V30 60 H 7.500074 -2.221029 -16.608379 0
M  V30 61 H 7.368659 4.256806 -15.045146 0
M  V30 62 H 9.023683 4.152668 -14.530791 0
M  V30 63 H 5.375310 -2.551824 -16.393091 0
M  V30 64 H 4.991212 -1.443610 -17.713342 0
M  V30 65 H 4.951200 -0.788385 -14.899148 0
M  V30 66 H 4.709782 0.307522 -16.255927 0
M  V30 67 H 7.818745 5.053168 -9.174479 0
M  V30 68 H 8.289387 3.825702 -10.370102 0
M  V30 69 H 6.466705 0.676200 -18.489476 0
M  V30 70 H 7.481871 1.823089 -17.685385 0
M  V30 71 H 8.618756 8.917922 -10.660410 0
M  V30 72 H 9.916889 8.390278 -11.697695 0
M  V30 73 H 11.381368 9.277676 -2.935836 0
M  V30 74 H 11.807998 7.964403 -4.039233 0
M  V30 75 H 12.804897 9.434925 -3.965519 0
M  V30 76 H 9.946512 5.107418 -11.100341 0
M  V30 77 H 8.473139 7.049995 -9.585267 0
M  V30 78 H 7.194165 -1.735454 -18.161071 0
M  V30 79 H 7.122613 -0.370115 -14.836824 0
M  V30 END ATOM
M  V30 BEGIN BOND
M  V30 1 1 2 6 CFG=1
M  V30 2 1 9 3
M  V30 3 1 10 5
M  V30 4 1 13 2
M  V30 5 1 13 4
M  V30 6 1 13 11
M  V30 7 1 14 11
M  V30 8 1 15 1 CFG=3
M  V30 9 1 16 5
M  V30 10 1 16 7
M  V30 11 1 17 5
M  V30 12 1 17 16
M  V30 13 1 18 3
M  V30 14 1 18 7
M  V30 15 1 18 12
M  V30 16 1 20 15
M  V30 17 1 21 4
M  V30 18 1 13 21 CFG=3
M  V30 19 1 22 10
M  V30 20 1 23 2
M  V30 21 1 23 11
M  V30 22 1 24 2
M  V30 23 1 25 4
M  V30 24 1 25 19
M  V30 25 1 26 8
M  V30 26 1 27 7
M  V30 27 1 27 22
M  V30 28 1 28 26
M  V30 29 1 29 28
M  V30 30 2 30 20
M  V30 31 1 31 12
M  V30 32 1 32 8
M  V30 33 1 32 15
M  V30 34 1 33 15
M  V30 35 1 33 20
M  V30 36 1 34 8
M  V30 37 1 34 10
M  V30 38 1 34 29
M  V30 39 1 35 9
M  V30 40 1 35 24
M  V30 41 1 36 19
M  V30 42 1 37 3
M  V30 43 1 37 24
M  V30 44 1 37 31
M  V30 45 1 3 38 CFG=3
M  V30 46 1 4 39 CFG=1
M  V30 47 1 5 40 CFG=1
M  V30 48 1 41 6
M  V30 49 1 42 6
M  V30 50 1 43 6
M  V30 51 1 7 44 CFG=1
M  V30 52 1 8 45 CFG=1
M  V30 53 1 46 9
M  V30 54 1 47 9
M  V30 55 1 10 48 CFG=3
M  V30 56 1 11 49 CFG=3
M  V30 57 1 50 12
M  V30 58 1 51 12
M  V30 59 1 52 14
M  V30 60 1 16 53 CFG=1
M  V30 61 1 54 22
M  V30 62 1 55 22
M  V30 63 1 56 23
M  V30 64 1 57 23
M  V30 65 1 58 25
M  V30 66 1 59 25
M  V30 67 1 60 26
M  V30 68 1 61 27
M  V30 69 1 62 27
M  V30 70 1 63 28
M  V30 71 1 64 28
M  V30 72 1 65 29
M  V30 73 1 66 29
M  V30 74 1 67 31
M  V30 75 1 68 31
M  V30 76 1 69 32
M  V30 77 1 70 32
M  V30 78 1 71 35
M  V30 79 1 72 35
M  V30 80 1 73 36
M  V30 81 1 74 36
M  V30 82 1 75 36
M  V30 83 1 37 76 CFG=3
M  V30 84 1 24 77 CFG=1
M  V30 85 1 78 26
M  V30 86 1 34 79 CFG=1
M  V30 END BOND
M  V30 END CTAB
M  END
>  <i_epik_Tot_Q>  (1) 
3

>  <i_epik_Tot_abs_Q>  (1) 
3

>  <i_i_glide_confnum>  (1) 
87

>  <i_i_glide_lignum>  (1) 
82

>  <i_i_glide_posenum>  (1) 
12

>  <i_i_glide_rotatable_bonds>  (1) 
8

>  <i_lp_mmshare_version>  (1) 
72125

>  <i_m_source_file_index>  (1) 
29

>  <i_f3d_flags>  (1) 
0

>  <num_sample>  (1) 
50

>  <b_lp_Chiralities_Consistent>  (1) 
1

>  <r_epik_Charging_Adjusted_Penalty>  (1) 
2.5479580004866769

>  <r_epik_Ionization_Penalty>  (1) 
1.853674345886815

>  <r_epik_Ionization_Penalty_Charging>  (1) 
1.8530809818743854

>  <r_epik_Ionization_Penalty_Neutral>  (1) 
0.00059336401242958479

>  <r_epik_State_Penalty>  (1) 
0.69487701861229134

>  <r_glide_ring_energy>  (1) 
0.81914574756084646

>  <r_i_docking_score>  (1) 
-6.1267742213658209

>  <r_i_glide_ecoul>  (1) 
-17.24650236349672

>  <r_i_glide_eff_state_penalty>  (1) 
0.69487701861229134

>  <r_i_glide_einternal>  (1) 
4.4523422605746426

>  <r_i_glide_emodel>  (1) 
-57.029280447306114

>  <r_i_glide_emodel_strain>  (1) 
2.5774226375834814

>  <r_i_glide_energy>  (1) 
-39.843469493870046

>  <r_i_glide_erotb>  (1) 
0.44698704239028575

>  <r_i_glide_esite>  (1) 
-0.14026211460164356

>  <r_i_glide_evdw>  (1) 
-22.596967130373322

>  <r_i_glide_gscore>  (1) 
-6.8216512399781122

>  <r_i_glide_gscore_strain>  (1) 
0

>  <r_i_glide_hbond>  (1) 
-0.49811121755613941

>  <r_i_glide_ligand_efficiency>  (1) 
-0.16558849246934651

>  <r_i_glide_ligand_efficiency_ln>  (1) 
-1.3287536966478544

>  <r_i_glide_ligand_efficiency_sa>  (1) 
-0.55177759298746787

>  <r_i_glide_lipo>  (1) 
-2.1619576338709767

>  <r_i_glide_metal>  (1) 
-0

>  <r_i_glide_rewards>  (1) 
-0.75148360529646407

>  <r_lp_Energy>  (1) 
63.850986999999996

>  <s_epik_Chemistry_Notes>  (1) 
This compound has an ester and may undergo hydrolysis at high or low pH. This compound contains an acetal/aminal-like group ( X-CH(R)-Y where X, Y are N, S, or O) that may be acid/base labile, releasing an aldehyde.

>  <s_epik_cmdline>  (1) 
J2VwaWtfcHl0aG9uJywgJy1waHQnLCAnMS4wJywgJy1waCcsICc3LjQnLCAnLXRuJywgJzgnLCAnLW1hJywgJzUwMCcsICctaW1hZScsICc8aW5maWxlLm1hZT4nLCAnLW9tYWUnLCAnPG91dGZpbGUubWFlPic=

>  <s_epik_input>  (1) 
Tz1DKE8xKUMxKEYpW0NIMl1bQ0BASF0yW05IXVtDSDJdW0NIMl1OMltDQEBIXTNbQ0gyXVtDSDJdW0NASF0oW0NAQEhdKE80KVtDQEhdMzQpTjVbQ0gyXVtDSDJdW0NAQEhdKFtDQEhdNTYpTihbQ0gyXVtDSDJdNilbQ0BAXShbQ0gzXSkoW0NIMl1bQ0BASF03W09IXSlbQ0BAXTc4W0NASF0oTzgpW0NIMl1PW0NIM10=

>  <s_glide_docking_method>  (1) 
confgen

>  <s_i_glide_gridfile>  (1) 
gpcr_drd2_6luq_protein_autoprepared_prepared

>  <s_lp_Force_Field>  (1) 
S-OPLS

>  <s_lp_Variant>  (1) 
DiffSBDD_28-5

>  <s_m_source_file>  (1) 
generated_generic_title2_ligand_DiffSBDD_2026-06-23_prepared.sdf

>  <GenAI_Model>  (1) 
DiffSBDD

>  <Protein>  (1) 
generic_title2

$$$$
DiffSBDD_15
     RDKit          3D

  0  0  0  0  0  0  0  0  0  0999 V3000
M  V30 BEGIN CTAB
M  V30 COUNTS 46 47 0 0 1
M  V30 BEGIN ATOM
M  V30 1 C 11.426014 8.978023 -4.944768 0
M  V30 2 C 9.211283 5.015894 -9.248617 0
M  V30 3 Cl 9.273867 3.990277 -11.786160 0
M  V30 4 C 12.311781 9.040873 -3.938926 0
M  V30 5 C 11.850232 6.617136 -3.323721 0
M  V30 6 C 10.532231 7.632307 -6.937855 0 CFG=2
M  V30 7 N 6.494219 6.201783 -11.584651 0 CFG=1 CHG=1
M  V30 8 C 10.770243 7.685242 -5.413719 0 CFG=1
M  V30 9 O 7.776053 8.138711 -12.384837 0
M  V30 10 C 8.663238 5.229199 -10.659306 0 CFG=1
M  V30 11 P 7.383292 6.637136 -13.015464 0
M  V30 12 C 5.375267 5.284913 -11.757796 0
M  V30 13 C 6.232350 4.163778 -11.200101 0
M  V30 14 N 9.375145 6.344575 -8.683665 0
M  V30 15 O 11.659107 8.551548 -8.862933 0
M  V30 16 O 6.106272 7.190210 -13.933526 0
M  V30 17 C 9.903718 6.283408 -7.339595 0
M  V30 18 C 12.768515 7.835703 -3.143568 0
M  V30 19 C 11.772870 7.990223 -7.773438 0
M  V30 20 C 7.124502 5.271376 -10.638932 0 CFG=2
M  V30 21 C 11.393662 6.414226 -4.781774 0
M  V30 22 H 11.145023 9.882049 -5.467055 0
M  V30 23 H 8.547033 4.390855 -8.646913 0
M  V30 24 H 10.175078 4.516446 -9.278985 0
M  V30 25 H 12.740510 9.990041 -3.663695 0
M  V30 26 H 12.349836 5.722211 -2.950291 0
M  V30 27 H 10.975112 6.735448 -2.688410 0
M  V30 28 H 9.798594 8.410250 -7.159807 0
M  V30 29 H 9.774650 7.721359 -5.016574 0
M  V30 30 H 7.892254 8.088652 -11.442748 0
M  V30 31 H 9.100096 6.158855 -11.025340 0
M  V30 32 H 4.575453 5.568530 -11.079495 0
M  V30 33 H 5.027971 5.124649 -12.779627 0
M  V30 34 H 5.735736 3.552916 -10.444766 0
M  V30 35 H 6.668271 3.561443 -11.997221 0
M  V30 36 H 8.493663 6.862955 -8.698174 0
M  V30 37 H 6.460925 7.704861 -14.642905 0
M  V30 38 H 9.093314 6.008924 -6.660389 0
M  V30 39 H 10.663185 5.503964 -7.274269 0
M  V30 40 H 13.774963 7.587867 -3.464954 0
M  V30 41 H 12.828660 8.102886 -2.088199 0
M  V30 42 H 12.730152 7.718275 -7.335145 0
M  V30 43 H 6.755531 5.575610 -9.656059 0
M  V30 44 H 10.659103 5.608826 -4.787010 0
M  V30 45 H 12.204577 6.045503 -5.398937 0
M  V30 46 H 6.223667 7.028534 -11.060407 0
M  V30 END ATOM
M  V30 BEGIN BOND
M  V30 1 2 4 1
M  V30 2 1 8 1
M  V30 3 1 8 6
M  V30 4 1 10 2
M  V30 5 1 10 3
M  V30 6 1 11 7
M  V30 7 1 11 9
M  V30 8 1 12 7
M  V30 9 1 13 12
M  V30 10 1 14 2
M  V30 11 1 16 11
M  V30 12 1 17 6
M  V30 13 1 17 14
M  V30 14 1 18 4
M  V30 15 1 18 5
M  V30 16 1 19 6
M  V30 17 2 19 15
M  V30 18 1 20 7
M  V30 19 1 20 10
M  V30 20 1 20 13
M  V30 21 1 21 5
M  V30 22 1 21 8
M  V30 23 1 22 1
M  V30 24 1 23 2
M  V30 25 1 24 2
M  V30 26 1 25 4
M  V30 27 1 26 5
M  V30 28 1 27 5
M  V30 29 1 6 28 CFG=1
M  V30 30 1 8 29 CFG=1
M  V30 31 1 30 9
M  V30 32 1 10 31 CFG=3
M  V30 33 1 32 12
M  V30 34 1 33 12
M  V30 35 1 34 13
M  V30 36 1 35 13
M  V30 37 1 36 14
M  V30 38 1 37 16
M  V30 39 1 38 17
M  V30 40 1 39 17
M  V30 41 1 40 18
M  V30 42 1 41 18
M  V30 43 1 42 19
M  V30 44 1 20 43 CFG=1
M  V30 45 1 44 21
M  V30 46 1 45 21
M  V30 47 1 7 46 CFG=1
M  V30 END BOND
M  V30 END CTAB
M  END
>  <i_epik_Tot_Q>  (1) 
1

>  <i_epik_Tot_abs_Q>  (1) 
1

>  <i_i_glide_confnum>  (1) 
409

>  <i_i_glide_lignum>  (1) 
57

>  <i_i_glide_posenum>  (1) 
43

>  <i_i_glide_rotatable_bonds>  (1) 
10

>  <i_lp_mmshare_version>  (1) 
72125

>  <i_m_source_file_index>  (1) 
16

>  <i_f3d_flags>  (1) 
0

>  <num_sample>  (1) 
50

>  <b_lp_Chiralities_Consistent>  (1) 
1

>  <r_epik_Charging_Adjusted_Penalty>  (1) 
0.56727467886288852

>  <r_epik_Ionization_Penalty>  (1) 
0.44114962020939286

>  <r_epik_Ionization_Penalty_Charging>  (1) 
0.027117031585188044

>  <r_epik_Ionization_Penalty_Neutral>  (1) 
0.41403258862420483

>  <r_epik_State_Penalty>  (1) 
0.54015764727770044

>  <r_glide_ring_energy>  (1) 
2.2593876707845975

>  <r_i_docking_score>  (1) 
-6.1227411062421293

>  <r_i_glide_ecoul>  (1) 
-9.0403685521597605

>  <r_i_glide_eff_state_penalty>  (1) 
0.54015764727770044

>  <r_i_glide_einternal>  (1) 
11.799815664441519

>  <r_i_glide_emodel>  (1) 
-56.701029845730567

>  <r_i_glide_emodel_strain>  (1) 
1.3544143962003616

>  <r_i_glide_energy>  (1) 
-43.445917026095728

>  <r_i_glide_erotb>  (1) 
1.004531890689508

>  <r_i_glide_esite>  (1) 
-0.10629234565483031

>  <r_i_glide_evdw>  (1) 
-34.405548473935966

>  <r_i_glide_gscore>  (1) 
-6.6628987535198299

>  <r_i_glide_gscore_strain>  (1) 
0

>  <r_i_glide_hbond>  (1) 
-0.36972561391843156

>  <r_i_glide_ligand_efficiency>  (1) 
-0.29155910029724424

>  <r_i_glide_ligand_efficiency_ln>  (1) 
-1.5138353663550184

>  <r_i_glide_ligand_efficiency_sa>  (1) 
-0.80438945065399525

>  <r_i_glide_lipo>  (1) 
-2.106436203560317

>  <r_i_glide_metal>  (1) 
-0

>  <r_i_glide_rewards>  (1) 
-2.0086437745549977

>  <r_lp_Energy>  (1) 
9.1070440000000001

>  <r_lp_tautomer_probability>  (1) 
0.99990000499974985

>  <s_epik_cmdline>  (1) 
J2VwaWtfcHl0aG9uJywgJy1waHQnLCAnMS4wJywgJy1waCcsICc3LjQnLCAnLXRuJywgJzgnLCAnLW1hJywgJzUwMCcsICctaW1hZScsICc8aW5maWxlLm1hZT4nLCAnLW9tYWUnLCAnPG91dGZpbGUubWFlPic=

>  <s_epik_input>  (1) 
W0NIMl0xW0NIMl1bQ0gyXVtDSF09W0NIXVtDQEhdMVtDQEBIXShbQ0hdPU8pW0NIMl1bTkhdW0NIMl1bQ0BASF0oQ2wpW0NAQEhdMltDSDJdW0NIMl1OMlAoW09IXSlbT0hd

>  <s_glide_docking_method>  (1) 
confgen

>  <s_i_glide_gridfile>  (1) 
gpcr_drd2_6luq_protein_autoprepared_prepared

>  <s_lp_Force_Field>  (1) 
S-OPLS

>  <s_lp_Variant>  (1) 
DiffSBDD_15-4

>  <s_m_source_file>  (1) 
generated_generic_title2_ligand_DiffSBDD_2026-06-23_prepared.sdf

>  <GenAI_Model>  (1) 
DiffSBDD

>  <Protein>  (1) 
generic_title2

$$$$
DiffSBDD_28
     RDKit          3D

  0  0  0  0  0  0  0  0  0  0999 V3000
M  V30 BEGIN CTAB
M  V30 COUNTS 79 86 0 0 1
M  V30 BEGIN ATOM
M  V30 1 F 7.751952 1.346576 -20.068899 0
M  V30 2 C 10.621369 6.965680 -9.019148 0 CFG=1
M  V30 3 C 8.414025 6.127833 -11.918241 0 CFG=2
M  V30 4 C 10.518464 8.413090 -6.610204 0 CFG=2
M  V30 5 C 5.820828 2.078257 -13.461406 0 CFG=1
M  V30 6 C 10.575525 5.718929 -8.109049 0
M  V30 7 C 7.508631 3.935862 -12.516520 0 CFG=2
M  V30 8 C 7.406562 0.128156 -16.418692 0 CFG=1
M  V30 9 C 8.196322 7.649488 -11.895353 0
M  V30 10 C 6.619072 1.883275 -14.740543 0 CFG=1
M  V30 11 C 11.923138 8.737956 -8.898139 0 CFG=1
M  V30 12 C 6.592139 5.399629 -10.785145 0
M  V30 13 C 10.812179 8.133351 -8.075005 0 CFG=1
M  V30 14 O 13.150932 8.790147 -8.209576 0
M  V30 15 C 8.101024 0.801618 -18.848212 0 CFG=1
M  V30 16 C 6.292193 3.032581 -12.386066 0 CFG=1
M  V30 17 O 5.254480 3.390543 -13.274527 0
M  V30 18 N 7.202599 5.328340 -12.109084 0
M  V30 19 O 10.975410 9.678616 -4.513992 0
M  V30 20 C 9.570845 0.777334 -18.659011 0
M  V30 21 O 9.617728 8.790214 -7.665411 0
M  V30 22 C 8.047916 2.404717 -14.524424 0
M  V30 23 C 11.859187 7.523162 -9.799217 0
M  V30 24 N 9.375391 7.060723 -9.858827 0 CFG=1 CHG=1
M  V30 25 C 11.252686 9.556880 -5.896999 0
M  V30 26 N 6.909620 -1.209704 -16.785141 0 CHG=1
M  V30 27 C 8.075075 3.838486 -13.955747 0
M  V30 28 C 5.480083 -1.276030 -16.445802 0
M  V30 29 C 5.234649 -0.098828 -15.495417 0
M  V30 30 O 10.077102 1.295658 -17.664061 0
M  V30 31 C 7.733473 5.188409 -9.791484 0
M  V30 32 C 7.232785 1.100668 -17.625526 0
M  V30 33 O 8.972664 -0.384069 -18.822671 0
M  V30 34 N 6.577195 0.468553 -15.228382 0 CFG=1 CHG=1
M  V30 35 C 9.189153 8.160685 -10.852311 0
M  V30 36 C 11.823813 8.893489 -3.688923 0
M  V30 37 C 8.950085 5.802570 -10.514301 0 CFG=1
M  V30 38 H 9.173222 5.912170 -12.672166 0
M  V30 39 H 10.184499 7.579856 -5.994958 0
M  V30 40 H 5.138175 1.280730 -13.184730 0
M  V30 41 H 11.398217 5.696766 -7.395334 0
M  V30 42 H 9.668945 5.709177 -7.506105 0
M  V30 43 H 10.573699 4.772638 -8.640576 0
M  V30 44 H 8.270788 3.519804 -11.858573 0
M  V30 45 H 8.448178 0.061504 -16.108120 0
M  V30 46 H 7.188186 7.927976 -11.591015 0
M  V30 47 H 8.348976 8.100146 -12.875408 0
M  V30 48 H 6.175705 2.511385 -15.506035 0
M  V30 49 H 11.688354 9.671271 -9.412497 0
M  V30 50 H 6.135041 6.381501 -10.671948 0
M  V30 51 H 5.763529 4.715754 -10.623308 0
M  V30 52 H 13.753149 9.279329 -8.760868 0
M  V30 53 H 5.946866 2.809271 -11.380755 0
M  V30 54 H 8.575335 2.408625 -15.473923 0
M  V30 55 H 8.576026 1.729382 -13.852188 0
M  V30 56 H 11.797330 7.711106 -10.863510 0
M  V30 57 H 12.826216 7.084940 -9.650154 0
M  V30 58 H 12.327926 9.462926 -6.026336 0
M  V30 59 H 10.980041 10.497733 -6.373329 0
M  V30 60 H 7.375449 -1.898696 -16.192124 0
M  V30 61 H 7.510584 4.494897 -14.619579 0
M  V30 62 H 9.102264 4.201598 -13.980801 0
M  V30 63 H 5.284128 -2.243163 -15.986948 0
M  V30 64 H 4.872901 -1.194722 -17.348624 0
M  V30 65 H 4.727160 -0.410069 -14.582715 0
M  V30 66 H 4.602605 0.640011 -15.986062 0
M  V30 67 H 7.526457 5.591352 -8.801370 0
M  V30 68 H 7.875498 4.121784 -9.660136 0
M  V30 69 H 6.192761 1.099913 -17.952137 0
M  V30 70 H 7.441551 2.132741 -17.349947 0
M  V30 71 H 8.828588 9.071250 -10.370357 0
M  V30 72 H 10.064556 8.417156 -11.430241 0
M  V30 73 H 11.537762 9.011195 -2.645057 0
M  V30 74 H 11.752558 7.832863 -3.935718 0
M  V30 75 H 12.864625 9.207198 -3.781997 0
M  V30 76 H 9.766446 5.087867 -10.613765 0
M  V30 77 H 8.612398 7.246415 -9.209694 0
M  V30 78 H 7.087520 -1.443915 -17.752369 0
M  V30 79 H 6.944281 -0.091402 -14.468343 0
M  V30 END ATOM
M  V30 BEGIN BOND
M  V30 1 1 2 6 CFG=1
M  V30 2 1 9 3
M  V30 3 1 10 5
M  V30 4 1 13 2
M  V30 5 1 13 4
M  V30 6 1 13 11
M  V30 7 1 14 11
M  V30 8 1 15 1 CFG=3
M  V30 9 1 16 5
M  V30 10 1 16 7
M  V30 11 1 17 5
M  V30 12 1 17 16
M  V30 13 1 18 3
M  V30 14 1 18 7
M  V30 15 1 18 12
M  V30 16 1 20 15
M  V30 17 1 21 4
M  V30 18 1 13 21 CFG=3
M  V30 19 1 22 10
M  V30 20 1 23 2
M  V30 21 1 23 11
M  V30 22 1 24 2
M  V30 23 1 25 4
M  V30 24 1 25 19
M  V30 25 1 26 8
M  V30 26 1 27 7
M  V30 27 1 27 22
M  V30 28 1 28 26
M  V30 29 1 29 28
M  V30 30 2 30 20
M  V30 31 1 31 12
M  V30 32 1 32 8
M  V30 33 1 32 15
M  V30 34 1 33 15
M  V30 35 1 33 20
M  V30 36 1 34 8
M  V30 37 1 34 10
M  V30 38 1 34 29
M  V30 39 1 35 9
M  V30 40 1 35 24
M  V30 41 1 36 19
M  V30 42 1 37 3
M  V30 43 1 37 24
M  V30 44 1 37 31
M  V30 45 1 3 38 CFG=3
M  V30 46 1 4 39 CFG=1
M  V30 47 1 5 40 CFG=1
M  V30 48 1 41 6
M  V30 49 1 42 6
M  V30 50 1 43 6
M  V30 51 1 7 44 CFG=1
M  V30 52 1 8 45 CFG=1
M  V30 53 1 46 9
M  V30 54 1 47 9
M  V30 55 1 10 48 CFG=3
M  V30 56 1 11 49 CFG=3
M  V30 57 1 50 12
M  V30 58 1 51 12
M  V30 59 1 52 14
M  V30 60 1 16 53 CFG=1
M  V30 61 1 54 22
M  V30 62 1 55 22
M  V30 63 1 56 23
M  V30 64 1 57 23
M  V30 65 1 58 25
M  V30 66 1 59 25
M  V30 67 1 60 26
M  V30 68 1 61 27
M  V30 69 1 62 27
M  V30 70 1 63 28
M  V30 71 1 64 28
M  V30 72 1 65 29
M  V30 73 1 66 29
M  V30 74 1 67 31
M  V30 75 1 68 31
M  V30 76 1 69 32
M  V30 77 1 70 32
M  V30 78 1 71 35
M  V30 79 1 72 35
M  V30 80 1 73 36
M  V30 81 1 74 36
M  V30 82 1 75 36
M  V30 83 1 37 76 CFG=3
M  V30 84 1 24 77 CFG=1
M  V30 85 1 78 26
M  V30 86 1 34 79 CFG=1
M  V30 END BOND
M  V30 END CTAB
M  END
>  <i_epik_Tot_Q>  (1) 
3

>  <i_epik_Tot_abs_Q>  (1) 
3

>  <i_i_glide_confnum>  (1) 
93

>  <i_i_glide_lignum>  (1) 
82

>  <i_i_glide_posenum>  (1) 
13

>  <i_i_glide_rotatable_bonds>  (1) 
8

>  <i_lp_mmshare_version>  (1) 
72125

>  <i_m_source_file_index>  (1) 
29

>  <i_f3d_flags>  (1) 
0

>  <num_sample>  (1) 
50

>  <b_lp_Chiralities_Consistent>  (1) 
1

>  <r_epik_Charging_Adjusted_Penalty>  (1) 
2.5479580004866769

>  <r_epik_Ionization_Penalty>  (1) 
1.853674345886815

>  <r_epik_Ionization_Penalty_Charging>  (1) 
1.8530809818743854

>  <r_epik_Ionization_Penalty_Neutral>  (1) 
0.00059336401242958479

>  <r_epik_State_Penalty>  (1) 
0.69487701861229134

>  <r_glide_ring_energy>  (1) 
0.81914574756084646

>  <r_i_docking_score>  (1) 
-6.1013133825283132

>  <r_i_glide_ecoul>  (1) 
-15.651300360998359

>  <r_i_glide_eff_state_penalty>  (1) 
0.69487701861229134

>  <r_i_glide_einternal>  (1) 
8.2026309876930021

>  <r_i_glide_emodel>  (1) 
-60.103103393085149

>  <r_i_glide_emodel_strain>  (1) 
1.4316018235495562

>  <r_i_glide_energy>  (1) 
-43.728688301294426

>  <r_i_glide_erotb>  (1) 
0.44698704239028575

>  <r_i_glide_esite>  (1) 
-0.12667995038104551

>  <r_i_glide_evdw>  (1) 
-28.07738794029607

>  <r_i_glide_gscore>  (1) 
-6.7961904011406045

>  <r_i_glide_gscore_strain>  (1) 
0

>  <r_i_glide_hbond>  (1) 
-0.44389705104989863

>  <r_i_glide_ligand_efficiency>  (1) 
-0.16490036168995442

>  <r_i_glide_ligand_efficiency_ln>  (1) 
-1.3232318375907481

>  <r_i_glide_ligand_efficiency_sa>  (1) 
-0.54948458856758742

>  <r_i_glide_lipo>  (1) 
-2.2496901368313766

>  <r_i_glide_metal>  (1) 
-0

>  <r_i_glide_rewards>  (1) 
-0.67134585410401115

>  <r_lp_Energy>  (1) 
63.850986999999996

>  <s_epik_Chemistry_Notes>  (1) 
This compound has an ester and may undergo hydrolysis at high or low pH. This compound contains an acetal/aminal-like group ( X-CH(R)-Y where X, Y are N, S, or O) that may be acid/base labile, releasing an aldehyde.

>  <s_epik_cmdline>  (1) 
J2VwaWtfcHl0aG9uJywgJy1waHQnLCAnMS4wJywgJy1waCcsICc3LjQnLCAnLXRuJywgJzgnLCAnLW1hJywgJzUwMCcsICctaW1hZScsICc8aW5maWxlLm1hZT4nLCAnLW9tYWUnLCAnPG91dGZpbGUubWFlPic=

>  <s_epik_input>  (1) 
Tz1DKE8xKUMxKEYpW0NIMl1bQ0BASF0yW05IXVtDSDJdW0NIMl1OMltDQEBIXTNbQ0gyXVtDSDJdW0NASF0oW0NAQEhdKE80KVtDQEhdMzQpTjVbQ0gyXVtDSDJdW0NAQEhdKFtDQEhdNTYpTihbQ0gyXVtDSDJdNilbQ0BAXShbQ0gzXSkoW0NIMl1bQ0BASF03W09IXSlbQ0BAXTc4W0NASF0oTzgpW0NIMl1PW0NIM10=

>  <s_glide_docking_method>  (1) 
confgen

>  <s_i_glide_gridfile>  (1) 
gpcr_drd2_6luq_protein_autoprepared_prepared

>  <s_lp_Force_Field>  (1) 
S-OPLS

>  <s_lp_Variant>  (1) 
DiffSBDD_28-5

>  <s_m_source_file>  (1) 
generated_generic_title2_ligand_DiffSBDD_2026-06-23_prepared.sdf

>  <GenAI_Model>  (1) 
DiffSBDD

>  <Protein>  (1) 
generic_title2

$$$$
DiffSBDD_8
     RDKit          3D

  0  0  0  0  0  0  0  0  0  0999 V3000
M  V30 BEGIN CTAB
M  V30 COUNTS 69 72 0 0 1
M  V30 BEGIN ATOM
M  V30 1 N 7.389901 2.948489 -15.235811 0
M  V30 2 C 10.345772 3.844763 -17.288012 0
M  V30 3 C 6.971731 6.339172 -12.857935 0 CFG=1
M  V30 4 N 8.816852 5.033910 -18.676435 0
M  V30 5 O 8.818454 3.585275 -12.770780 0
M  V30 6 C 9.612238 6.485908 -9.422815 0
M  V30 7 F 6.992023 3.656225 -18.511491 0
M  V30 8 C 9.147323 5.971615 -8.047824 0
M  V30 9 N 8.575454 6.390226 -10.473747 0 CHG=1
M  V30 10 C 8.277363 5.063670 -11.046003 0 CFG=1
M  V30 11 C 8.326493 3.674768 -18.507720 0 CFG=2
M  V30 12 C 12.482051 9.251400 -3.960785 0
M  V30 13 C 7.093232 5.066550 -12.015452 0 CFG=2
M  V30 14 O 10.052086 5.538762 -12.641837 0
M  V30 15 O 8.718252 5.317518 -20.081827 0
M  V30 16 C 10.129805 6.273600 -6.893787 0
M  V30 17 C 6.681978 2.571826 -12.799623 0
M  V30 18 C 7.183577 1.555288 -15.647953 0
M  V30 19 C 6.661630 3.377599 -14.082990 0 CFG=1
M  V30 20 C 8.940819 3.230647 -17.172129 0 CFG=2
M  V30 21 C 8.179804 3.799227 -15.940642 0
M  V30 22 C 5.775433 6.642455 -13.721553 0
M  V30 23 C 9.414900 4.505017 -11.918666 0 CFG=2
M  V30 24 C 7.431996 3.879451 -12.881170 0 CFG=2
M  V30 25 O 11.775580 9.590177 -2.785011 0
M  V30 26 O 8.314405 4.985558 -15.628099 0
M  V30 27 C 11.538953 9.274892 -5.173744 0
M  V30 28 C 8.131696 6.601382 -20.198107 0
M  V30 29 C 10.241827 4.911528 -18.390413 0
M  V30 30 O 11.197655 7.950418 -5.555394 0
M  V30 31 C 10.297992 7.752838 -6.531574 0
M  V30 32 N 5.899065 7.190228 -12.384719 0
M  V30 33 O 9.661287 8.641784 -7.096093 0
M  V30 34 H 10.698917 4.282570 -16.353059 0
M  V30 35 H 11.077233 3.086424 -17.567891 0
M  V30 36 H 7.903432 6.808480 -13.165409 0
M  V30 37 H 9.859970 7.544337 -9.360503 0
M  V30 38 H 10.529161 5.990227 -9.717031 0
M  V30 39 H 8.995537 4.893272 -8.097818 0
M  V30 40 H 8.175385 6.390236 -7.801718 0
M  V30 41 H 7.736243 6.860710 -10.090926 0
M  V30 42 H 8.073165 4.349953 -10.248398 0
M  V30 43 H 8.667248 3.031251 -19.321630 0
M  V30 44 H 13.273094 9.986647 -4.100725 0
M  V30 45 H 12.972158 8.284502 -3.843159 0
M  V30 46 H 6.155519 4.883729 -11.486969 0
M  V30 47 H 10.728430 5.127304 -13.174040 0
M  V30 48 H 11.110111 5.853096 -7.118234 0
M  V30 49 H 9.777783 5.779100 -5.991348 0
M  V30 50 H 7.263931 1.651471 -12.785008 0
M  V30 51 H 5.775457 2.556623 -12.203739 0
M  V30 52 H 6.920650 1.476730 -16.703996 0
M  V30 53 H 8.072688 0.954743 -15.450984 0
M  V30 54 H 6.360153 1.096715 -15.098955 0
M  V30 55 H 5.735658 3.896007 -14.299008 0
M  V30 56 H 9.053354 2.149471 -17.140648 0
M  V30 57 H 5.910377 7.325888 -14.557905 0
M  V30 58 H 5.004964 5.888392 -13.858427 0
M  V30 59 H 10.175364 3.998941 -11.330587 0
M  V30 60 H 12.397963 9.732144 -2.084054 0
M  V30 61 H 10.646912 9.868503 -4.965738 0
M  V30 62 H 12.044169 9.749255 -6.016489 0
M  V30 63 H 8.011053 6.854975 -21.251276 0
M  V30 64 H 7.146596 6.633221 -19.729502 0
M  V30 65 H 8.763585 7.363642 -19.740676 0
M  V30 66 H 10.660524 5.870225 -18.083822 0
M  V30 67 H 10.781661 4.574089 -19.277378 0
M  V30 68 H 6.082819 8.179647 -12.290013 0
M  V30 69 H 8.887482 6.950556 -11.253045 0
M  V30 END ATOM
M  V30 BEGIN BOND
M  V30 1 1 8 6
M  V30 2 1 9 6
M  V30 3 1 10 9
M  V30 4 1 11 4
M  V30 5 1 11 7
M  V30 6 1 13 3
M  V30 7 1 13 10
M  V30 8 1 15 4
M  V30 9 1 16 8
M  V30 10 1 18 1
M  V30 11 1 19 1
M  V30 12 1 19 17
M  V30 13 1 20 2
M  V30 14 1 20 11
M  V30 15 1 21 1
M  V30 16 1 21 20
M  V30 17 1 22 3
M  V30 18 1 23 5
M  V30 19 1 23 10
M  V30 20 1 23 14
M  V30 21 1 24 5 CFG=3
M  V30 22 1 24 13
M  V30 23 1 24 17
M  V30 24 1 24 19
M  V30 25 1 25 12
M  V30 26 2 26 21
M  V30 27 1 27 12
M  V30 28 1 28 15
M  V30 29 1 29 2
M  V30 30 1 29 4
M  V30 31 1 30 27
M  V30 32 1 31 16
M  V30 33 1 31 30
M  V30 34 1 32 3
M  V30 35 1 32 22
M  V30 36 2 33 31
M  V30 37 1 34 2
M  V30 38 1 35 2
M  V30 39 1 3 36 CFG=3
M  V30 40 1 37 6
M  V30 41 1 38 6
M  V30 42 1 39 8
M  V30 43 1 40 8
M  V30 44 1 41 9
M  V30 45 1 10 42 CFG=1
M  V30 46 1 11 43 CFG=3
M  V30 47 1 44 12
M  V30 48 1 45 12
M  V30 49 1 13 46 CFG=1
M  V30 50 1 47 14
M  V30 51 1 48 16
M  V30 52 1 49 16
M  V30 53 1 50 17
M  V30 54 1 51 17
M  V30 55 1 52 18
M  V30 56 1 53 18
M  V30 57 1 54 18
M  V30 58 1 19 55 CFG=3
M  V30 59 1 20 56 CFG=1
M  V30 60 1 57 22
M  V30 61 1 58 22
M  V30 62 1 23 59 CFG=1
M  V30 63 1 60 25
M  V30 64 1 61 27
M  V30 65 1 62 27
M  V30 66 1 63 28
M  V30 67 1 64 28
M  V30 68 1 65 28
M  V30 69 1 66 29
M  V30 70 1 67 29
M  V30 71 1 68 32
M  V30 72 1 69 9
M  V30 END BOND
M  V30 END CTAB
M  END
>  <i_epik_Tot_Q>  (1) 
1

>  <i_epik_Tot_abs_Q>  (1) 
1

>  <i_i_glide_confnum>  (1) 
2163

>  <i_i_glide_lignum>  (1) 
32

>  <i_i_glide_posenum>  (1) 
91

>  <i_i_glide_rotatable_bonds>  (1) 
15

>  <i_lp_mmshare_version>  (1) 
72125

>  <i_m_source_file_index>  (1) 
9

>  <i_f3d_flags>  (1) 
0

>  <num_sample>  (1) 
50

>  <b_lp_Chiralities_Consistent>  (1) 
1

>  <r_epik_Charging_Adjusted_Penalty>  (1) 
0.31458683345696248

>  <r_epik_Ionization_Penalty>  (1) 
0.14300301403106822

>  <r_epik_Ionization_Penalty_Charging>  (1) 
0.065080964065447874

>  <r_epik_Ionization_Penalty_Neutral>  (1) 
0.077922049965620341

>  <r_epik_State_Penalty>  (1) 
0.24950586939151459

>  <r_glide_ring_energy>  (1) 
0

>  <r_i_docking_score>  (1) 
-6.0977818714346252

>  <r_i_glide_ecoul>  (1) 
-11.156448806228905

>  <r_i_glide_eff_state_penalty>  (1) 
0.24950586939151459

>  <r_i_glide_einternal>  (1) 
7.621335140824268

>  <r_i_glide_emodel>  (1) 
-65.207542833923668

>  <r_i_glide_emodel_strain>  (1) 
0.22398184967558166

>  <r_i_glide_energy>  (1) 
-47.375854730290413

>  <r_i_glide_erotb>  (1) 
1.0741905119875848

>  <r_i_glide_esite>  (1) 
-0.10000000000000001

>  <r_i_glide_evdw>  (1) 
-36.219405924061512

>  <r_i_glide_gscore>  (1) 
-6.3472877408261397

>  <r_i_glide_gscore_strain>  (1) 
0

>  <r_i_glide_hbond>  (1) 
-0.5470698878107243

>  <r_i_glide_ligand_efficiency>  (1) 
-0.18478126883135229

>  <r_i_glide_ligand_efficiency_ln>  (1) 
-1.3561151155822608

>  <r_i_glide_ligand_efficiency_sa>  (1) 
-0.59269226331675029

>  <r_i_glide_lipo>  (1) 
-1.6451231306088443

>  <r_i_glide_metal>  (1) 
-0

>  <r_i_glide_rewards>  (1) 
-1.644847617256745

>  <r_lp_Energy>  (1) 
36.819628999999999

>  <s_epik_Chemistry_Notes>  (1) 
This compound has an ester and may undergo hydrolysis at high or low pH. This compound contains an acetal/aminal-like group ( X-CH(R)-Y where X, Y are N, S, or O) that may be acid/base labile, releasing an aldehyde. This compound has a N-S or N-O group and may undergo hydrolysis at high or low pH.

>  <s_epik_cmdline>  (1) 
J2VwaWtfcHl0aG9uJywgJy1waHQnLCAnMS4wJywgJy1waCcsICc3LjQnLCAnLXRuJywgJzgnLCAnLW1hJywgJzUwMCcsICctaW1hZScsICc8aW5maWxlLm1hZT4nLCAnLW9tYWUnLCAnPG91dGZpbGUubWFlPic=

>  <s_epik_input>  (1) 
W0NIM11PTjFbQ0BIXShGKVtDQEBIXShbQ0gyXVtDSDJdMSlDKD1PKU4oW0NIM10pW0NASF0yW0NIMl1DMjNPW0NAQEhdKFtPSF0pW0NASF0oW0NASF0zW0NASF00W0NIMl1bTkhdNClbTkhdW0NIMl1bQ0gyXVtDSDJdQyg9TylPW0NIMl1bQ0gyXVtPSF0=

>  <s_glide_docking_method>  (1) 
confgen

>  <s_i_glide_gridfile>  (1) 
gpcr_drd2_6luq_protein_autoprepared_prepared

>  <s_lp_Force_Field>  (1) 
S-OPLS

>  <s_lp_Variant>  (1) 
DiffSBDD_8-1

>  <s_m_source_file>  (1) 
generated_generic_title2_ligand_DiffSBDD_2026-06-23_prepared.sdf

>  <GenAI_Model>  (1) 
DiffSBDD

>  <Protein>  (1) 
generic_title2

$$$$
DiffSBDD_8
     RDKit          3D

  0  0  0  0  0  0  0  0  0  0999 V3000
M  V30 BEGIN CTAB
M  V30 COUNTS 69 72 0 0 1
M  V30 BEGIN ATOM
M  V30 1 N 6.536536 5.556028 -16.327931 0
M  V30 2 C 5.602220 4.863136 -19.925257 0
M  V30 3 C 6.190607 4.996486 -12.234214 0 CFG=1
M  V30 4 N 5.552897 7.065750 -20.647048 0
M  V30 5 O 7.774841 7.060486 -13.903810 0
M  V30 6 C 9.440863 6.236816 -9.548393 0
M  V30 7 F 5.375412 8.075309 -18.623989 0
M  V30 8 C 10.046068 7.651669 -9.726637 0
M  V30 9 N 8.261979 5.990226 -10.404881 0 CHG=1
M  V30 10 C 8.463045 6.090213 -11.872766 0 CFG=1
M  V30 11 C 6.039622 7.133340 -19.278748 0 CFG=1
M  V30 12 C 12.117267 8.747596 -4.329777 0
M  V30 13 C 7.656536 5.068104 -12.643681 0 CFG=2
M  V30 14 O 6.883374 7.965013 -11.985023 0
M  V30 15 O 6.316114 8.032607 -21.388941 0
M  V30 16 C 11.214342 7.995669 -8.773727 0
M  V30 17 C 8.767210 5.231292 -15.063184 0
M  V30 18 C 5.416086 6.400453 -15.892603 0
M  V30 19 C 7.299757 4.931333 -15.282007 0 CFG=1
M  V30 20 C 5.714979 5.767536 -18.680739 0 CFG=2
M  V30 21 C 6.749806 5.259289 -17.641250 0
M  V30 22 C 5.375564 3.801391 -12.590417 0
M  V30 23 C 8.038098 7.409375 -12.568026 0 CFG=2
M  V30 24 C 7.744028 5.643383 -14.025217 0 CFG=2
M  V30 25 O 11.775401 7.376746 -4.382861 0
M  V30 26 O 7.699860 4.569170 -18.012640 0
M  V30 27 C 11.330722 9.557002 -5.375439 0
M  V30 28 C 5.401180 9.015909 -21.842003 0
M  V30 29 C 6.003298 5.760882 -21.094888 0
M  V30 30 O 11.629599 9.150192 -6.704755 0
M  V30 31 C 10.790900 8.297226 -7.332783 0
M  V30 32 N 5.897548 3.990086 -11.240127 0
M  V30 33 O 9.783616 7.797804 -6.829441 0
M  V30 34 H 6.205183 3.955359 -19.895831 0
M  V30 35 H 4.567086 4.542766 -20.051275 0
M  V30 36 H 5.641156 5.930446 -12.176963 0
M  V30 37 H 10.175344 5.460881 -9.737646 0
M  V30 38 H 9.105214 6.088420 -8.523125 0
M  V30 39 H 9.265294 8.404492 -9.608974 0
M  V30 40 H 10.411074 7.762007 -10.746734 0
M  V30 41 H 7.911914 5.060754 -10.212053 0
M  V30 42 H 9.515997 5.917307 -12.109098 0
M  V30 43 H 7.109458 7.349043 -19.241692 0
M  V30 44 H 11.871015 9.116506 -3.333511 0
M  V30 45 H 13.193323 8.867605 -4.440507 0
M  V30 46 H 8.113434 4.077531 -12.611081 0
M  V30 47 H 6.975396 7.990339 -11.026204 0
M  V30 48 H 11.738967 8.873057 -9.154077 0
M  V30 49 H 11.945970 7.190869 -8.760249 0
M  V30 50 H 9.208141 5.989936 -15.703342 0
M  V30 51 H 9.416229 4.391379 -14.831413 0
M  V30 52 H 5.514687 7.413469 -16.279299 0
M  V30 53 H 4.450656 5.991821 -16.184448 0
M  V30 54 H 5.374517 6.492569 -14.807217 0
M  V30 55 H 7.040824 3.883684 -15.137591 0
M  V30 56 H 4.711955 5.794237 -18.263774 0
M  V30 57 H 4.318872 3.979711 -12.781364 0
M  V30 58 H 5.832514 3.023611 -13.198110 0
M  V30 59 H 8.818281 8.169261 -12.523943 0
M  V30 60 H 10.845514 7.290865 -4.538364 0
M  V30 61 H 10.260402 9.512885 -5.185007 0
M  V30 62 H 11.601557 10.608385 -5.284218 0
M  V30 63 H 5.933176 9.780372 -22.408159 0
M  V30 64 H 4.644888 8.580748 -22.497027 0
M  V30 65 H 4.899051 9.509773 -21.007179 0
M  V30 66 H 7.086851 5.754009 -21.225834 0
M  V30 67 H 5.535169 5.468175 -22.035861 0
M  V30 68 H 5.226361 4.223302 -10.517141 0
M  V30 69 H 7.546390 6.652147 -10.080337 0
M  V30 END ATOM
M  V30 BEGIN BOND
M  V30 1 1 8 6
M  V30 2 1 9 6
M  V30 3 1 10 9
M  V30 4 1 11 4
M  V30 5 1 11 7
M  V30 6 1 13 3
M  V30 7 1 13 10
M  V30 8 1 15 4
M  V30 9 1 16 8
M  V30 10 1 18 1
M  V30 11 1 19 1
M  V30 12 1 19 17
M  V30 13 1 20 2
M  V30 14 1 20 11
M  V30 15 1 21 1
M  V30 16 1 21 20
M  V30 17 1 22 3
M  V30 18 1 23 5
M  V30 19 1 23 10
M  V30 20 1 23 14
M  V30 21 1 24 5 CFG=1
M  V30 22 1 24 13
M  V30 23 1 24 17
M  V30 24 1 24 19
M  V30 25 1 25 12
M  V30 26 2 26 21
M  V30 27 1 27 12
M  V30 28 1 28 15
M  V30 29 1 29 2
M  V30 30 1 29 4
M  V30 31 1 30 27
M  V30 32 1 31 16
M  V30 33 1 31 30
M  V30 34 1 32 3
M  V30 35 1 32 22
M  V30 36 2 33 31
M  V30 37 1 34 2
M  V30 38 1 35 2
M  V30 39 1 3 36 CFG=1
M  V30 40 1 37 6
M  V30 41 1 38 6
M  V30 42 1 39 8
M  V30 43 1 40 8
M  V30 44 1 41 9
M  V30 45 1 10 42 CFG=1
M  V30 46 1 11 43 CFG=3
M  V30 47 1 44 12
M  V30 48 1 45 12
M  V30 49 1 13 46 CFG=3
M  V30 50 1 47 14
M  V30 51 1 48 16
M  V30 52 1 49 16
M  V30 53 1 50 17
M  V30 54 1 51 17
M  V30 55 1 52 18
M  V30 56 1 53 18
M  V30 57 1 54 18
M  V30 58 1 19 55 CFG=1
M  V30 59 1 20 56 CFG=1
M  V30 60 1 57 22
M  V30 61 1 58 22
M  V30 62 1 23 59 CFG=3
M  V30 63 1 60 25
M  V30 64 1 61 27
M  V30 65 1 62 27
M  V30 66 1 63 28
M  V30 67 1 64 28
M  V30 68 1 65 28
M  V30 69 1 66 29
M  V30 70 1 67 29
M  V30 71 1 68 32
M  V30 72 1 69 9
M  V30 END BOND
M  V30 END CTAB
M  END
>  <i_epik_Tot_Q>  (1) 
1

>  <i_epik_Tot_abs_Q>  (1) 
1

>  <i_i_glide_confnum>  (1) 
1891

>  <i_i_glide_lignum>  (1) 
33

>  <i_i_glide_posenum>  (1) 
18

>  <i_i_glide_rotatable_bonds>  (1) 
15

>  <i_lp_mmshare_version>  (1) 
72125

>  <i_m_source_file_index>  (1) 
9

>  <i_f3d_flags>  (1) 
0

>  <num_sample>  (1) 
50

>  <b_lp_Chiralities_Consistent>  (1) 
1

>  <r_epik_Charging_Adjusted_Penalty>  (1) 
0.31458683345696248

>  <r_epik_Ionization_Penalty>  (1) 
0.14300301403106822

>  <r_epik_Ionization_Penalty_Charging>  (1) 
0.065080964065447874

>  <r_epik_Ionization_Penalty_Neutral>  (1) 
0.077922049965620341

>  <r_epik_State_Penalty>  (1) 
0.24950586939151459

>  <r_glide_ring_energy>  (1) 
0

>  <r_i_docking_score>  (1) 
-6.0836448858614283

>  <r_i_glide_ecoul>  (1) 
-12.234334733443591

>  <r_i_glide_eff_state_penalty>  (1) 
0.24950586939151459

>  <r_i_glide_einternal>  (1) 
8.504711162880831

>  <r_i_glide_emodel>  (1) 
-60.217454388372531

>  <r_i_glide_emodel_strain>  (1) 
2.5451157517643566

>  <r_i_glide_energy>  (1) 
-45.074522631157549

>  <r_i_glide_erotb>  (1) 
1.0741905119875848

>  <r_i_glide_esite>  (1) 
-0.14953800670214715

>  <r_i_glide_evdw>  (1) 
-32.84018789771396

>  <r_i_glide_gscore>  (1) 
-6.3331507552529427

>  <r_i_glide_gscore_strain>  (1) 
0

>  <r_i_glide_hbond>  (1) 
-0.34364396758957161

>  <r_i_glide_ligand_efficiency>  (1) 
-0.18435287532913419

>  <r_i_glide_ligand_efficiency_ln>  (1) 
-1.3529711231881758

>  <r_i_glide_ligand_efficiency_sa>  (1) 
-0.59131817645163864

>  <r_i_glide_lipo>  (1) 
-1.962665071792149

>  <r_i_glide_metal>  (1) 
-0

>  <r_i_glide_rewards>  (1) 
-1.4743346162544224

>  <r_lp_Energy>  (1) 
37.534118999999997

>  <s_epik_Chemistry_Notes>  (1) 
This compound has an ester and may undergo hydrolysis at high or low pH. This compound contains an acetal/aminal-like group ( X-CH(R)-Y where X, Y are N, S, or O) that may be acid/base labile, releasing an aldehyde. This compound has a N-S or N-O group and may undergo hydrolysis at high or low pH.

>  <s_epik_cmdline>  (1) 
J2VwaWtfcHl0aG9uJywgJy1waHQnLCAnMS4wJywgJy1waCcsICc3LjQnLCAnLXRuJywgJzgnLCAnLW1hJywgJzUwMCcsICctaW1hZScsICc8aW5maWxlLm1hZT4nLCAnLW9tYWUnLCAnPG91dGZpbGUubWFlPic=

>  <s_epik_input>  (1) 
W0NIM11PTjFbQ0BIXShGKVtDQEBIXShbQ0gyXVtDSDJdMSlDKD1PKU4oW0NIM10pW0NASF0yW0NIMl1DMjNPW0NAQEhdKFtPSF0pW0NASF0oW0NASF0zW0NASF00W0NIMl1bTkhdNClbTkhdW0NIMl1bQ0gyXVtDSDJdQyg9TylPW0NIMl1bQ0gyXVtPSF0=

>  <s_glide_docking_method>  (1) 
confgen

>  <s_i_glide_gridfile>  (1) 
gpcr_drd2_6luq_protein_autoprepared_prepared

>  <s_lp_Force_Field>  (1) 
S-OPLS

>  <s_lp_Variant>  (1) 
DiffSBDD_8-2

>  <s_m_source_file>  (1) 
generated_generic_title2_ligand_DiffSBDD_2026-06-23_prepared.sdf

>  <GenAI_Model>  (1) 
DiffSBDD

>  <Protein>  (1) 
generic_title2

$$$$
DiffSBDD_28
     RDKit          3D

  0  0  0  0  0  0  0  0  0  0999 V3000
M  V30 BEGIN CTAB
M  V30 COUNTS 79 86 0 0 1
M  V30 BEGIN ATOM
M  V30 1 F 6.882436 1.087212 -21.256473 0
M  V30 2 C 10.277576 6.835356 -9.608605 0 CFG=1
M  V30 3 C 8.287318 6.093439 -12.699085 0 CFG=2
M  V30 4 C 10.226310 8.184633 -7.236399 0 CFG=2
M  V30 5 C 7.234444 1.456793 -14.404660 0 CFG=1
M  V30 6 C 10.177427 5.596537 -8.698004 0
M  V30 7 C 7.880982 3.962045 -13.776422 0 CFG=2
M  V30 8 C 7.594414 0.788171 -18.219267 0 CFG=1
M  V30 9 C 7.813838 7.531216 -12.423854 0
M  V30 10 C 7.194963 1.769178 -15.891711 0 CFG=1
M  V30 11 C 11.627501 8.597481 -9.507608 0 CFG=1
M  V30 12 C 6.787458 4.700209 -11.674809 0
M  V30 13 C 10.473881 8.031783 -8.710439 0 CFG=1
M  V30 14 O 12.837194 8.784053 -8.802502 0
M  V30 15 C 6.659178 2.009063 -20.250410 0 CFG=1
M  V30 16 C 7.492975 2.534301 -13.375388 0 CFG=1
M  V30 17 O 6.175433 2.087737 -13.664009 0
M  V30 18 N 7.269887 5.074460 -12.999574 0
M  V30 19 O 10.575401 9.326681 -5.184939 0
M  V30 20 C 6.232787 3.351984 -20.700619 0
M  V30 21 O 9.375861 8.790183 -8.231626 0
M  V30 22 C 8.055846 3.011870 -16.195816 0
M  V30 23 C 11.571229 7.316798 -10.334930 0
M  V30 24 N 9.081923 6.884131 -10.518507 0 CFG=1 CHG=1
M  V30 25 C 11.151490 9.067039 -6.432383 0
M  V30 26 N 7.623809 -0.594565 -18.750645 0 CHG=1
M  V30 27 C 7.683834 4.205025 -15.293252 0
M  V30 28 C 6.972698 -1.482106 -17.764805 0
M  V30 29 C 6.612999 -0.578832 -16.583516 0
M  V30 30 O 5.270040 3.905394 -20.171895 0
M  V30 31 C 8.001138 4.653448 -10.761658 0
M  V30 32 C 6.385780 1.549178 -18.829557 0
M  V30 33 O 7.482600 3.225112 -20.308807 0
M  V30 34 N 7.507543 0.585697 -16.744537 0 CFG=1 CHG=1
M  V30 35 C 8.838423 8.049680 -11.403630 0
M  V30 36 C 11.364527 10.181130 -4.388105 0
M  V30 37 C 8.953488 5.683768 -11.375476 0 CFG=1
M  V30 38 H 9.031473 6.146413 -13.493617 0
M  V30 39 H 9.760219 7.369782 -6.688488 0
M  V30 40 H 7.439594 0.431879 -14.103766 0
M  V30 41 H 10.989471 5.553346 -7.976942 0
M  V30 42 H 9.254327 5.612066 -8.116967 0
M  V30 43 H 10.175009 4.651488 -9.234774 0
M  V30 44 H 8.958767 3.970886 -13.607759 0
M  V30 45 H 8.524977 1.303027 -18.463412 0
M  V30 46 H 6.817604 7.544531 -11.979821 0
M  V30 47 H 7.774587 8.142374 -13.326674 0
M  V30 48 H 6.175315 2.031206 -16.111938 0
M  V30 49 H 11.376240 9.478690 -10.085813 0
M  V30 50 H 6.113277 5.478579 -11.314240 0
M  V30 51 H 6.197154 3.784311 -11.661208 0
M  V30 52 H 13.403487 9.343551 -9.325891 0
M  V30 53 H 7.872938 2.195710 -12.414148 0
M  V30 54 H 7.927932 3.327864 -17.230468 0
M  V30 55 H 9.108889 2.770547 -16.097198 0
M  V30 56 H 11.534492 7.453064 -11.413970 0
M  V30 57 H 12.476872 6.790184 -10.068419 0
M  V30 58 H 12.090096 8.533101 -6.282780 0
M  V30 59 H 11.375611 9.990437 -6.965476 0
M  V30 60 H 8.583020 -0.890953 -18.872259 0
M  V30 61 H 6.638345 4.458612 -15.477682 0
M  V30 62 H 8.260263 5.079458 -15.599297 0
M  V30 63 H 7.682241 -2.255692 -17.468342 0
M  V30 64 H 6.093996 -1.975744 -18.183849 0
M  V30 65 H 6.709519 -1.073628 -15.620780 0
M  V30 66 H 5.573970 -0.255170 -16.669064 0
M  V30 67 H 7.715620 4.859483 -9.729497 0
M  V30 68 H 8.490609 3.681660 -10.792196 0
M  V30 69 H 5.495023 0.919792 -18.841172 0
M  V30 70 H 6.114544 2.421926 -18.239268 0
M  V30 71 H 8.476330 8.911111 -10.842300 0
M  V30 72 H 9.727668 8.364729 -11.945215 0
M  V30 73 H 10.949912 10.254023 -3.382652 0
M  V30 74 H 12.390887 9.821653 -4.302121 0
M  V30 75 H 11.367654 11.179921 -4.821448 0
M  V30 76 H 9.927955 5.237584 -11.584818 0
M  V30 77 H 8.258485 6.933141 -9.916210 0
M  V30 78 H 7.156869 -0.644000 -19.647011 0
M  V30 79 H 8.421017 0.271489 -16.446906 0
M  V30 END ATOM
M  V30 BEGIN BOND
M  V30 1 1 2 6 CFG=1
M  V30 2 1 9 3
M  V30 3 1 10 5
M  V30 4 1 13 2
M  V30 5 1 13 4
M  V30 6 1 13 11
M  V30 7 1 14 11
M  V30 8 1 15 1 CFG=3
M  V30 9 1 16 5
M  V30 10 1 16 7
M  V30 11 1 17 5
M  V30 12 1 17 16
M  V30 13 1 18 3
M  V30 14 1 18 7
M  V30 15 1 18 12
M  V30 16 1 20 15
M  V30 17 1 21 4
M  V30 18 1 13 21 CFG=3
M  V30 19 1 22 10
M  V30 20 1 23 2
M  V30 21 1 23 11
M  V30 22 1 24 2
M  V30 23 1 25 4
M  V30 24 1 25 19
M  V30 25 1 26 8
M  V30 26 1 27 7
M  V30 27 1 27 22
M  V30 28 1 28 26
M  V30 29 1 29 28
M  V30 30 2 30 20
M  V30 31 1 31 12
M  V30 32 1 32 8
M  V30 33 1 32 15
M  V30 34 1 33 15
M  V30 35 1 33 20
M  V30 36 1 34 8
M  V30 37 1 34 10
M  V30 38 1 34 29
M  V30 39 1 35 9
M  V30 40 1 35 24
M  V30 41 1 36 19
M  V30 42 1 37 3
M  V30 43 1 37 24
M  V30 44 1 37 31
M  V30 45 1 3 38 CFG=3
M  V30 46 1 4 39 CFG=1
M  V30 47 1 5 40 CFG=3
M  V30 48 1 41 6
M  V30 49 1 42 6
M  V30 50 1 43 6
M  V30 51 1 7 44 CFG=3
M  V30 52 1 8 45 CFG=1
M  V30 53 1 46 9
M  V30 54 1 47 9
M  V30 55 1 10 48 CFG=3
M  V30 56 1 11 49 CFG=3
M  V30 57 1 50 12
M  V30 58 1 51 12
M  V30 59 1 52 14
M  V30 60 1 16 53 CFG=1
M  V30 61 1 54 22
M  V30 62 1 55 22
M  V30 63 1 56 23
M  V30 64 1 57 23
M  V30 65 1 58 25
M  V30 66 1 59 25
M  V30 67 1 60 26
M  V30 68 1 61 27
M  V30 69 1 62 27
M  V30 70 1 63 28
M  V30 71 1 64 28
M  V30 72 1 65 29
M  V30 73 1 66 29
M  V30 74 1 67 31
M  V30 75 1 68 31
M  V30 76 1 69 32
M  V30 77 1 70 32
M  V30 78 1 71 35
M  V30 79 1 72 35
M  V30 80 1 73 36
M  V30 81 1 74 36
M  V30 82 1 75 36
M  V30 83 1 37 76 CFG=3
M  V30 84 1 24 77 CFG=1
M  V30 85 1 78 26
M  V30 86 1 34 79 CFG=1
M  V30 END BOND
M  V30 END CTAB
M  END
>  <i_epik_Tot_Q>  (1) 
3

>  <i_epik_Tot_abs_Q>  (1) 
3

>  <i_i_glide_confnum>  (1) 
87

>  <i_i_glide_lignum>  (1) 
82

>  <i_i_glide_posenum>  (1) 
367

>  <i_i_glide_rotatable_bonds>  (1) 
8

>  <i_lp_mmshare_version>  (1) 
72125

>  <i_m_source_file_index>  (1) 
29

>  <i_f3d_flags>  (1) 
0

>  <num_sample>  (1) 
50

>  <b_lp_Chiralities_Consistent>  (1) 
1

>  <r_epik_Charging_Adjusted_Penalty>  (1) 
2.5479580004866769

>  <r_epik_Ionization_Penalty>  (1) 
1.853674345886815

>  <r_epik_Ionization_Penalty_Charging>  (1) 
1.8530809818743854

>  <r_epik_Ionization_Penalty_Neutral>  (1) 
0.00059336401242958479

>  <r_epik_State_Penalty>  (1) 
0.69487701861229134

>  <r_glide_ring_energy>  (1) 
0.81914574756084646

>  <r_i_docking_score>  (1) 
-6.0682285602002892

>  <r_i_glide_ecoul>  (1) 
-13.89176716937604

>  <r_i_glide_eff_state_penalty>  (1) 
0.69487701861229134

>  <r_i_glide_einternal>  (1) 
8.032132255766399

>  <r_i_glide_emodel>  (1) 
-56.452514292550653

>  <r_i_glide_emodel_strain>  (1) 
4.1325880238648551

>  <r_i_glide_energy>  (1) 
-42.800484047845245

>  <r_i_glide_erotb>  (1) 
0.44698704239028575

>  <r_i_glide_esite>  (1) 
-0.1040149114594896

>  <r_i_glide_evdw>  (1) 
-28.908716878469203

>  <r_i_glide_gscore>  (1) 
-6.7631055788125805

>  <r_i_glide_gscore_strain>  (1) 
0.033147005966213783

>  <r_i_glide_hbond>  (1) 
-0.50717924314317142

>  <r_i_glide_ligand_efficiency>  (1) 
-0.16400617730271053

>  <r_i_glide_ligand_efficiency_ln>  (1) 
-1.3160565152460806

>  <r_i_glide_ligand_efficiency_sa>  (1) 
-0.54650496781301261

>  <r_i_glide_lipo>  (1) 
-2.2117777155564982

>  <r_i_glide_metal>  (1) 
-0

>  <r_i_glide_rewards>  (1) 
-0.8910668376800539

>  <r_lp_Energy>  (1) 
63.850986999999996

>  <s_epik_Chemistry_Notes>  (1) 
This compound has an ester and may undergo hydrolysis at high or low pH. This compound contains an acetal/aminal-like group ( X-CH(R)-Y where X, Y are N, S, or O) that may be acid/base labile, releasing an aldehyde.

>  <s_epik_cmdline>  (1) 
J2VwaWtfcHl0aG9uJywgJy1waHQnLCAnMS4wJywgJy1waCcsICc3LjQnLCAnLXRuJywgJzgnLCAnLW1hJywgJzUwMCcsICctaW1hZScsICc8aW5maWxlLm1hZT4nLCAnLW9tYWUnLCAnPG91dGZpbGUubWFlPic=

>  <s_epik_input>  (1) 
Tz1DKE8xKUMxKEYpW0NIMl1bQ0BASF0yW05IXVtDSDJdW0NIMl1OMltDQEBIXTNbQ0gyXVtDSDJdW0NASF0oW0NAQEhdKE80KVtDQEhdMzQpTjVbQ0gyXVtDSDJdW0NAQEhdKFtDQEhdNTYpTihbQ0gyXVtDSDJdNilbQ0BAXShbQ0gzXSkoW0NIMl1bQ0BASF03W09IXSlbQ0BAXTc4W0NASF0oTzgpW0NIMl1PW0NIM10=

>  <s_glide_docking_method>  (1) 
confgen

>  <s_i_glide_gridfile>  (1) 
gpcr_drd2_6luq_protein_autoprepared_prepared

>  <s_lp_Force_Field>  (1) 
S-OPLS

>  <s_lp_Variant>  (1) 
DiffSBDD_28-5

>  <s_m_source_file>  (1) 
generated_generic_title2_ligand_DiffSBDD_2026-06-23_prepared.sdf

>  <GenAI_Model>  (1) 
DiffSBDD

>  <Protein>  (1) 
generic_title2

$$$$
DiffSBDD_40
     RDKit          3D

  0  0  0  0  0  0  0  0  0  0999 V3000
M  V30 BEGIN CTAB
M  V30 COUNTS 74 76 0 0 1
M  V30 BEGIN ATOM
M  V30 1 C 9.815603 7.153942 -8.217970 0
M  V30 2 O 17.375409 4.790238 -17.157621 0 CHG=-1
M  V30 3 C 14.109451 3.928035 -20.431462 0
M  V30 4 C 10.469347 7.386547 -9.371291 0
M  V30 5 C 11.969848 6.835802 -18.830665 0 CFG=2
M  V30 6 C 8.032106 4.859334 -16.547338 0
M  V30 7 C 7.694435 5.224867 -15.076473 0 CFG=2
M  V30 8 C 12.145129 7.989754 -19.834351 0
M  V30 9 C 13.098427 5.085705 -20.384973 0
M  V30 10 C 8.682474 5.572329 -10.673119 0
M  V30 11 C 11.207145 8.395064 -6.455146 0
M  V30 12 C 15.425644 4.972239 -18.520274 0 CFG=2
M  V30 13 F 11.087765 6.107579 -6.614926 0
M  V30 14 C 7.919756 3.992344 -14.171858 0
M  V30 15 C 13.004079 5.686433 -18.969734 0 CFG=1
M  V30 16 C 14.403693 6.130503 -18.495204 0
M  V30 17 C 6.561086 5.722281 -12.137965 0
M  V30 18 C 6.352448 6.604745 -13.386874 0
M  V30 19 C 12.610413 8.495522 -8.523471 0
M  V30 20 C 10.514160 6.389892 -18.807647 0
M  V30 21 C 9.522998 5.074089 -16.767930 0
M  V30 22 C 11.869343 7.837673 -9.463113 0
M  V30 23 F 10.975225 8.933257 -5.245666 0
M  V30 24 S 9.596829 7.131727 -10.892660 0
M  V30 25 O 17.231978 6.535076 -18.533928 0
M  V30 26 C 16.471661 3.138543 -20.013114 0
M  V30 27 C 12.196842 8.918701 -7.182615 0
M  V30 28 C 8.565170 4.395103 -12.871136 0
M  V30 29 C 16.796041 5.477994 -18.027786 0
M  V30 30 C 10.394605 7.219609 -6.851652 0 CFG=2
M  V30 31 C 7.975451 5.175712 -11.953727 0
M  V30 32 C 10.004821 5.684677 -17.824256 0
M  V30 33 C 15.513763 4.343607 -19.938899 0 CFG=1
M  V30 34 C 5.866270 6.910941 -15.825082 0
M  V30 35 C 6.320820 5.887554 -14.764851 0 CFG=1
M  V30 36 H 8.785416 6.833088 -8.262598 0
M  V30 37 H 13.738413 3.103857 -19.821396 0
M  V30 38 H 14.171985 3.548060 -21.451681 0
M  V30 39 H 12.138956 7.272250 -17.844160 0
M  V30 40 H 7.492557 5.473665 -17.265360 0
M  V30 41 H 7.764022 3.826080 -16.770975 0
M  V30 42 H 8.427621 5.987871 -14.804235 0
M  V30 43 H 11.438401 8.790171 -19.618413 0
M  V30 44 H 13.141742 8.425513 -19.787712 0
M  V30 45 H 11.962105 7.668605 -20.859531 0
M  V30 46 H 12.118585 4.731164 -20.705966 0
M  V30 47 H 13.403797 5.848139 -21.101656 0
M  V30 48 H 7.960017 5.631650 -9.859977 0
M  V30 49 H 9.397491 4.796192 -10.399240 0
M  V30 50 H 15.085100 4.206028 -17.821469 0
M  V30 51 H 6.989555 3.455718 -13.980257 0
M  V30 52 H 8.575400 3.267110 -14.647772 0
M  V30 53 H 12.694572 4.886388 -18.295748 0
M  V30 54 H 14.758602 6.948486 -19.122990 0
M  V30 55 H 14.340498 6.530299 -17.481868 0
M  V30 56 H 5.858467 4.888735 -12.144256 0
M  V30 57 H 6.302305 6.314494 -11.259050 0
M  V30 58 H 5.397951 7.114911 -13.248361 0
M  V30 59 H 7.103805 7.395929 -13.395360 0
M  V30 60 H 13.604827 8.789946 -8.827455 0
M  V30 61 H 9.902837 6.698005 -19.643363 0
M  V30 62 H 10.181450 4.704841 -15.994399 0
M  V30 63 H 12.353875 7.678578 -10.415156 0
M  V30 64 H 16.173006 2.355376 -19.316644 0
M  V30 65 H 16.481510 2.706313 -21.013638 0
M  V30 66 H 17.498356 3.419166 -19.777669 0
M  V30 67 H 12.750398 9.729351 -6.735417 0
M  V30 68 H 9.569736 4.034104 -12.698858 0
M  V30 69 H 9.551069 7.176528 -6.160958 0
M  V30 70 H 15.891509 5.105608 -20.622647 0
M  V30 71 H 6.630066 7.662931 -16.012856 0
M  V30 72 H 5.608538 6.435192 -16.770386 0
M  V30 73 H 4.975479 7.446349 -15.501956 0
M  V30 74 H 5.553538 5.113798 -14.731172 0
M  V30 END ATOM
M  V30 BEGIN BOND
M  V30 1 2 4 1
M  V30 2 1 7 6
M  V30 3 1 8 5
M  V30 4 1 9 3
M  V30 5 1 14 7
M  V30 6 1 15 5
M  V30 7 1 15 9
M  V30 8 1 16 12
M  V30 9 1 16 15
M  V30 10 1 18 17
M  V30 11 1 20 5
M  V30 12 1 21 6
M  V30 13 1 22 4
M  V30 14 2 22 19
M  V30 15 1 23 11
M  V30 16 1 24 4
M  V30 17 1 24 10
M  V30 18 2 27 11
M  V30 19 1 27 19
M  V30 20 1 28 14
M  V30 21 1 29 2
M  V30 22 1 29 12
M  V30 23 2 29 25
M  V30 24 1 30 1
M  V30 25 1 30 11
M  V30 26 1 30 13
M  V30 27 1 31 10
M  V30 28 1 31 17
M  V30 29 2 31 28
M  V30 30 2 32 20
M  V30 31 2 32 21
M  V30 32 1 33 3
M  V30 33 1 33 12
M  V30 34 1 33 26
M  V30 35 1 35 7
M  V30 36 1 35 18
M  V30 37 1 35 34
M  V30 38 1 36 1
M  V30 39 1 37 3
M  V30 40 1 38 3
M  V30 41 1 5 39 CFG=1
M  V30 42 1 40 6
M  V30 43 1 41 6
M  V30 44 1 7 42 CFG=1
M  V30 45 1 43 8
M  V30 46 1 44 8
M  V30 47 1 45 8
M  V30 48 1 46 9
M  V30 49 1 47 9
M  V30 50 1 48 10
M  V30 51 1 49 10
M  V30 52 1 12 50 CFG=1
M  V30 53 1 51 14
M  V30 54 1 52 14
M  V30 55 1 15 53 CFG=1
M  V30 56 1 54 16
M  V30 57 1 55 16
M  V30 58 1 56 17
M  V30 59 1 57 17
M  V30 60 1 58 18
M  V30 61 1 59 18
M  V30 62 1 60 19
M  V30 63 1 61 20
M  V30 64 1 62 21
M  V30 65 1 63 22
M  V30 66 1 64 26
M  V30 67 1 65 26
M  V30 68 1 66 26
M  V30 69 1 67 27
M  V30 70 1 68 28
M  V30 71 1 30 69 CFG=1
M  V30 72 1 33 70 CFG=3
M  V30 73 1 71 34
M  V30 74 1 72 34
M  V30 75 1 73 34
M  V30 76 1 35 74 CFG=1
M  V30 END BOND
M  V30 END CTAB
M  END
>  <i_epik_Tot_Q>  (1) 
-1

>  <i_epik_Tot_abs_Q>  (1) 
1

>  <i_i_glide_confnum>  (1) 
204

>  <i_i_glide_lignum>  (1) 
115

>  <i_i_glide_posenum>  (1) 
305

>  <i_i_glide_rotatable_bonds>  (1) 
8

>  <i_lp_mmshare_version>  (1) 
72125

>  <i_m_source_file_index>  (1) 
41

>  <i_f3d_flags>  (1) 
0

>  <num_sample>  (1) 
50

>  <b_lp_Chiralities_Consistent>  (1) 
1

>  <r_epik_Charging_Adjusted_Penalty>  (1) 
0.0014684053483694905

>  <r_epik_Ionization_Penalty>  (1) 
0.0014684053483694905

>  <r_epik_Ionization_Penalty_Charging>  (1) 
0.0014684053483694905

>  <r_epik_Ionization_Penalty_Neutral>  (1) 
0

>  <r_epik_State_Penalty>  (1) 
-0

>  <r_glide_ring_energy>  (1) 
0

>  <r_i_docking_score>  (1) 
-6.0645476261240168

>  <r_i_glide_ecoul>  (1) 
-5.365474296188677

>  <r_i_glide_eff_state_penalty>  (1) 
-0

>  <r_i_glide_einternal>  (1) 
8.0525941826546674

>  <r_i_glide_emodel>  (1) 
-44.935622807111912

>  <r_i_glide_emodel_strain>  (1) 
1.1916086106711674

>  <r_i_glide_energy>  (1) 
-39.599441459841238

>  <r_i_glide_erotb>  (1) 
0.56810967558155767

>  <r_i_glide_esite>  (1) 
-0.0028610989024805788

>  <r_i_glide_evdw>  (1) 
-34.233967163652558

>  <r_i_glide_gscore>  (1) 
-6.0645476261240168

>  <r_i_glide_gscore_strain>  (1) 
0

>  <r_i_glide_hbond>  (1) 
-0.16

>  <r_i_glide_ligand_efficiency>  (1) 
-0.17327278931782905

>  <r_i_glide_ligand_efficiency_ln>  (1) 
-1.3313027993169761

>  <r_i_glide_ligand_efficiency_sa>  (1) 
-0.56678678360995605

>  <r_i_glide_lipo>  (1) 
-2.4364647419844285

>  <r_i_glide_metal>  (1) 
-0

>  <r_i_glide_rewards>  (1) 
-1.5168119582077355

>  <r_lp_Energy>  (1) 
5.7710229999999996

>  <r_lp_tautomer_probability>  (1) 
1

>  <s_epik_cmdline>  (1) 
J2VwaWtfcHl0aG9uJywgJy1waHQnLCAnMS4wJywgJy1waCcsICc3LjQnLCAnLXRuJywgJzgnLCAnLW1hJywgJzUwMCcsICctaW1hZScsICc8aW5maWxlLm1hZT4nLCAnLW9tYWUnLCAnPG91dGZpbGUubWFlPic=

>  <s_epik_input>  (1) 
W0NIXTE9W0NIXVtDSF09QyhGKVtDQEhdKEYpW0NIXT1DMVNbQ0gyXUMoW0NIMl1bQ0gyXVtDQEhdMltDSDNdKT1bQ0hdW0NIMl1bQ0BIXTJbQ0gyXVtDSF09Qz1bQ0hdW0NASF0oW0NIM10pW0NAQEhdKFtDSDJdW0NIMl1bQ0BASF0zW0NIM10pW0NIMl1bQ0BASF0zQyg9TylbT0hd

>  <s_glide_docking_method>  (1) 
confgen

>  <s_i_glide_gridfile>  (1) 
gpcr_drd2_6luq_protein_autoprepared_prepared

>  <s_lp_Force_Field>  (1) 
S-OPLS

>  <s_lp_Variant>  (1) 
DiffSBDD_40-1

>  <s_m_source_file>  (1) 
generated_generic_title2_ligand_DiffSBDD_2026-06-23_prepared.sdf

>  <GenAI_Model>  (1) 
DiffSBDD

>  <Protein>  (1) 
generic_title2

$$$$
DiffSBDD_36
     RDKit          3D

  0  0  0  0  0  0  0  0  0  0999 V3000
M  V30 BEGIN CTAB
M  V30 COUNTS 34 34 0 0 1
M  V30 BEGIN ATOM
M  V30 1 C 12.387313 8.288990 -8.247809 0
M  V30 2 O 7.752324 4.723234 -10.680447 0
M  V30 3 C 8.764817 5.659329 -10.962154 0 CFG=1
M  V30 4 C 11.604641 8.977186 -4.940988 0
M  V30 5 O 11.107677 7.422149 -10.780659 0
M  V30 6 C 12.344638 8.789880 -3.634023 0 CFG=1
M  V30 7 O 11.775466 9.475634 -2.681109 0 CHG=-1
M  V30 8 C 11.044570 7.911152 -5.526924 0
M  V30 9 C 8.264559 6.586816 -12.082959 0
M  V30 10 S 10.169975 7.640931 -9.668260 0
M  V30 11 C 11.574831 10.387610 -5.513284 0
M  V30 12 N 8.975378 6.390294 -9.717129 0
M  V30 13 O 12.573742 6.700071 -2.386394 0
M  V30 14 C 10.267960 7.921308 -6.852373 0
M  V30 15 C 12.143195 7.267966 -3.391523 0
M  V30 16 S 11.219562 6.391960 -4.711424 0
M  V30 17 C 11.103049 7.454885 -8.075585 0 CFG=2
M  V30 18 O 9.430210 8.903156 -9.585241 0
M  V30 19 H 12.979105 8.352334 -7.340201 0
M  V30 20 H 13.028198 7.880076 -9.029102 0
M  V30 21 H 12.135555 9.310536 -8.535922 0
M  V30 22 H 7.191463 5.073273 -10.003156 0
M  V30 23 H 9.673920 5.135756 -11.257771 0
M  V30 24 H 13.382317 8.927856 -3.895309 0
M  V30 25 H 9.029036 7.298780 -12.396358 0
M  V30 26 H 7.986392 6.010867 -12.965839 0
M  V30 27 H 7.388316 7.154869 -11.766947 0
M  V30 28 H 11.176016 11.104216 -4.792108 0
M  V30 29 H 12.573864 10.695343 -5.822150 0
M  V30 30 H 10.967248 10.476795 -6.385064 0
M  V30 31 H 8.083600 6.897424 -9.528870 0
M  V30 32 H 9.809034 8.888749 -7.036113 0
M  V30 33 H 9.418244 7.245738 -6.738721 0
M  V30 34 H 11.352211 6.399354 -7.965166 0
M  V30 END ATOM
M  V30 BEGIN BOND
M  V30 1 1 3 2
M  V30 2 1 6 4
M  V30 3 1 7 6
M  V30 4 2 8 4
M  V30 5 1 9 3
M  V30 6 2 10 5
M  V30 7 1 11 4
M  V30 8 1 12 3
M  V30 9 1 12 10
M  V30 10 1 14 8
M  V30 11 1 15 6
M  V30 12 2 15 13
M  V30 13 1 16 8
M  V30 14 1 16 15
M  V30 15 1 17 1
M  V30 16 1 17 10
M  V30 17 1 17 14
M  V30 18 2 18 10
M  V30 19 1 19 1
M  V30 20 1 20 1
M  V30 21 1 21 1
M  V30 22 1 22 2
M  V30 23 1 3 23 CFG=3
M  V30 24 1 6 24 CFG=3
M  V30 25 1 25 9
M  V30 26 1 26 9
M  V30 27 1 27 9
M  V30 28 1 28 11
M  V30 29 1 29 11
M  V30 30 1 30 11
M  V30 31 1 31 12
M  V30 32 1 32 14
M  V30 33 1 33 14
M  V30 34 1 17 34 CFG=1
M  V30 END BOND
M  V30 END CTAB
M  END
>  <i_epik_Tot_Q>  (1) 
-1

>  <i_epik_Tot_abs_Q>  (1) 
1

>  <i_i_glide_confnum>  (1) 
11

>  <i_i_glide_lignum>  (1) 
99

>  <i_i_glide_posenum>  (1) 
178

>  <i_i_glide_rotatable_bonds>  (1) 
6

>  <i_lp_mmshare_version>  (1) 
72125

>  <i_m_source_file_index>  (1) 
37

>  <i_f3d_flags>  (1) 
0

>  <num_sample>  (1) 
50

>  <b_lp_Chiralities_Consistent>  (1) 
1

>  <r_epik_Charging_Adjusted_Penalty>  (1) 
0.051395495470861363

>  <r_epik_Ionization_Penalty>  (1) 
0.025821951155603234

>  <r_epik_Ionization_Penalty_Charging>  (1) 
0.025697747735430668

>  <r_epik_Ionization_Penalty_Neutral>  (1) 
0.00012420342017256702

>  <r_epik_State_Penalty>  (1) 
0.025697747735430692

>  <r_glide_ring_energy>  (1) 
0

>  <r_i_docking_score>  (1) 
-6.0598160485655184

>  <r_i_glide_ecoul>  (1) 
-6.9406448656831676

>  <r_i_glide_eff_state_penalty>  (1) 
0.025697747735430692

>  <r_i_glide_einternal>  (1) 
7.5511865009862245

>  <r_i_glide_emodel>  (1) 
-42.786877510646669

>  <r_i_glide_emodel_strain>  (1) 
1.3981167302629984

>  <r_i_glide_energy>  (1) 
-35.601030815390772

>  <r_i_glide_erotb>  (1) 
1.0552049389146296

>  <r_i_glide_esite>  (1) 
-0.30611257854794938

>  <r_i_glide_evdw>  (1) 
-28.660385949707607

>  <r_i_glide_gscore>  (1) 
-6.0855137963009494

>  <r_i_glide_gscore_strain>  (1) 
0

>  <r_i_glide_hbond>  (1) 
-0.14593794297400814

>  <r_i_glide_ligand_efficiency>  (1) 
-0.33665644714252879

>  <r_i_glide_ligand_efficiency_ln>  (1) 
-1.5576444683637498

>  <r_i_glide_ligand_efficiency_sa>  (1) 
-0.88228948665372464

>  <r_i_glide_lipo>  (1) 
-2.0625343681739472

>  <r_i_glide_metal>  (1) 
-0

>  <r_i_glide_rewards>  (1) 
-2.1520178181818186

>  <r_lp_Energy>  (1) 
-5.848738

>  <s_epik_Chemistry_Notes>  (1) 
This compound contains an acetal/aminal-like group ( X-CH(R)-Y where X, Y are N, S, or O) that may be acid/base labile, releasing an aldehyde.

>  <s_epik_cmdline>  (1) 
J2VwaWtfcHl0aG9uJywgJy1waHQnLCAnMS4wJywgJy1waCcsICc3LjQnLCAnLXRuJywgJzgnLCAnLW1hJywgJzUwMCcsICctaW1hZScsICc8aW5maWxlLm1hZT4nLCAnLW9tYWUnLCAnPG91dGZpbGUubWFlPic=

>  <s_epik_input>  (1) 
W09IXVtDQEBIXShbQ0gzXSlbTkhdUyg9TykoPU8pW0NAQEhdKFtDSDNdKVtDSDJdQyg9QzFbQ0gzXSlTQyg9TylbQ0BASF0xW09IXQ==

>  <s_glide_docking_method>  (1) 
confgen

>  <s_i_glide_gridfile>  (1) 
gpcr_drd2_6luq_protein_autoprepared_prepared

>  <s_lp_Force_Field>  (1) 
S-OPLS

>  <s_lp_Variant>  (1) 
DiffSBDD_36-1

>  <s_m_source_file>  (1) 
generated_generic_title2_ligand_DiffSBDD_2026-06-23_prepared.sdf

>  <GenAI_Model>  (1) 
DiffSBDD

>  <Protein>  (1) 
generic_title2

$$$$
DiffSBDD_28
     RDKit          3D

  0  0  0  0  0  0  0  0  0  0999 V3000
M  V30 BEGIN CTAB
M  V30 COUNTS 79 86 0 0 1
M  V30 BEGIN ATOM
M  V30 1 F 9.128559 2.005899 -18.544890 0
M  V30 2 C 10.619795 6.878065 -9.216264 0 CFG=1
M  V30 3 C 8.459427 6.002399 -12.109543 0 CFG=2
M  V30 4 C 10.660296 8.368783 -6.868914 0 CFG=2
M  V30 5 C 5.942836 1.887001 -13.683644 0 CFG=1
M  V30 6 C 10.564947 5.664897 -8.266651 0
M  V30 7 C 7.589627 3.787751 -12.731512 0 CFG=2
M  V30 8 C 7.318031 0.064112 -16.864989 0 CFG=1
M  V30 9 C 8.224400 7.521526 -12.109943 0
M  V30 10 C 6.710569 1.716348 -14.986859 0 CFG=1
M  V30 11 C 11.953785 8.629540 -9.249954 0 CFG=1
M  V30 12 C 6.620236 5.252321 -11.003532 0
M  V30 13 C 10.872198 8.081515 -8.344649 0 CFG=1
M  V30 14 O 13.203969 8.790153 -8.625850 0
M  V30 15 C 7.795909 2.212970 -18.238861 0 CFG=1
M  V30 16 C 6.387291 2.866858 -12.617170 0 CFG=1
M  V30 17 O 5.375403 3.200779 -13.542497 0
M  V30 18 N 7.262865 5.181189 -12.317324 0
M  V30 19 O 11.052017 9.693803 -4.830506 0
M  V30 20 C 7.228173 3.383910 -18.944806 0
M  V30 21 O 9.730426 8.790224 -7.884576 0
M  V30 22 C 8.135573 2.249005 -14.756174 0
M  V30 23 C 11.844602 7.337076 -10.048540 0
M  V30 24 N 9.375346 6.970988 -10.046077 0 CFG=1 CHG=1
M  V30 25 C 11.466548 9.458386 -6.167488 0
M  V30 26 N 6.835416 -1.295855 -17.184781 0 CHG=1
M  V30 27 C 8.149526 3.690361 -14.178139 0
M  V30 28 C 5.442368 -1.373328 -16.715808 0
M  V30 29 C 5.346117 -0.328918 -15.599152 0
M  V30 30 O 6.205376 3.267809 -19.618066 0
M  V30 31 C 7.734623 5.104677 -9.975167 0
M  V30 32 C 6.879237 1.018137 -18.012167 0
M  V30 33 O 7.402046 3.501337 -17.649200 0
M  V30 34 N 6.678266 0.322521 -15.536297 0 CFG=1 CHG=1
M  V30 35 C 9.175919 8.067030 -11.040009 0
M  V30 36 C 11.774844 8.925964 -3.876596 0
M  V30 37 C 8.962051 5.702048 -10.690416 0 CFG=1
M  V30 38 H 9.236170 5.785302 -12.842462 0
M  V30 39 H 10.310704 7.554912 -6.237470 0
M  V30 40 H 5.255580 1.097830 -13.387072 0
M  V30 41 H 11.379391 5.664685 -7.548581 0
M  V30 42 H 9.650768 5.678242 -7.672243 0
M  V30 43 H 10.575410 4.701947 -8.765425 0
M  V30 44 H 8.346898 3.375983 -12.062086 0
M  V30 45 H 8.405401 0.043602 -16.779885 0
M  V30 46 H 7.199211 7.782581 -11.852119 0
M  V30 47 H 8.404683 7.958612 -13.091019 0
M  V30 48 H 6.221730 2.349904 -15.720513 0
M  V30 49 H 11.676959 9.502922 -9.840303 0
M  V30 50 H 6.146008 6.225420 -10.880219 0
M  V30 51 H 5.805328 4.548580 -10.858989 0
M  V30 52 H 13.723430 9.370441 -9.179033 0
M  V30 53 H 6.031915 2.643033 -11.615591 0
M  V30 54 H 8.682055 2.229221 -15.695253 0
M  V30 55 H 8.651452 1.584618 -14.062646 0
M  V30 56 H 11.761773 7.424920 -11.128251 0
M  V30 57 H 12.741981 6.790227 -9.862391 0
M  V30 58 H 12.526137 9.204069 -6.190053 0
M  V30 59 H 11.375379 10.389412 -6.723735 0
M  V30 60 H 7.373209 -1.968253 -16.643411 0
M  V30 61 H 7.568666 4.337899 -14.837362 0
M  V30 62 H 9.165009 4.081607 -14.202182 0
M  V30 63 H 5.192040 -2.382090 -16.384771 0
M  V30 64 H 4.767072 -1.108812 -17.531874 0
M  V30 65 H 5.108470 -0.795271 -14.647496 0
M  V30 66 H 4.557621 0.389318 -15.828369 0
M  V30 67 H 7.483200 5.590016 -9.030734 0
M  V30 68 H 7.889417 4.049728 -9.770882 0
M  V30 69 H 6.898643 0.462351 -18.951983 0
M  V30 70 H 5.843156 1.338535 -17.888141 0
M  V30 71 H 8.758749 8.944793 -10.547401 0
M  V30 72 H 10.067356 8.390033 -11.560713 0
M  V30 73 H 11.415467 9.157221 -2.873135 0
M  V30 74 H 11.645193 7.855291 -4.045648 0
M  V30 75 H 12.840394 9.157597 -3.901138 0
M  V30 76 H 9.774648 4.978867 -10.767276 0
M  V30 77 H 8.615382 7.166018 -9.397161 0
M  V30 78 H 6.916449 -1.519029 -18.167764 0
M  V30 79 H 7.202106 -0.233866 -14.872909 0
M  V30 END ATOM
M  V30 BEGIN BOND
M  V30 1 1 2 6 CFG=1
M  V30 2 1 9 3
M  V30 3 1 10 5
M  V30 4 1 13 2
M  V30 5 1 13 4
M  V30 6 1 13 11
M  V30 7 1 14 11
M  V30 8 1 15 1 CFG=3
M  V30 9 1 16 5
M  V30 10 1 16 7
M  V30 11 1 17 5
M  V30 12 1 17 16
M  V30 13 1 18 3
M  V30 14 1 18 7
M  V30 15 1 18 12
M  V30 16 1 20 15
M  V30 17 1 21 4
M  V30 18 1 13 21 CFG=3
M  V30 19 1 22 10
M  V30 20 1 23 2
M  V30 21 1 23 11
M  V30 22 1 24 2
M  V30 23 1 25 4
M  V30 24 1 25 19
M  V30 25 1 26 8
M  V30 26 1 27 7
M  V30 27 1 27 22
M  V30 28 1 28 26
M  V30 29 1 29 28
M  V30 30 2 30 20
M  V30 31 1 31 12
M  V30 32 1 32 8
M  V30 33 1 32 15
M  V30 34 1 33 15
M  V30 35 1 33 20
M  V30 36 1 34 8
M  V30 37 1 34 10
M  V30 38 1 34 29
M  V30 39 1 35 9
M  V30 40 1 35 24
M  V30 41 1 36 19
M  V30 42 1 37 3
M  V30 43 1 37 24
M  V30 44 1 37 31
M  V30 45 1 3 38 CFG=3
M  V30 46 1 4 39 CFG=1
M  V30 47 1 5 40 CFG=1
M  V30 48 1 41 6
M  V30 49 1 42 6
M  V30 50 1 43 6
M  V30 51 1 7 44 CFG=1
M  V30 52 1 8 45 CFG=1
M  V30 53 1 46 9
M  V30 54 1 47 9
M  V30 55 1 10 48 CFG=3
M  V30 56 1 11 49 CFG=3
M  V30 57 1 50 12
M  V30 58 1 51 12
M  V30 59 1 52 14
M  V30 60 1 16 53 CFG=1
M  V30 61 1 54 22
M  V30 62 1 55 22
M  V30 63 1 56 23
M  V30 64 1 57 23
M  V30 65 1 58 25
M  V30 66 1 59 25
M  V30 67 1 60 26
M  V30 68 1 61 27
M  V30 69 1 62 27
M  V30 70 1 63 28
M  V30 71 1 64 28
M  V30 72 1 65 29
M  V30 73 1 66 29
M  V30 74 1 67 31
M  V30 75 1 68 31
M  V30 76 1 69 32
M  V30 77 1 70 32
M  V30 78 1 71 35
M  V30 79 1 72 35
M  V30 80 1 73 36
M  V30 81 1 74 36
M  V30 82 1 75 36
M  V30 83 1 37 76 CFG=3
M  V30 84 1 24 77 CFG=1
M  V30 85 1 78 26
M  V30 86 1 34 79 CFG=1
M  V30 END BOND
M  V30 END CTAB
M  END
>  <i_epik_Tot_Q>  (1) 
3

>  <i_epik_Tot_abs_Q>  (1) 
3

>  <i_i_glide_confnum>  (1) 
51

>  <i_i_glide_lignum>  (1) 
82

>  <i_i_glide_posenum>  (1) 
4

>  <i_i_glide_rotatable_bonds>  (1) 
8

>  <i_lp_mmshare_version>  (1) 
72125

>  <i_m_source_file_index>  (1) 
29

>  <i_f3d_flags>  (1) 
0

>  <num_sample>  (1) 
50

>  <b_lp_Chiralities_Consistent>  (1) 
1

>  <r_epik_Charging_Adjusted_Penalty>  (1) 
2.5479580004866769

>  <r_epik_Ionization_Penalty>  (1) 
1.853674345886815

>  <r_epik_Ionization_Penalty_Charging>  (1) 
1.8530809818743854

>  <r_epik_Ionization_Penalty_Neutral>  (1) 
0.00059336401242958479

>  <r_epik_State_Penalty>  (1) 
0.69487701861229134

>  <r_glide_ring_energy>  (1) 
0.81914574756084646

>  <r_i_docking_score>  (1) 
-6.0503404908806973

>  <r_i_glide_ecoul>  (1) 
-16.329308009859091

>  <r_i_glide_eff_state_penalty>  (1) 
0.69487701861229134

>  <r_i_glide_einternal>  (1) 
7.9502279693689495

>  <r_i_glide_emodel>  (1) 
-56.166973741184449

>  <r_i_glide_emodel_strain>  (1) 
1.5818915308055352

>  <r_i_glide_energy>  (1) 
-39.980956558556755

>  <r_i_glide_erotb>  (1) 
0.44698704239028575

>  <r_i_glide_esite>  (1) 
-0.11784706591919542

>  <r_i_glide_evdw>  (1) 
-23.651648548697668

>  <r_i_glide_gscore>  (1) 
-6.7452175094929885

>  <r_i_glide_gscore_strain>  (1) 
0

>  <r_i_glide_hbond>  (1) 
-0.48067058784395034

>  <r_i_glide_ligand_efficiency>  (1) 
-0.16352271596974857

>  <r_i_glide_ligand_efficiency_ln>  (1) 
-1.3121770123665046

>  <r_i_glide_ligand_efficiency_sa>  (1) 
-0.54489396739489093

>  <r_i_glide_lipo>  (1) 
-2.2539299641169035

>  <r_i_glide_metal>  (1) 
-0

>  <r_i_glide_rewards>  (1) 
-0.70777830508947859

>  <r_lp_Energy>  (1) 
63.850986999999996

>  <s_epik_Chemistry_Notes>  (1) 
This compound has an ester and may undergo hydrolysis at high or low pH. This compound contains an acetal/aminal-like group ( X-CH(R)-Y where X, Y are N, S, or O) that may be acid/base labile, releasing an aldehyde.

>  <s_epik_cmdline>  (1) 
J2VwaWtfcHl0aG9uJywgJy1waHQnLCAnMS4wJywgJy1waCcsICc3LjQnLCAnLXRuJywgJzgnLCAnLW1hJywgJzUwMCcsICctaW1hZScsICc8aW5maWxlLm1hZT4nLCAnLW9tYWUnLCAnPG91dGZpbGUubWFlPic=

>  <s_epik_input>  (1) 
Tz1DKE8xKUMxKEYpW0NIMl1bQ0BASF0yW05IXVtDSDJdW0NIMl1OMltDQEBIXTNbQ0gyXVtDSDJdW0NASF0oW0NAQEhdKE80KVtDQEhdMzQpTjVbQ0gyXVtDSDJdW0NAQEhdKFtDQEhdNTYpTihbQ0gyXVtDSDJdNilbQ0BAXShbQ0gzXSkoW0NIMl1bQ0BASF03W09IXSlbQ0BAXTc4W0NASF0oTzgpW0NIMl1PW0NIM10=

>  <s_glide_docking_method>  (1) 
confgen

>  <s_i_glide_gridfile>  (1) 
gpcr_drd2_6luq_protein_autoprepared_prepared

>  <s_lp_Force_Field>  (1) 
S-OPLS

>  <s_lp_Variant>  (1) 
DiffSBDD_28-5

>  <s_m_source_file>  (1) 
generated_generic_title2_ligand_DiffSBDD_2026-06-23_prepared.sdf

>  <GenAI_Model>  (1) 
DiffSBDD

>  <Protein>  (1) 
generic_title2

$$$$
DiffSBDD_8
     RDKit          3D

  0  0  0  0  0  0  0  0  0  0999 V3000
M  V30 BEGIN CTAB
M  V30 COUNTS 70 73 0 0 1
M  V30 BEGIN ATOM
M  V30 1 N 7.473701 3.385939 -15.191357 0
M  V30 2 C 10.072975 4.722963 -17.512969 0
M  V30 3 C 7.047940 6.602270 -12.550071 0 CFG=1
M  V30 4 N 8.233702 5.578811 -18.774513 0
M  V30 5 O 9.046646 3.969198 -12.850089 0
M  V30 6 C 9.924019 6.533319 -9.206577 0
M  V30 7 F 6.698316 3.926524 -18.385038 0
M  V30 8 C 9.216468 6.735374 -7.857803 0
M  V30 9 N 8.975411 6.598277 -10.337571 0 CHG=1
M  V30 10 C 8.649927 5.307555 -10.987899 0 CFG=1
M  V30 11 C 8.004005 4.166963 -18.511293 0 CFG=2
M  V30 12 C 12.731836 9.217043 -3.754705 0
M  V30 13 C 7.351643 5.299228 -11.809830 0 CFG=2
M  V30 14 O 10.170812 5.990088 -12.751303 0
M  V30 15 O 7.965880 5.755291 -20.177200 0
M  V30 16 C 10.160315 6.679629 -6.644836 0
M  V30 17 C 6.968536 2.838574 -12.735370 0
M  V30 18 C 7.400973 1.984240 -15.624193 0
M  V30 19 C 6.801980 3.705635 -13.966223 0 CFG=1
M  V30 20 C 8.815511 3.882839 -17.238080 0 CFG=2
M  V30 21 C 8.099541 4.336836 -15.933547 0
M  V30 22 C 5.762143 6.804122 -13.308695 0
M  V30 23 C 9.697343 4.876177 -12.025948 0 CFG=2
M  V30 24 C 7.644764 4.188184 -12.796933 0 CFG=2
M  V30 25 O 12.175406 9.191397 -2.456116 0
M  V30 26 O 8.121492 5.524526 -15.598574 0
M  V30 27 C 11.661275 9.570598 -4.794268 0
M  V30 28 C 7.072757 6.847592 -20.298495 0
M  V30 29 C 9.679299 5.707159 -18.627626 0
M  V30 30 O 10.975410 8.388723 -5.185028 0
M  V30 31 C 10.977920 7.958431 -6.451340 0
M  V30 32 N 5.951717 7.365809 -11.985026 0 CHG=1
M  V30 33 O 11.566268 8.505348 -7.384499 0
M  V30 34 H 10.438007 5.251250 -16.630430 0
M  V30 35 H 10.892643 4.088122 -17.850483 0
M  V30 36 H 7.880351 7.242004 -12.835181 0
M  V30 37 H 10.666504 7.311609 -9.374557 0
M  V30 38 H 10.464233 5.590150 -9.185030 0
M  V30 39 H 8.446951 5.971890 -7.736417 0
M  V30 40 H 8.691189 7.690799 -7.851344 0
M  V30 41 H 8.114274 7.042342 -9.984994 0
M  V30 42 H 8.577955 4.518003 -10.236823 0
M  V30 43 H 8.367867 3.554719 -19.338721 0
M  V30 44 H 13.500954 9.988357 -3.768030 0
M  V30 45 H 13.221795 8.270723 -3.980475 0
M  V30 46 H 6.498818 5.021441 -11.186919 0
M  V30 47 H 10.798047 5.658404 -13.383346 0
M  V30 48 H 10.839032 5.830884 -6.728822 0
M  V30 49 H 9.568741 6.514550 -5.743641 0
M  V30 50 H 7.605810 1.957483 -12.800199 0
M  V30 51 H 6.109612 2.734887 -12.077592 0
M  V30 52 H 7.075970 1.893426 -16.661216 0
M  V30 53 H 8.366365 1.489892 -15.508549 0
M  V30 54 H 6.677862 1.419000 -15.034686 0
M  V30 55 H 5.809477 4.130588 -14.087259 0
M  V30 56 H 9.117839 2.837913 -17.198770 0
M  V30 57 H 5.681854 7.590234 -14.055316 0
M  V30 58 H 4.975414 6.057213 -13.269686 0
M  V30 59 H 10.561884 4.390232 -11.585067 0
M  V30 60 H 12.769941 9.638771 -1.866186 0
M  V30 61 H 10.952855 10.294958 -4.390433 0
M  V30 62 H 12.138979 10.053860 -5.647547 0
M  V30 63 H 6.780264 6.962997 -21.341842 0
M  V30 64 H 6.164782 6.694143 -19.712590 0
M  V30 65 H 7.543632 7.778964 -19.985009 0
M  V30 66 H 9.955862 6.734722 -18.395682 0
M  V30 67 H 10.180479 5.424638 -19.555102 0
M  V30 68 H 5.497066 6.908877 -11.206492 0
M  V30 69 H 9.372238 7.187946 -11.055721 0
M  V30 70 H 6.145537 8.354684 -11.912308 0
M  V30 END ATOM
M  V30 BEGIN BOND
M  V30 1 1 8 6
M  V30 2 1 9 6
M  V30 3 1 10 9
M  V30 4 1 11 4
M  V30 5 1 11 7
M  V30 6 1 13 3
M  V30 7 1 13 10
M  V30 8 1 15 4
M  V30 9 1 16 8
M  V30 10 1 18 1
M  V30 11 1 19 1
M  V30 12 1 19 17
M  V30 13 1 20 2
M  V30 14 1 20 11
M  V30 15 1 21 1
M  V30 16 1 21 20
M  V30 17 1 22 3
M  V30 18 1 23 5
M  V30 19 1 23 10
M  V30 20 1 23 14
M  V30 21 1 24 5 CFG=3
M  V30 22 1 24 13
M  V30 23 1 24 17
M  V30 24 1 24 19
M  V30 25 1 25 12
M  V30 26 2 26 21
M  V30 27 1 27 12
M  V30 28 1 28 15
M  V30 29 1 29 2
M  V30 30 1 29 4
M  V30 31 1 30 27
M  V30 32 1 31 16
M  V30 33 1 31 30
M  V30 34 1 32 3
M  V30 35 1 32 22
M  V30 36 2 33 31
M  V30 37 1 34 2
M  V30 38 1 35 2
M  V30 39 1 3 36 CFG=3
M  V30 40 1 37 6
M  V30 41 1 38 6
M  V30 42 1 39 8
M  V30 43 1 40 8
M  V30 44 1 41 9
M  V30 45 1 10 42 CFG=1
M  V30 46 1 11 43 CFG=3
M  V30 47 1 44 12
M  V30 48 1 45 12
M  V30 49 1 13 46 CFG=1
M  V30 50 1 47 14
M  V30 51 1 48 16
M  V30 52 1 49 16
M  V30 53 1 50 17
M  V30 54 1 51 17
M  V30 55 1 52 18
M  V30 56 1 53 18
M  V30 57 1 54 18
M  V30 58 1 19 55 CFG=3
M  V30 59 1 20 56 CFG=1
M  V30 60 1 57 22
M  V30 61 1 58 22
M  V30 62 1 23 59 CFG=1
M  V30 63 1 60 25
M  V30 64 1 61 27
M  V30 65 1 62 27
M  V30 66 1 63 28
M  V30 67 1 64 28
M  V30 68 1 65 28
M  V30 69 1 66 29
M  V30 70 1 67 29
M  V30 71 1 68 32
M  V30 72 1 69 9
M  V30 73 1 70 32
M  V30 END BOND
M  V30 END CTAB
M  END
>  <i_epik_Tot_Q>  (1) 
2

>  <i_epik_Tot_abs_Q>  (1) 
2

>  <i_i_glide_confnum>  (1) 
5896

>  <i_i_glide_lignum>  (1) 
40

>  <i_i_glide_posenum>  (1) 
370

>  <i_i_glide_rotatable_bonds>  (1) 
15

>  <i_lp_mmshare_version>  (1) 
72125

>  <i_m_source_file_index>  (1) 
9

>  <i_f3d_flags>  (1) 
0

>  <num_sample>  (1) 
50

>  <b_lp_Chiralities_Consistent>  (1) 
1

>  <r_epik_Charging_Adjusted_Penalty>  (1) 
2.8797985042560583

>  <r_epik_Ionization_Penalty>  (1) 
1.6442763990741283

>  <r_epik_Ionization_Penalty_Charging>  (1) 
1.6439676131770962

>  <r_epik_Ionization_Penalty_Neutral>  (1) 
0.00030878589703216643

>  <r_epik_State_Penalty>  (1) 
1.2358308910789622

>  <r_glide_ring_energy>  (1) 
0

>  <r_i_docking_score>  (1) 
-6.0391224473150054

>  <r_i_glide_ecoul>  (1) 
-13.399021353120007

>  <r_i_glide_eff_state_penalty>  (1) 
1.2358308910789622

>  <r_i_glide_einternal>  (1) 
8.6699528274510769

>  <r_i_glide_emodel>  (1) 
-73.836091481111907

>  <r_i_glide_emodel_strain>  (1) 
2.4927802258542471

>  <r_i_glide_energy>  (1) 
-50.598721286216382

>  <r_i_glide_erotb>  (1) 
1.0700444368793263

>  <r_i_glide_esite>  (1) 
-0.20000000000000001

>  <r_i_glide_evdw>  (1) 
-37.199699933096376

>  <r_i_glide_gscore>  (1) 
-7.2749533383939671

>  <r_i_glide_gscore_strain>  (1) 
0

>  <r_i_glide_hbond>  (1) 
-0.68541606611945838

>  <r_i_glide_ligand_efficiency>  (1) 
-0.18300371052469713

>  <r_i_glide_ligand_efficiency_ln>  (1) 
-1.3430695633803007

>  <r_i_glide_ligand_efficiency_sa>  (1) 
-0.58699068402458465

>  <r_i_glide_lipo>  (1) 
-1.7217842642445578

>  <r_i_glide_metal>  (1) 
-0

>  <r_i_glide_rewards>  (1) 
-1.867959245286458

>  <r_lp_Energy>  (1) 
49.698582999999999

>  <s_epik_Chemistry_Notes>  (1) 
This compound has an ester and may undergo hydrolysis at high or low pH. This compound contains an acetal/aminal-like group ( X-CH(R)-Y where X, Y are N, S, or O) that may be acid/base labile, releasing an aldehyde. This compound has a N-S or N-O group and may undergo hydrolysis at high or low pH.

>  <s_epik_cmdline>  (1) 
J2VwaWtfcHl0aG9uJywgJy1waHQnLCAnMS4wJywgJy1waCcsICc3LjQnLCAnLXRuJywgJzgnLCAnLW1hJywgJzUwMCcsICctaW1hZScsICc8aW5maWxlLm1hZT4nLCAnLW9tYWUnLCAnPG91dGZpbGUubWFlPic=

>  <s_epik_input>  (1) 
W0NIM11PTjFbQ0BIXShGKVtDQEBIXShbQ0gyXVtDSDJdMSlDKD1PKU4oW0NIM10pW0NASF0yW0NIMl1DMjNPW0NAQEhdKFtPSF0pW0NASF0oW0NASF0zW0NASF00W0NIMl1bTkhdNClbTkhdW0NIMl1bQ0gyXVtDSDJdQyg9TylPW0NIMl1bQ0gyXVtPSF0=

>  <s_glide_docking_method>  (1) 
confgen

>  <s_i_glide_gridfile>  (1) 
gpcr_drd2_6luq_protein_autoprepared_prepared

>  <s_lp_Force_Field>  (1) 
S-OPLS

>  <s_lp_Variant>  (1) 
DiffSBDD_8-9

>  <s_m_source_file>  (1) 
generated_generic_title2_ligand_DiffSBDD_2026-06-23_prepared.sdf

>  <GenAI_Model>  (1) 
DiffSBDD

>  <Protein>  (1) 
generic_title2

$$$$
DiffSBDD_3
     RDKit          3D

  0  0  0  0  0  0  0  0  0  0999 V3000
M  V30 BEGIN CTAB
M  V30 COUNTS 27 27 0 0 1
M  V30 BEGIN ATOM
M  V30 1 C 10.653081 8.133354 -9.106986 0
M  V30 2 C 12.002281 8.409740 -8.781772 0
M  V30 3 C 11.284953 8.843459 -6.504636 0
M  V30 4 C 5.565478 6.196340 -11.565743 0
M  V30 5 C 8.006747 5.660736 -12.082317 0
M  V30 6 N 9.997170 8.579821 -6.811187 0
M  V30 7 C 6.813484 5.409323 -11.150006 0
M  V30 8 Cl 11.672617 9.285295 -4.883806 0
M  V30 9 C 12.319083 8.770627 -7.458765 0
M  V30 10 N 8.981864 7.510120 -10.724601 0 CHG=1
M  V30 11 C 8.476140 7.121465 -12.050822 0
M  V30 12 C 10.225436 7.748194 -10.457612 0
M  V30 13 C 9.694113 8.234381 -8.078522 0
M  V30 14 H 12.789268 8.350734 -9.518408 0
M  V30 15 H 4.736598 5.997437 -10.885811 0
M  V30 16 H 5.752335 7.270617 -11.553348 0
M  V30 17 H 5.241875 5.923586 -12.570587 0
M  V30 18 H 7.732508 5.386359 -13.101978 0
M  V30 19 H 8.832183 5.006806 -11.797108 0
M  V30 20 H 6.576091 4.344826 -11.135233 0
M  V30 21 H 7.082225 5.678925 -10.127814 0
M  V30 22 H 13.339343 8.988207 -7.176334 0
M  V30 23 H 7.661635 7.796367 -12.322416 0
M  V30 24 H 9.291622 7.284073 -12.755444 0
M  V30 25 H 10.973633 7.665156 -11.235969 0
M  V30 26 H 8.650531 8.033602 -8.271690 0
M  V30 27 H 8.291459 7.590227 -9.981639 0
M  V30 END ATOM
M  V30 BEGIN BOND
M  V30 1 1 2 1
M  V30 2 2 6 3
M  V30 3 1 7 4
M  V30 4 1 7 5
M  V30 5 1 8 3
M  V30 6 2 9 2
M  V30 7 1 9 3
M  V30 8 1 11 5
M  V30 9 1 11 10
M  V30 10 1 12 1
M  V30 11 2 12 10
M  V30 12 2 13 1
M  V30 13 1 13 6
M  V30 14 1 14 2
M  V30 15 1 15 4
M  V30 16 1 16 4
M  V30 17 1 17 4
M  V30 18 1 18 5
M  V30 19 1 19 5
M  V30 20 1 20 7
M  V30 21 1 21 7
M  V30 22 1 22 9
M  V30 23 1 23 11
M  V30 24 1 24 11
M  V30 25 1 25 12
M  V30 26 1 26 13
M  V30 27 1 27 10
M  V30 END BOND
M  V30 END CTAB
M  END
>  <i_epik_Tot_Q>  (1) 
1

>  <i_epik_Tot_abs_Q>  (1) 
1

>  <i_i_glide_confnum>  (1) 
6

>  <i_i_glide_lignum>  (1) 
25

>  <i_i_glide_posenum>  (1) 
397

>  <i_i_glide_rotatable_bonds>  (1) 
4

>  <i_lp_mmshare_version>  (1) 
72125

>  <i_m_source_file_index>  (1) 
4

>  <i_f3d_flags>  (1) 
0

>  <num_sample>  (1) 
50

>  <b_lp_Chiralities_Consistent>  (1) 
1

>  <r_epik_Charging_Adjusted_Penalty>  (1) 
0.029699158874294952

>  <r_epik_Ionization_Penalty>  (1) 
0.014849585528506534

>  <r_epik_Ionization_Penalty_Charging>  (1) 
0.014849579437147471

>  <r_epik_Ionization_Penalty_Neutral>  (1) 
6.091359062829099e-09

>  <r_epik_State_Penalty>  (1) 
0.01484957943714748

>  <r_glide_ring_energy>  (1) 
0

>  <r_i_docking_score>  (1) 
-6.0232834181360868

>  <r_i_glide_ecoul>  (1) 
-11.931915750827944

>  <r_i_glide_eff_state_penalty>  (1) 
0.01484957943714748

>  <r_i_glide_einternal>  (1) 
2.7875391326997061

>  <r_i_glide_emodel>  (1) 
-47.557647001090842

>  <r_i_glide_emodel_strain>  (1) 
0

>  <r_i_glide_energy>  (1) 
-31.935949914956087

>  <r_i_glide_erotb>  (1) 
0.83262420793162661

>  <r_i_glide_esite>  (1) 
-0.15191547732752328

>  <r_i_glide_evdw>  (1) 
-20.004034164128143

>  <r_i_glide_gscore>  (1) 
-6.0381329975732339

>  <r_i_glide_gscore_strain>  (1) 
0

>  <r_i_glide_hbond>  (1) 
-0.18087226759458735

>  <r_i_glide_ligand_efficiency>  (1) 
-0.46332949370277593

>  <r_i_glide_ligand_efficiency_ln>  (1) 
-1.6895845674579331

>  <r_i_glide_ligand_efficiency_sa>  (1) 
-1.0894427103874333

>  <r_i_glide_lipo>  (1) 
-1.1367722988430604

>  <r_i_glide_metal>  (1) 
-0

>  <r_i_glide_rewards>  (1) 
-2.6112080909090905

>  <r_lp_Energy>  (1) 
19.410530999999999

>  <s_epik_Chemistry_Notes>  (1) 
This compound has an imine and may undergo hydrolysis.

>  <s_epik_cmdline>  (1) 
J2VwaWtfcHl0aG9uJywgJy1waHQnLCAnMS4wJywgJy1waCcsICc3LjQnLCAnLXRuJywgJzgnLCAnLW1hJywgJzUwMCcsICctaW1hZScsICc8aW5maWxlLm1hZT4nLCAnLW9tYWUnLCAnPG91dGZpbGUubWFlPic=

>  <s_epik_input>  (1) 
W2NIXTFuYyhDbClbY0hdW2NIXWMxXFtDSF09TlxbQ0gyXVtDSDJdW0NIMl1bQ0gzXQ==

>  <s_glide_docking_method>  (1) 
confgen

>  <s_i_glide_gridfile>  (1) 
gpcr_drd2_6luq_protein_autoprepared_prepared

>  <s_lp_Force_Field>  (1) 
S-OPLS

>  <s_lp_Variant>  (1) 
DiffSBDD_3-1

>  <s_m_source_file>  (1) 
generated_generic_title2_ligand_DiffSBDD_2026-06-23_prepared.sdf

>  <GenAI_Model>  (1) 
DiffSBDD

>  <Protein>  (1) 
generic_title2

$$$$
DiffSBDD_2
     RDKit          3D

  0  0  0  0  0  0  0  0  0  0999 V3000
M  V30 BEGIN CTAB
M  V30 COUNTS 61 63 0 0 1
M  V30 BEGIN ATOM
M  V30 1 C 7.719111 4.058478 -13.559372 0 CFG=1
M  V30 2 C 9.515120 4.798723 -8.938966 0
M  V30 3 C 6.605442 3.017409 -13.315700 0
M  V30 4 C 13.565870 8.390271 -9.549344 0
M  V30 5 N 11.775386 7.934098 -4.543032 0
M  V30 6 C 10.273942 5.778006 -8.054532 0 CFG=2
M  V30 7 C 6.725509 6.001014 -12.365312 0
M  V30 8 C 9.473790 6.745787 -7.237882 0 CFG=2
M  V30 9 C 12.713029 7.402996 -2.377617 0
M  V30 10 C 11.018161 7.980456 -5.584894 0
M  V30 11 C 11.775452 7.019792 -3.509540 0
M  V30 12 C 11.578603 8.085831 -7.985872 0 CFG=1
M  V30 13 C 8.978877 5.417952 -10.241195 0
M  V30 14 C 8.243365 4.426469 -11.149309 0
M  V30 15 C 10.337958 7.278830 -8.346037 0 CFG=1
M  V30 16 C 12.367713 9.990299 -6.318027 0
M  V30 17 C 6.542666 6.759788 -13.690922 0
M  V30 18 C 6.383626 5.796162 -14.872367 0
M  V30 19 O 11.125627 5.990231 -3.440858 0
M  V30 20 C 12.120619 8.799302 -9.243739 0
M  V30 21 C 11.296736 8.948735 -6.718463 0 CFG=2
M  V30 22 C 7.548277 4.794017 -14.905595 0
M  V30 23 N 7.865369 5.043965 -12.447973 0 CFG=1 CHG=1
M  V30 24 C 9.775452 7.116051 -5.802409 0
M  V30 25 H 8.658713 3.507870 -13.619994 0
M  V30 26 H 10.175401 3.963419 -9.166920 0
M  V30 27 H 8.688506 4.390228 -8.357360 0
M  V30 28 H 6.561745 2.306714 -14.141769 0
M  V30 29 H 6.781380 2.437031 -12.410609 0
M  V30 30 H 5.618797 3.472279 -13.229706 0
M  V30 31 H 13.886755 8.790150 -10.511667 0
M  V30 32 H 14.237585 8.779762 -8.785369 0
M  V30 33 H 13.676840 7.310952 -9.585011 0
M  V30 34 H 11.112810 5.332109 -7.526417 0
M  V30 35 H 5.809175 5.475628 -12.094769 0
M  V30 36 H 6.896863 6.739465 -11.584597 0
M  V30 37 H 8.407257 6.702914 -7.435770 0
M  V30 38 H 12.358754 8.301118 -1.870049 0
M  V30 39 H 13.705200 7.591354 -2.785028 0
M  V30 40 H 12.786829 6.595542 -1.648088 0
M  V30 41 H 12.336720 7.357940 -7.690119 0
M  V30 42 H 8.301363 6.225586 -9.983655 0
M  V30 43 H 9.803170 5.866825 -10.794205 0
M  V30 44 H 8.910825 3.583586 -11.333100 0
M  V30 45 H 7.358735 4.032200 -10.647991 0
M  V30 46 H 9.742917 7.710714 -9.147445 0
M  V30 47 H 12.328008 10.249473 -5.260037 0
M  V30 48 H 13.380594 9.645746 -6.534262 0
M  V30 49 H 12.175401 10.949801 -6.785025 0
M  V30 50 H 5.671723 7.413577 -13.626149 0
M  V30 51 H 7.401898 7.410709 -13.861253 0
M  V30 52 H 5.433865 5.266725 -14.789055 0
M  V30 53 H 6.343999 6.355531 -15.808276 0
M  V30 54 H 11.529916 8.527866 -10.119330 0
M  V30 55 H 12.021702 9.881176 -9.171807 0
M  V30 56 H 10.370594 9.503267 -6.856254 0
M  V30 57 H 7.397717 4.075112 -15.711940 0
M  V30 58 H 8.470034 5.326140 -15.146384 0
M  V30 59 H 9.669719 6.233950 -5.185171 0
M  V30 60 H 8.975199 7.803473 -5.585017 0
M  V30 61 H 8.664297 5.604566 -12.708624 0
M  V30 END ATOM
M  V30 BEGIN BOND
M  V30 1 1 3 1
M  V30 2 1 6 2
M  V30 3 1 8 6
M  V30 4 2 10 5
M  V30 5 1 11 5
M  V30 6 1 11 9
M  V30 7 1 13 2
M  V30 8 1 14 13
M  V30 9 1 15 6
M  V30 10 1 15 8
M  V30 11 1 15 12
M  V30 12 1 17 7
M  V30 13 1 18 17
M  V30 14 2 19 11
M  V30 15 1 20 4
M  V30 16 1 20 12
M  V30 17 1 21 10
M  V30 18 1 21 12
M  V30 19 1 21 16
M  V30 20 1 22 1
M  V30 21 1 22 18
M  V30 22 1 23 1
M  V30 23 1 23 7
M  V30 24 1 23 14
M  V30 25 1 24 8
M  V30 26 1 24 10
M  V30 27 1 1 25 CFG=3
M  V30 28 1 26 2
M  V30 29 1 27 2
M  V30 30 1 28 3
M  V30 31 1 29 3
M  V30 32 1 30 3
M  V30 33 1 31 4
M  V30 34 1 32 4
M  V30 35 1 33 4
M  V30 36 1 6 34 CFG=1
M  V30 37 1 35 7
M  V30 38 1 36 7
M  V30 39 1 8 37 CFG=3
M  V30 40 1 38 9
M  V30 41 1 39 9
M  V30 42 1 40 9
M  V30 43 1 12 41 CFG=1
M  V30 44 1 42 13
M  V30 45 1 43 13
M  V30 46 1 44 14
M  V30 47 1 45 14
M  V30 48 1 15 46 CFG=3
M  V30 49 1 47 16
M  V30 50 1 48 16
M  V30 51 1 49 16
M  V30 52 1 50 17
M  V30 53 1 51 17
M  V30 54 1 52 18
M  V30 55 1 53 18
M  V30 56 1 54 20
M  V30 57 1 55 20
M  V30 58 1 21 56 CFG=3
M  V30 59 1 57 22
M  V30 60 1 58 22
M  V30 61 1 59 24
M  V30 62 1 60 24
M  V30 63 1 23 61 CFG=3
M  V30 END BOND
M  V30 END CTAB
M  END
>  <i_epik_Tot_Q>  (1) 
1

>  <i_epik_Tot_abs_Q>  (1) 
1

>  <i_i_glide_confnum>  (1) 
95

>  <i_i_glide_lignum>  (1) 
21

>  <i_i_glide_posenum>  (1) 
157

>  <i_i_glide_rotatable_bonds>  (1) 
6

>  <i_lp_mmshare_version>  (1) 
72125

>  <i_m_source_file_index>  (1) 
3

>  <i_f3d_flags>  (1) 
0

>  <num_sample>  (1) 
50

>  <b_lp_Chiralities_Consistent>  (1) 
1

>  <r_epik_Charging_Adjusted_Penalty>  (1) 
0.0011657924221308697

>  <r_epik_Ionization_Penalty>  (1) 
0.0011657924221308697

>  <r_epik_Ionization_Penalty_Charging>  (1) 
0.0011657924221308697

>  <r_epik_Ionization_Penalty_Neutral>  (1) 
0

>  <r_epik_State_Penalty>  (1) 
-0

>  <r_glide_ring_energy>  (1) 
0

>  <r_i_docking_score>  (1) 
-6.0230894845797849

>  <r_i_glide_ecoul>  (1) 
-2.885826216742359

>  <r_i_glide_eff_state_penalty>  (1) 
-0

>  <r_i_glide_einternal>  (1) 
6.5722859133314167

>  <r_i_glide_emodel>  (1) 
-34.998015902044337

>  <r_i_glide_emodel_strain>  (1) 
2.9718575929481261

>  <r_i_glide_energy>  (1) 
-28.291390607191168

>  <r_i_glide_erotb>  (1) 
0.84713914833173298

>  <r_i_glide_esite>  (1) 
0

>  <r_i_glide_evdw>  (1) 
-25.405564390448809

>  <r_i_glide_gscore>  (1) 
-6.0230894845797849

>  <r_i_glide_gscore_strain>  (1) 
0

>  <r_i_glide_hbond>  (1) 
0

>  <r_i_glide_ligand_efficiency>  (1) 
-0.25096206185749104

>  <r_i_glide_ligand_efficiency_ln>  (1) 
-1.441601695227126

>  <r_i_glide_ligand_efficiency_sa>  (1) 
-0.72389985175485538

>  <r_i_glide_lipo>  (1) 
-2.3917111799026376

>  <r_i_glide_metal>  (1) 
-0

>  <r_i_glide_rewards>  (1) 
-2.7753653009750856

>  <r_lp_Energy>  (1) 
45.776719999999997

>  <r_lp_tautomer_probability>  (1) 
1

>  <s_epik_Chemistry_Notes>  (1) 
This compound has an imine and may undergo hydrolysis.

>  <s_epik_cmdline>  (1) 
J2VwaWtfcHl0aG9uJywgJy1waHQnLCAnMS4wJywgJy1waCcsICc3LjQnLCAnLXRuJywgJzgnLCAnLW1hJywgJzUwMCcsICctaW1hZScsICc8aW5maWxlLm1hZT4nLCAnLW9tYWUnLCAnPG91dGZpbGUubWFlPic=

>  <s_epik_input>  (1) 
W0NIM11bQ0BIXTFbQ0gyXVtDSDJdW0NIMl1bQ0gyXU4xW0NIMl1bQ0gyXVtDSDJdW0NASF0yW0NAQEhdKFtDQEBIXTIzKVtDQEBIXShbQ0gyXVtDSDNdKVtDQEhdKFtDSDNdKVxDKFtDSDJdMyk9TlxDKD1PKVtDSDNd

>  <s_glide_docking_method>  (1) 
confgen

>  <s_i_glide_gridfile>  (1) 
gpcr_drd2_6luq_protein_autoprepared_prepared

>  <s_lp_Force_Field>  (1) 
S-OPLS

>  <s_lp_Variant>  (1) 
DiffSBDD_2-1

>  <s_m_source_file>  (1) 
generated_generic_title2_ligand_DiffSBDD_2026-06-23_prepared.sdf

>  <GenAI_Model>  (1) 
DiffSBDD

>  <Protein>  (1) 
generic_title2

$$$$
DiffSBDD_8
     RDKit          3D

  0  0  0  0  0  0  0  0  0  0999 V3000
M  V30 BEGIN CTAB
M  V30 COUNTS 70 73 0 0 1
M  V30 BEGIN ATOM
M  V30 1 N 7.262788 2.994620 -14.965966 0
M  V30 2 C 9.450630 3.810974 -17.943118 0
M  V30 3 C 7.289964 6.530023 -12.389359 0 CFG=1
M  V30 4 N 7.834621 3.072126 -19.451228 0
M  V30 5 O 8.553376 3.437431 -12.386208 0
M  V30 6 C 9.185660 5.668579 -8.473687 0
M  V30 7 F 7.645306 1.091354 -18.352632 0
M  V30 8 C 9.773916 6.943531 -7.844489 0
M  V30 9 N 8.575640 5.990241 -9.781876 0 CHG=1
M  V30 10 C 8.095755 4.852766 -10.594212 0 CFG=1
M  V30 11 C 7.519183 2.407955 -18.188616 0 CFG=1
M  V30 12 C 12.884911 8.470568 -2.717759 0
M  V30 13 C 7.080322 5.197717 -11.683037 0 CFG=2
M  V30 14 O 10.062280 5.120216 -11.985171 0
M  V30 15 O 6.581007 3.534324 -19.991976 0
M  V30 16 C 10.380339 6.744179 -6.440876 0
M  V30 17 C 6.279354 2.927712 -12.577939 0
M  V30 18 C 7.359128 1.523162 -14.917227 0
M  V30 19 C 6.545907 3.632823 -13.890901 0 CFG=1
M  V30 20 C 8.509946 2.926354 -17.121167 0 CFG=2
M  V30 21 C 7.775642 3.708623 -16.000183 0
M  V30 22 C 6.281090 7.081048 -13.359702 0
M  V30 23 C 9.201501 4.164101 -11.403913 0 CFG=2
M  V30 24 C 7.290427 4.032000 -12.629421 0 CFG=2
M  V30 25 O 12.027424 8.388096 -1.601738 0
M  V30 26 O 7.674962 4.935847 -16.067542 0
M  V30 27 C 12.125135 8.942972 -3.965033 0
M  V30 28 C 6.223936 2.646284 -21.040794 0
M  V30 29 C 8.582602 4.270326 -19.109952 0
M  V30 30 O 11.534018 7.838756 -4.641647 0
M  V30 31 C 10.975363 8.028820 -5.847753 0
M  V30 32 N 6.348613 7.554525 -11.985088 0 CHG=1
M  V30 33 O 10.926412 9.106741 -6.440680 0
M  V30 34 H 9.873721 4.649458 -17.388793 0
M  V30 35 H 10.286562 3.215385 -18.311467 0
M  V30 36 H 8.298449 6.932605 -12.447202 0
M  V30 37 H 9.965662 4.917785 -8.598957 0
M  V30 38 H 8.423650 5.241219 -7.820746 0
M  V30 39 H 8.989856 7.700306 -7.785236 0
M  V30 40 H 10.537743 7.346380 -8.512093 0
M  V30 41 H 7.807805 6.646741 -9.584898 0
M  V30 42 H 7.634005 4.112211 -9.941454 0
M  V30 43 H 6.482080 2.589642 -17.899278 0
M  V30 44 H 13.659876 9.190100 -2.457509 0
M  V30 45 H 13.375570 7.514433 -2.895562 0
M  V30 46 H 6.069195 5.169685 -11.272825 0
M  V30 47 H 10.682826 4.655351 -12.539992 0
M  V30 48 H 11.163883 5.987969 -6.476039 0
M  V30 49 H 9.613598 6.377137 -5.756834 0
M  V30 50 H 6.654734 1.925216 -12.385398 0
M  V30 51 H 5.375508 3.190337 -12.054624 0
M  V30 52 H 6.536603 1.071603 -14.365284 0
M  V30 53 H 7.296865 1.040141 -15.889576 0
M  V30 54 H 8.292787 1.218616 -14.441827 0
M  V30 55 H 5.753562 4.306066 -14.209727 0
M  V30 56 H 9.109583 2.122135 -16.693648 0
M  V30 57 H 6.599578 7.831539 -14.080106 0
M  V30 58 H 5.337542 6.571182 -13.531037 0
M  V30 59 H 9.775395 3.486841 -10.781129 0
M  V30 60 H 11.752954 9.258694 -1.351706 0
M  V30 61 H 11.375479 9.693407 -3.709465 0
M  V30 62 H 12.836798 9.417114 -4.642326 0
M  V30 63 H 5.299329 2.984609 -21.509437 0
M  V30 64 H 6.993256 2.608938 -21.813854 0
M  V30 65 H 6.052890 1.635378 -20.666782 0
M  V30 66 H 7.908156 5.065689 -18.789712 0
M  V30 67 H 9.170015 4.625124 -19.956555 0
M  V30 68 H 5.677616 7.210388 -11.312664 0
M  V30 69 H 9.261233 6.476866 -10.340700 0
M  V30 70 H 6.814656 8.429074 -11.785271 0
M  V30 END ATOM
M  V30 BEGIN BOND
M  V30 1 1 8 6
M  V30 2 1 9 6
M  V30 3 1 10 9
M  V30 4 1 11 4
M  V30 5 1 11 7
M  V30 6 1 13 3
M  V30 7 1 13 10
M  V30 8 1 15 4
M  V30 9 1 16 8
M  V30 10 1 18 1
M  V30 11 1 19 1
M  V30 12 1 19 17
M  V30 13 1 20 2
M  V30 14 1 20 11
M  V30 15 1 21 1
M  V30 16 1 21 20
M  V30 17 1 22 3
M  V30 18 1 23 5
M  V30 19 1 23 10
M  V30 20 1 23 14
M  V30 21 1 24 5 CFG=3
M  V30 22 1 24 13
M  V30 23 1 24 17
M  V30 24 1 24 19
M  V30 25 1 25 12
M  V30 26 2 26 21
M  V30 27 1 27 12
M  V30 28 1 28 15
M  V30 29 1 29 2
M  V30 30 1 29 4
M  V30 31 1 30 27
M  V30 32 1 31 16
M  V30 33 1 31 30
M  V30 34 1 32 3
M  V30 35 1 32 22
M  V30 36 2 33 31
M  V30 37 1 34 2
M  V30 38 1 35 2
M  V30 39 1 3 36 CFG=3
M  V30 40 1 37 6
M  V30 41 1 38 6
M  V30 42 1 39 8
M  V30 43 1 40 8
M  V30 44 1 41 9
M  V30 45 1 10 42 CFG=1
M  V30 46 1 11 43 CFG=1
M  V30 47 1 44 12
M  V30 48 1 45 12
M  V30 49 1 13 46 CFG=1
M  V30 50 1 47 14
M  V30 51 1 48 16
M  V30 52 1 49 16
M  V30 53 1 50 17
M  V30 54 1 51 17
M  V30 55 1 52 18
M  V30 56 1 53 18
M  V30 57 1 54 18
M  V30 58 1 19 55 CFG=3
M  V30 59 1 20 56 CFG=1
M  V30 60 1 57 22
M  V30 61 1 58 22
M  V30 62 1 23 59 CFG=1
M  V30 63 1 60 25
M  V30 64 1 61 27
M  V30 65 1 62 27
M  V30 66 1 63 28
M  V30 67 1 64 28
M  V30 68 1 65 28
M  V30 69 1 66 29
M  V30 70 1 67 29
M  V30 71 1 68 32
M  V30 72 1 69 9
M  V30 73 1 70 32
M  V30 END BOND
M  V30 END CTAB
M  END
>  <i_epik_Tot_Q>  (1) 
2

>  <i_epik_Tot_abs_Q>  (1) 
2

>  <i_i_glide_confnum>  (1) 
4317

>  <i_i_glide_lignum>  (1) 
41

>  <i_i_glide_posenum>  (1) 
16

>  <i_i_glide_rotatable_bonds>  (1) 
15

>  <i_lp_mmshare_version>  (1) 
72125

>  <i_m_source_file_index>  (1) 
9

>  <i_f3d_flags>  (1) 
0

>  <num_sample>  (1) 
50

>  <b_lp_Chiralities_Consistent>  (1) 
1

>  <r_epik_Charging_Adjusted_Penalty>  (1) 
2.8797985042560583

>  <r_epik_Ionization_Penalty>  (1) 
1.6442763990741283

>  <r_epik_Ionization_Penalty_Charging>  (1) 
1.6439676131770962

>  <r_epik_Ionization_Penalty_Neutral>  (1) 
0.00030878589703216643

>  <r_epik_State_Penalty>  (1) 
1.2358308910789622

>  <r_glide_ring_energy>  (1) 
0

>  <r_i_docking_score>  (1) 
-6.0146573762076621

>  <r_i_glide_ecoul>  (1) 
-15.463554260298194

>  <r_i_glide_eff_state_penalty>  (1) 
1.2358308910789622

>  <r_i_glide_einternal>  (1) 
9.3801791398602461

>  <r_i_glide_emodel>  (1) 
-76.744601244246866

>  <r_i_glide_emodel_strain>  (1) 
0.15690935853400845

>  <r_i_glide_energy>  (1) 
-49.42195636404994

>  <r_i_glide_erotb>  (1) 
1.0700444368793263

>  <r_i_glide_esite>  (1) 
-0.1916668947509256

>  <r_i_glide_evdw>  (1) 
-33.958402103751745

>  <r_i_glide_gscore>  (1) 
-7.2504882672866247

>  <r_i_glide_gscore_strain>  (1) 
0

>  <r_i_glide_hbond>  (1) 
-0.5009778359554613

>  <r_i_glide_ligand_efficiency>  (1) 
-0.18226234473356551

>  <r_i_glide_ligand_efficiency_ln>  (1) 
-1.3376286582393864

>  <r_i_glide_ligand_efficiency_sa>  (1) 
-0.58461272779844542

>  <r_i_glide_lipo>  (1) 
-1.7251061277381232

>  <r_i_glide_metal>  (1) 
-0

>  <r_i_glide_rewards>  (1) 
-1.8853286014891251

>  <r_lp_Energy>  (1) 
49.368469999999995

>  <s_epik_Chemistry_Notes>  (1) 
This compound has an ester and may undergo hydrolysis at high or low pH. This compound contains an acetal/aminal-like group ( X-CH(R)-Y where X, Y are N, S, or O) that may be acid/base labile, releasing an aldehyde. This compound has a N-S or N-O group and may undergo hydrolysis at high or low pH.

>  <s_epik_cmdline>  (1) 
J2VwaWtfcHl0aG9uJywgJy1waHQnLCAnMS4wJywgJy1waCcsICc3LjQnLCAnLXRuJywgJzgnLCAnLW1hJywgJzUwMCcsICctaW1hZScsICc8aW5maWxlLm1hZT4nLCAnLW9tYWUnLCAnPG91dGZpbGUubWFlPic=

>  <s_epik_input>  (1) 
W0NIM11PTjFbQ0BIXShGKVtDQEBIXShbQ0gyXVtDSDJdMSlDKD1PKU4oW0NIM10pW0NASF0yW0NIMl1DMjNPW0NAQEhdKFtPSF0pW0NASF0oW0NASF0zW0NASF00W0NIMl1bTkhdNClbTkhdW0NIMl1bQ0gyXVtDSDJdQyg9TylPW0NIMl1bQ0gyXVtPSF0=

>  <s_glide_docking_method>  (1) 
confgen

>  <s_i_glide_gridfile>  (1) 
gpcr_drd2_6luq_protein_autoprepared_prepared

>  <s_lp_Force_Field>  (1) 
S-OPLS

>  <s_lp_Variant>  (1) 
DiffSBDD_8-10

>  <s_m_source_file>  (1) 
generated_generic_title2_ligand_DiffSBDD_2026-06-23_prepared.sdf

>  <GenAI_Model>  (1) 
DiffSBDD

>  <Protein>  (1) 
generic_title2

$$$$
DiffSBDD_15
     RDKit          3D

  0  0  0  0  0  0  0  0  0  0999 V3000
M  V30 BEGIN CTAB
M  V30 COUNTS 46 47 0 0 1
M  V30 BEGIN ATOM
M  V30 1 C 10.987993 6.390228 -3.641570 0
M  V30 2 C 9.377375 6.201995 -8.800883 0
M  V30 3 Cl 11.237863 7.590231 -10.218249 0
M  V30 4 C 11.330499 6.390224 -2.345834 0
M  V30 5 C 13.230799 7.941198 -2.809200 0
M  V30 6 C 10.599903 7.850248 -5.720059 0 CFG=2
M  V30 7 N 7.733486 6.189907 -11.586146 0 CFG=2 CHG=1
M  V30 8 C 11.581806 7.333217 -4.659557 0 CFG=1
M  V30 9 O 6.200497 4.172312 -12.449224 0
M  V30 10 C 9.551317 7.010377 -10.086087 0 CFG=1
M  V30 11 P 6.838081 4.790312 -11.032290 0
M  V30 12 C 8.010046 6.283184 -13.024566 0
M  V30 13 C 9.381084 6.821233 -12.664549 0
M  V30 14 N 9.375410 7.153263 -7.717503 0
M  V30 15 O 11.375552 10.079825 -6.221919 0
M  V30 16 O 5.394933 5.588522 -10.785025 0
M  V30 17 C 10.072169 6.664853 -6.553510 0
M  V30 18 C 12.353575 7.310430 -1.753889 0
M  V30 19 C 11.275413 8.915941 -6.606271 0
M  V30 20 C 9.178692 6.187834 -11.306393 0 CFG=2
M  V30 21 C 12.403649 8.458835 -3.966661 0
M  V30 22 H 10.247425 5.695497 -3.996375 0
M  V30 23 H 8.427255 5.669046 -8.776979 0
M  V30 24 H 10.173224 5.458975 -8.725634 0
M  V30 25 H 10.860357 5.694671 -1.668593 0
M  V30 26 H 13.775400 8.764369 -2.351817 0
M  V30 27 H 13.928765 7.190229 -3.185027 0
M  V30 28 H 9.775375 8.344757 -5.223104 0
M  V30 29 H 12.175421 6.621703 -5.201361 0
M  V30 30 H 5.596750 3.482645 -12.222026 0
M  V30 31 H 8.975416 7.931060 -10.056638 0
M  V30 32 H 8.091196 5.329539 -13.548354 0
M  V30 33 H 7.365749 6.986624 -13.551277 0
M  V30 34 H 10.230685 6.388342 -13.190521 0
M  V30 35 H 9.425322 7.911701 -12.628721 0
M  V30 36 H 8.420350 7.440776 -7.510053 0
M  V30 37 H 5.183519 5.514416 -9.861207 0
M  V30 38 H 9.395066 6.030766 -5.981349 0
M  V30 39 H 10.914792 6.045081 -6.860893 0
M  V30 40 H 11.842672 8.084769 -1.185024 0
M  V30 41 H 12.976267 6.709390 -1.104190 0
M  V30 42 H 11.646681 8.565998 -7.569064 0
M  V30 43 H 9.590317 5.174795 -11.300756 0
M  V30 44 H 13.081578 8.962530 -4.653159 0
M  V30 45 H 11.727489 9.227893 -3.591696 0
M  V30 46 H 7.318660 7.043306 -11.225174 0
M  V30 END ATOM
M  V30 BEGIN BOND
M  V30 1 2 4 1
M  V30 2 1 8 1
M  V30 3 1 8 6
M  V30 4 1 10 2
M  V30 5 1 10 3
M  V30 6 1 11 7
M  V30 7 1 11 9
M  V30 8 1 12 7
M  V30 9 1 13 12
M  V30 10 1 14 2
M  V30 11 1 16 11
M  V30 12 1 17 6
M  V30 13 1 17 14
M  V30 14 1 18 4
M  V30 15 1 18 5
M  V30 16 1 19 6
M  V30 17 2 19 15
M  V30 18 1 20 7
M  V30 19 1 20 10
M  V30 20 1 20 13
M  V30 21 1 21 5
M  V30 22 1 21 8
M  V30 23 1 22 1
M  V30 24 1 23 2
M  V30 25 1 24 2
M  V30 26 1 25 4
M  V30 27 1 26 5
M  V30 28 1 27 5
M  V30 29 1 6 28 CFG=1
M  V30 30 1 8 29 CFG=3
M  V30 31 1 30 9
M  V30 32 1 10 31 CFG=1
M  V30 33 1 32 12
M  V30 34 1 33 12
M  V30 35 1 34 13
M  V30 36 1 35 13
M  V30 37 1 36 14
M  V30 38 1 37 16
M  V30 39 1 38 17
M  V30 40 1 39 17
M  V30 41 1 40 18
M  V30 42 1 41 18
M  V30 43 1 42 19
M  V30 44 1 20 43 CFG=3
M  V30 45 1 44 21
M  V30 46 1 45 21
M  V30 47 1 7 46 CFG=1
M  V30 END BOND
M  V30 END CTAB
M  END
>  <i_epik_Tot_Q>  (1) 
1

>  <i_epik_Tot_abs_Q>  (1) 
1

>  <i_i_glide_confnum>  (1) 
222

>  <i_i_glide_lignum>  (1) 
56

>  <i_i_glide_posenum>  (1) 
57

>  <i_i_glide_rotatable_bonds>  (1) 
10

>  <i_lp_mmshare_version>  (1) 
72125

>  <i_m_source_file_index>  (1) 
16

>  <i_f3d_flags>  (1) 
0

>  <num_sample>  (1) 
50

>  <b_lp_Chiralities_Consistent>  (1) 
1

>  <r_epik_Charging_Adjusted_Penalty>  (1) 
0.56727467886288852

>  <r_epik_Ionization_Penalty>  (1) 
0.44114962020939286

>  <r_epik_Ionization_Penalty_Charging>  (1) 
0.027117031585188044

>  <r_epik_Ionization_Penalty_Neutral>  (1) 
0.41403258862420483

>  <r_epik_State_Penalty>  (1) 
0.54015764727770044

>  <r_glide_ring_energy>  (1) 
0

>  <r_i_docking_score>  (1) 
-6.0098708789079209

>  <r_i_glide_ecoul>  (1) 
-11.023974419764627

>  <r_i_glide_eff_state_penalty>  (1) 
0.54015764727770044

>  <r_i_glide_einternal>  (1) 
7.7450547744844727

>  <r_i_glide_emodel>  (1) 
-43.860764596787263

>  <r_i_glide_emodel_strain>  (1) 
2.1738733450345364

>  <r_i_glide_energy>  (1) 
-33.435302277854618

>  <r_i_glide_erotb>  (1) 
1.004531890689508

>  <r_i_glide_esite>  (1) 
-0.12937419122171093

>  <r_i_glide_evdw>  (1) 
-22.41132785808999

>  <r_i_glide_gscore>  (1) 
-6.5500285261856215

>  <r_i_glide_gscore_strain>  (1) 
0

>  <r_i_glide_hbond>  (1) 
-0.56129314997189983

>  <r_i_glide_ligand_efficiency>  (1) 
-0.28618432756704387

>  <r_i_glide_ligand_efficiency_ln>  (1) 
-1.485928430722405

>  <r_i_glide_ligand_efficiency_sa>  (1) 
-0.7895608602260914

>  <r_i_glide_lipo>  (1) 
-1.8833862936471748

>  <r_i_glide_metal>  (1) 
-0

>  <r_i_glide_rewards>  (1) 
-2.2063442261651502

>  <r_lp_Energy>  (1) 
5.779852

>  <r_lp_tautomer_probability>  (1) 
0.99990000499974985

>  <s_epik_cmdline>  (1) 
J2VwaWtfcHl0aG9uJywgJy1waHQnLCAnMS4wJywgJy1waCcsICc3LjQnLCAnLXRuJywgJzgnLCAnLW1hJywgJzUwMCcsICctaW1hZScsICc8aW5maWxlLm1hZT4nLCAnLW9tYWUnLCAnPG91dGZpbGUubWFlPic=

>  <s_epik_input>  (1) 
W0NIMl0xW0NIMl1bQ0gyXVtDSF09W0NIXVtDQEhdMVtDQEBIXShbQ0hdPU8pW0NIMl1bTkhdW0NIMl1bQ0BASF0oQ2wpW0NAQEhdMltDSDJdW0NIMl1OMlAoW09IXSlbT0hd

>  <s_glide_docking_method>  (1) 
confgen

>  <s_i_glide_gridfile>  (1) 
gpcr_drd2_6luq_protein_autoprepared_prepared

>  <s_lp_Force_Field>  (1) 
S-OPLS

>  <s_lp_Variant>  (1) 
DiffSBDD_15-3

>  <s_m_source_file>  (1) 
generated_generic_title2_ligand_DiffSBDD_2026-06-23_prepared.sdf

>  <GenAI_Model>  (1) 
DiffSBDD

>  <Protein>  (1) 
generic_title2

$$$$
DiffSBDD_39
     RDKit          3D

  0  0  0  0  0  0  0  0  0  0999 V3000
M  V30 BEGIN CTAB
M  V30 COUNTS 68 71 0 0 1
M  V30 BEGIN ATOM
M  V30 1 C 7.745356 4.610669 -11.844473 0
M  V30 2 F 6.087993 1.715348 -18.340712 0
M  V30 3 F 7.903280 2.735517 -18.930248 0
M  V30 4 C 12.473265 9.545221 -6.193794 0
M  V30 5 C 9.001454 5.836932 -10.014626 0
M  V30 6 C 9.907017 8.108213 -10.452642 0 CFG=1
M  V30 7 O 12.975706 9.590142 -4.873701 0
M  V30 8 C 7.129848 1.797959 -15.399215 0 CFG=2
M  V30 9 C 7.489854 7.096675 -13.367649 0
M  V30 10 C 10.191632 7.056748 -8.180929 0 CFG=2
M  V30 11 O 7.558399 -0.409666 -14.516060 0
M  V30 12 C 7.246566 5.731113 -14.011861 0
M  V30 13 N 6.811772 4.742983 -12.990035 0 CFG=1 CHG=1
M  V30 14 C 8.121640 0.641375 -17.893264 0
M  V30 15 C 8.043195 5.974105 -11.212906 0 CFG=1
M  V30 16 C 6.377679 3.452633 -13.572143 0
M  V30 17 O 7.633160 -0.107503 -16.784847 0
M  V30 18 C 8.938768 8.279485 -11.636746 0
M  V30 19 N 9.375476 7.158389 -9.432971 0 CFG=2 CHG=1
M  V30 20 C 11.693188 8.252168 -6.509630 0 CFG=1
M  V30 21 C 10.835095 7.742612 -5.354994 0
M  V30 22 C 7.509362 2.531056 -14.080296 0
M  V30 23 C 8.566347 6.945864 -12.282527 0 CFG=2
M  V30 24 C 7.912529 0.475868 -15.551018 0 CFG=1
M  V30 25 C 7.375471 2.670806 -16.641427 0
M  V30 26 C 10.232702 6.390550 -5.720470 0
M  V30 27 C 7.349939 1.963976 -17.993066 0
M  V30 28 O 7.576303 3.883531 -16.552002 0
M  V30 29 C 9.376336 6.495692 -6.989505 0
M  V30 30 O 11.039078 7.590518 -10.871493 0 CHG=-1
M  V30 31 C 10.830130 8.407413 -7.755491 0
M  V30 32 H 8.672068 4.124030 -12.151868 0
M  V30 33 H 7.278753 3.989280 -11.083168 0
M  V30 34 H 11.855453 10.429735 -6.358070 0
M  V30 35 H 13.325348 9.590089 -6.869377 0
M  V30 36 H 9.891971 5.287643 -10.309454 0
M  V30 37 H 8.502566 5.225258 -9.266225 0
M  V30 38 H 9.861285 9.089876 -9.985168 0
M  V30 39 H 13.605371 8.894508 -4.764454 0
M  V30 40 H 6.078760 1.523533 -15.378896 0
M  V30 41 H 7.776450 7.823619 -14.125937 0
M  V30 42 H 6.563775 7.474251 -12.930325 0
M  V30 43 H 11.005766 6.363128 -8.397325 0
M  V30 44 H 7.775382 -1.302578 -14.785406 0
M  V30 45 H 8.157183 5.391719 -14.505724 0
M  V30 46 H 6.481416 5.831721 -14.782469 0
M  V30 47 H 7.985043 0.055820 -18.803020 0
M  V30 48 H 9.194938 0.816758 -17.790393 0
M  V30 49 H 7.098662 6.365950 -10.841357 0
M  V30 50 H 5.774865 2.912898 -12.841819 0
M  V30 51 H 5.711947 3.709143 -14.383689 0
M  V30 52 H 9.375156 8.939678 -12.384879 0
M  V30 53 H 8.034262 8.777826 -11.283896 0
M  V30 54 H 12.374720 7.456567 -6.785025 0
M  V30 55 H 11.407041 7.643870 -4.432940 0
M  V30 56 H 10.051947 8.470670 -5.184919 0
M  V30 57 H 8.430347 3.092362 -14.234406 0
M  V30 58 H 7.750668 1.822726 -13.287110 0
M  V30 59 H 9.467934 6.530040 -12.737907 0
M  V30 60 H 8.974963 0.669094 -15.471408 0
M  V30 61 H 11.042102 5.676485 -5.881682 0
M  V30 62 H 9.646538 6.000352 -4.889461 0
M  V30 63 H 8.967241 5.510856 -7.203519 0
M  V30 64 H 8.530083 7.148836 -6.786065 0
M  V30 65 H 10.051785 9.151452 -7.580073 0
M  V30 66 H 11.487954 8.794816 -8.533782 0
M  V30 67 H 5.975085 5.147380 -12.594072 0
M  V30 68 H 8.461068 7.561677 -9.185216 0
M  V30 END ATOM
M  V30 BEGIN BOND
M  V30 1 1 7 4
M  V30 2 1 12 9
M  V30 3 1 13 1
M  V30 4 1 13 12
M  V30 5 1 15 1
M  V30 6 1 15 5
M  V30 7 1 16 13
M  V30 8 1 17 14
M  V30 9 1 18 6
M  V30 10 1 19 5
M  V30 11 1 19 6
M  V30 12 1 19 10
M  V30 13 1 20 4
M  V30 14 1 21 20
M  V30 15 1 22 8
M  V30 16 1 22 16
M  V30 17 1 23 9
M  V30 18 1 23 15
M  V30 19 1 23 18
M  V30 20 1 24 8
M  V30 21 1 24 11
M  V30 22 1 24 17
M  V30 23 1 25 8
M  V30 24 1 26 21
M  V30 25 1 27 2
M  V30 26 1 27 3
M  V30 27 1 27 14
M  V30 28 1 27 25
M  V30 29 2 28 25
M  V30 30 1 29 10
M  V30 31 1 29 26
M  V30 32 1 30 6
M  V30 33 1 31 10
M  V30 34 1 31 20
M  V30 35 1 32 1
M  V30 36 1 33 1
M  V30 37 1 34 4
M  V30 38 1 35 4
M  V30 39 1 36 5
M  V30 40 1 37 5
M  V30 41 1 6 38 CFG=1
M  V30 42 1 39 7
M  V30 43 1 8 40 CFG=1
M  V30 44 1 41 9
M  V30 45 1 42 9
M  V30 46 1 10 43 CFG=3
M  V30 47 1 44 11
M  V30 48 1 45 12
M  V30 49 1 46 12
M  V30 50 1 47 14
M  V30 51 1 48 14
M  V30 52 1 15 49 CFG=1
M  V30 53 1 50 16
M  V30 54 1 51 16
M  V30 55 1 52 18
M  V30 56 1 53 18
M  V30 57 1 20 54 CFG=3
M  V30 58 1 55 21
M  V30 59 1 56 21
M  V30 60 1 57 22
M  V30 61 1 58 22
M  V30 62 1 23 59 CFG=3
M  V30 63 1 24 60 CFG=3
M  V30 64 1 61 26
M  V30 65 1 62 26
M  V30 66 1 63 29
M  V30 67 1 64 29
M  V30 68 1 65 31
M  V30 69 1 66 31
M  V30 70 1 13 67 CFG=1
M  V30 71 1 19 68 CFG=1
M  V30 END BOND
M  V30 END CTAB
M  END
>  <i_epik_Tot_Q>  (1) 
1

>  <i_epik_Tot_abs_Q>  (1) 
3

>  <i_i_glide_confnum>  (1) 
230

>  <i_i_glide_lignum>  (1) 
107

>  <i_i_glide_posenum>  (1) 
326

>  <i_i_glide_rotatable_bonds>  (1) 
7

>  <i_lp_mmshare_version>  (1) 
72125

>  <i_m_source_file_index>  (1) 
40

>  <i_f3d_flags>  (1) 
0

>  <num_sample>  (1) 
50

>  <b_lp_Chiralities_Consistent>  (1) 
1

>  <r_epik_Charging_Adjusted_Penalty>  (1) 
0.43569023002306473

>  <r_epik_Ionization_Penalty>  (1) 
0.17475065349743213

>  <r_epik_Ionization_Penalty_Charging>  (1) 
0.17468327186895813

>  <r_epik_Ionization_Penalty_Neutral>  (1) 
6.7381628474014066e-05

>  <r_epik_State_Penalty>  (1) 
0.26100695815410663

>  <r_glide_ring_energy>  (1) 
0

>  <r_i_docking_score>  (1) 
-5.9966386692999558

>  <r_i_glide_ecoul>  (1) 
-11.164113963889367

>  <r_i_glide_eff_state_penalty>  (1) 
0.26100695815410663

>  <r_i_glide_einternal>  (1) 
8.649834947054261

>  <r_i_glide_emodel>  (1) 
-42.191457617700955

>  <r_i_glide_emodel_strain>  (1) 
2.7741836896334249

>  <r_i_glide_energy>  (1) 
-32.415981624892822

>  <r_i_glide_erotb>  (1) 
0.49989103335302049

>  <r_i_glide_esite>  (1) 
-0.17849341257856208

>  <r_i_glide_evdw>  (1) 
-21.251867661003455

>  <r_i_glide_gscore>  (1) 
-6.2576456274540622

>  <r_i_glide_gscore_strain>  (1) 
0

>  <r_i_glide_hbond>  (1) 
-0.52000000000000002

>  <r_i_glide_ligand_efficiency>  (1) 
-0.19343995707419212

>  <r_i_glide_ligand_efficiency_ln>  (1) 
-1.3524257948318228

>  <r_i_glide_ligand_efficiency_sa>  (1) 
-0.60766853855228886

>  <r_i_glide_lipo>  (1) 
-1.7141147553014906

>  <r_i_glide_metal>  (1) 
-0

>  <r_i_glide_rewards>  (1) 
-1.6077180152934525

>  <r_lp_Energy>  (1) 
50.450402999999994

>  <r_lp_tautomer_probability>  (1) 
0.99995000000000001

>  <s_epik_Chemistry_Notes>  (1) 
This compound contains an acetal/aminal-like group ( X-CH(R)-Y where X, Y are N, S, or O) that may be acid/base labile, releasing an aldehyde.

>  <s_epik_cmdline>  (1) 
J2VwaWtfcHl0aG9uJywgJy1waHQnLCAnMS4wJywgJy1waCcsICc3LjQnLCAnLXRuJywgJzgnLCAnLW1hJywgJzUwMCcsICctaW1hZScsICc8aW5maWxlLm1hZT4nLCAnLW9tYWUnLCAnPG91dGZpbGUubWFlPic=

>  <s_epik_input>  (1) 
RkMxKEYpW0NIMl1PW0NASF0oW09IXSlbQ0BIXShDMT1PKVtDSDJdW0NIMl1OKFtDSDJdMilbQ0gyXVtDSDJdW0NASF0oW0NAQEhdMjMpW0NIMl1bQ0BIXShbT0hdKU4oW0NIMl0zKVtDQEBIXTRbQ0gyXVtDSDJdW0NIMl1bQ0BASF0oW0NIMl00KVtDSDJdW09IXQ==

>  <s_glide_docking_method>  (1) 
confgen

>  <s_i_glide_gridfile>  (1) 
gpcr_drd2_6luq_protein_autoprepared_prepared

>  <s_lp_Force_Field>  (1) 
S-OPLS

>  <s_lp_Variant>  (1) 
DiffSBDD_39-3

>  <s_m_source_file>  (1) 
generated_generic_title2_ligand_DiffSBDD_2026-06-23_prepared.sdf

>  <GenAI_Model>  (1) 
DiffSBDD

>  <Protein>  (1) 
generic_title2

$$$$
DiffSBDD_33
     RDKit          3D

  0  0  0  0  0  0  0  0  0  0999 V3000
M  V30 BEGIN CTAB
M  V30 COUNTS 57 63 0 0 1
M  V30 BEGIN ATOM
M  V30 1 C 8.963214 3.905524 -15.908294 0
M  V30 2 C 7.146839 5.510390 -16.617628 0
M  V30 3 C 8.472521 5.842039 -13.740220 0 CFG=2
M  V30 4 C 6.508659 3.990477 -11.115283 0
M  V30 5 C 6.338929 7.219451 -21.345904 0
M  V30 6 C 6.457491 6.928280 -14.490786 0
M  V30 7 C 7.036207 6.160335 -19.006238 0
M  V30 8 S 5.080904 7.189846 -17.592397 0
M  V30 9 C 8.214598 5.372341 -19.208036 0
M  V30 10 C 6.212523 6.969228 -19.951591 0
M  V30 11 C 9.602140 5.188823 -9.401817 0
M  V30 12 C 6.507402 6.214313 -17.655172 0
M  V30 13 C 5.415249 8.029380 -22.034456 0
M  V30 14 N 7.477527 4.865036 -14.182172 0
M  V30 15 C 4.175556 8.390229 -19.985048 0
M  V30 16 O 8.575412 5.990233 -7.530578 0
M  V30 17 C 8.882072 6.363032 -8.854014 0 CFG=2
M  V30 18 N 8.783673 4.699130 -18.178383 0
M  V30 19 C 5.091649 7.586833 -19.281861 0
M  V30 20 C 4.338899 8.611352 -21.356355 0
M  V30 21 N 8.516495 6.346796 -11.359928 0 CFG=2 CHG=1
M  V30 22 C 9.180284 5.538312 -12.410483 0
M  V30 23 C 7.632020 7.079973 -13.507002 0 CFG=1
M  V30 24 C 8.270150 4.749957 -16.944758 0
M  V30 25 C 8.298452 5.620649 -10.065718 0 CFG=1
M  V30 26 C 6.975425 4.862420 -9.937742 0
M  V30 27 C 8.043821 3.624040 -14.703126 0
M  V30 28 C 6.605749 5.534528 -15.160449 0 CFG=2
M  V30 29 C 7.368153 7.072670 -11.985062 0
M  V30 30 H 9.245065 2.963909 -16.384751 0
M  V30 31 H 9.899104 4.389699 -15.622046 0
M  V30 32 H 9.194026 5.990207 -14.533350 0
M  V30 33 H 5.851659 3.191247 -10.766290 0
M  V30 34 H 5.929580 4.550306 -11.846107 0
M  V30 35 H 7.344078 3.551129 -11.645559 0
M  V30 36 H 7.161566 6.778078 -21.889597 0
M  V30 37 H 5.508457 6.996590 -13.957004 0
M  V30 38 H 6.467387 7.737651 -15.220019 0
M  V30 39 H 8.674538 5.279772 -20.181031 0
M  V30 40 H 10.575402 5.597997 -9.585036 0
M  V30 41 H 9.602056 4.261320 -8.831667 0
M  V30 42 H 5.538100 8.201357 -23.093881 0
M  V30 43 H 3.341365 8.833512 -19.466068 0
M  V30 44 H 7.733481 6.400318 -7.320310 0
M  V30 45 H 9.315957 7.356516 -8.957954 0
M  V30 46 H 3.632735 9.229215 -21.892234 0
M  V30 47 H 10.219045 5.862863 -12.470543 0
M  V30 48 H 9.217798 4.474413 -12.183863 0
M  V30 49 H 8.175407 7.990144 -13.734154 0
M  V30 50 H 7.058872 4.215003 -9.065828 0
M  V30 51 H 6.197050 5.590220 -9.715354 0
M  V30 52 H 7.222476 2.973530 -15.006618 0
M  V30 53 H 8.575419 3.093210 -13.915202 0
M  V30 54 H 5.641293 5.028793 -15.172566 0
M  V30 55 H 6.407054 6.616604 -11.774499 0
M  V30 56 H 7.312680 8.086790 -11.586378 0
M  V30 57 H 9.174540 7.076878 -11.132943 0
M  V30 END ATOM
M  V30 BEGIN BOND
M  V30 1 2 9 7
M  V30 2 2 10 5
M  V30 3 1 10 7
M  V30 4 2 12 2
M  V30 5 1 12 7
M  V30 6 1 12 8
M  V30 7 1 13 5
M  V30 8 1 14 3
M  V30 9 1 17 11
M  V30 10 1 17 16
M  V30 11 1 18 9
M  V30 12 1 19 8
M  V30 13 1 19 10
M  V30 14 2 19 15
M  V30 15 2 20 13
M  V30 16 1 20 15
M  V30 17 1 22 3
M  V30 18 1 22 21
M  V30 19 1 23 3
M  V30 20 1 23 6
M  V30 21 1 24 1
M  V30 22 1 24 2
M  V30 23 2 24 18
M  V30 24 1 25 11
M  V30 25 1 25 17
M  V30 26 1 25 21
M  V30 27 1 26 4
M  V30 28 1 25 26 CFG=1
M  V30 29 1 27 1
M  V30 30 1 27 14
M  V30 31 1 28 2
M  V30 32 1 28 6
M  V30 33 1 28 14
M  V30 34 1 29 21
M  V30 35 1 29 23
M  V30 36 1 30 1
M  V30 37 1 31 1
M  V30 38 1 3 32 CFG=3
M  V30 39 1 33 4
M  V30 40 1 34 4
M  V30 41 1 35 4
M  V30 42 1 36 5
M  V30 43 1 37 6
M  V30 44 1 38 6
M  V30 45 1 39 9
M  V30 46 1 40 11
M  V30 47 1 41 11
M  V30 48 1 42 13
M  V30 49 1 43 15
M  V30 50 1 44 16
M  V30 51 1 17 45 CFG=3
M  V30 52 1 46 20
M  V30 53 1 47 22
M  V30 54 1 48 22
M  V30 55 1 23 49 CFG=3
M  V30 56 1 50 26
M  V30 57 1 51 26
M  V30 58 1 52 27
M  V30 59 1 53 27
M  V30 60 1 28 54 CFG=3
M  V30 61 1 55 29
M  V30 62 1 56 29
M  V30 63 1 21 57 CFG=1
M  V30 END BOND
M  V30 END CTAB
M  END
>  <i_epik_Tot_Q>  (1) 
1

>  <i_epik_Tot_abs_Q>  (1) 
1

>  <i_i_glide_confnum>  (1) 
1

>  <i_i_glide_lignum>  (1) 
95

>  <i_i_glide_posenum>  (1) 
118

>  <i_i_glide_rotatable_bonds>  (1) 
3

>  <i_lp_mmshare_version>  (1) 
72125

>  <i_m_source_file_index>  (1) 
34

>  <i_f3d_flags>  (1) 
0

>  <num_sample>  (1) 
50

>  <b_lp_Chiralities_Consistent>  (1) 
1

>  <r_epik_Charging_Adjusted_Penalty>  (1) 
0.0056247907503774904

>  <r_epik_Ionization_Penalty>  (1) 
0.066233849197789949

>  <r_epik_Ionization_Penalty_Charging>  (1) 
0.0056247907503774904

>  <r_epik_Ionization_Penalty_Neutral>  (1) 
0.060609058447412462

>  <r_epik_State_Penalty>  (1) 
-0

>  <r_glide_ring_energy>  (1) 
0

>  <r_i_docking_score>  (1) 
-5.9905091373139303

>  <r_i_glide_ecoul>  (1) 
-6.5439910788153002

>  <r_i_glide_eff_state_penalty>  (1) 
-0

>  <r_i_glide_einternal>  (1) 
3.6285160185086927

>  <r_i_glide_emodel>  (1) 
-34.062403505897798

>  <r_i_glide_emodel_strain>  (1) 
3.6187387094063155

>  <r_i_glide_energy>  (1) 
-29.746060265684822

>  <r_i_glide_erotb>  (1) 
0.11895510521466947

>  <r_i_glide_esite>  (1) 
-0.076381882620210492

>  <r_i_glide_evdw>  (1) 
-23.202069186869522

>  <r_i_glide_gscore>  (1) 
-5.9905091373139303

>  <r_i_glide_gscore_strain>  (1) 
0

>  <r_i_glide_hbond>  (1) 
-0.16

>  <r_i_glide_ligand_efficiency>  (1) 
-0.20656928059703208

>  <r_i_glide_ligand_efficiency_ln>  (1) 
-1.3716746862399938

>  <r_i_glide_ligand_efficiency_sa>  (1) 
-0.6346462764480828

>  <r_i_glide_lipo>  (1) 
-2.4549959749570154

>  <r_i_glide_metal>  (1) 
-0

>  <r_i_glide_rewards>  (1) 
-1.2763842637856024

>  <r_lp_Energy>  (1) 
35.775191999999997

>  <r_lp_tautomer_probability>  (1) 
1

>  <s_epik_cmdline>  (1) 
J2VwaWtfcHl0aG9uJywgJy1waHQnLCAnMS4wJywgJy1waCcsICc3LjQnLCAnLXRuJywgJzgnLCAnLW1hJywgJzUwMCcsICctaW1hZScsICc8aW5maWxlLm1hZT4nLCAnLW9tYWUnLCAnPG91dGZpbGUubWFlPic=

>  <s_epik_input>  (1) 
W09IXVtDQEhdMVtDSDJdW0NAXTEoW0NIMl1bQ0gzXSlOKFtDSDJdMilbQ0gyXVtDQEhdKFtDSDJdW0NAQEhdMzQpW0NAQEhdMk40W0NIMl1bQ0gyXWM1bltjSF1jKGM2YzM1KWM3YyhzNilbY0hdW2NIXVtjSF1bY0hdNw==

>  <s_glide_docking_method>  (1) 
confgen

>  <s_i_glide_gridfile>  (1) 
gpcr_drd2_6luq_protein_autoprepared_prepared

>  <s_lp_Force_Field>  (1) 
S-OPLS

>  <s_lp_Variant>  (1) 
DiffSBDD_33-1

>  <s_m_source_file>  (1) 
generated_generic_title2_ligand_DiffSBDD_2026-06-23_prepared.sdf

>  <GenAI_Model>  (1) 
DiffSBDD

>  <Protein>  (1) 
generic_title2

$$$$
DiffSBDD_8
     RDKit          3D

  0  0  0  0  0  0  0  0  0  0999 V3000
M  V30 BEGIN CTAB
M  V30 COUNTS 70 73 0 0 1
M  V30 BEGIN ATOM
M  V30 1 N 7.378232 3.758513 -15.549437 0
M  V30 2 C 9.167590 1.548432 -18.132712 0
M  V30 3 C 6.922532 6.480440 -12.505837 0 CFG=1
M  V30 4 N 10.890245 3.019673 -18.385324 0
M  V30 5 O 8.879869 3.985757 -13.083348 0
M  V30 6 C 9.206399 5.595960 -8.791245 0
M  V30 7 F 9.908886 4.968463 -17.713490 0
M  V30 8 C 9.768563 6.830278 -8.071063 0
M  V30 9 N 8.575362 5.990216 -10.066583 0 CHG=1
M  V30 10 C 8.278546 4.890159 -11.004464 0 CFG=1
M  V30 11 C 10.047602 3.681745 -17.395757 0 CFG=1
M  V30 12 C 12.427198 7.829521 -2.616716 0
M  V30 13 C 7.087308 5.073668 -11.942288 0 CFG=2
M  V30 14 O 10.067676 5.819950 -12.369295 0
M  V30 15 O 12.316402 3.373575 -18.292567 0
M  V30 16 C 10.395795 6.498771 -6.707033 0
M  V30 17 C 6.904112 2.712426 -13.136770 0
M  V30 18 C 7.298938 5.045636 -16.247769 0
M  V30 19 C 6.686357 3.709447 -14.276958 0 CFG=1
M  V30 20 C 8.724106 2.881422 -17.473351 0 CFG=2
M  V30 21 C 8.033547 2.687143 -16.090451 0
M  V30 22 C 5.755821 6.828574 -13.388560 0
M  V30 23 C 9.430880 4.623919 -11.982435 0 CFG=2
M  V30 24 C 7.468347 4.106620 -13.043362 0 CFG=2
M  V30 25 O 12.574545 8.789459 -1.590607 0
M  V30 26 O 8.090398 1.593451 -15.530843 0
M  V30 27 C 11.901796 8.468694 -3.910017 0
M  V30 28 C 12.839862 3.394369 -16.964567 0
M  V30 29 C 10.697027 1.598595 -18.173917 0
M  V30 30 O 11.375477 7.440160 -4.739214 0
M  V30 31 C 10.935087 7.727126 -5.969438 0
M  V30 32 N 5.778039 7.202270 -11.985116 0 CHG=1
M  V30 33 O 10.948113 8.846531 -6.482446 0
M  V30 34 H 8.814259 0.639506 -17.645393 0
M  V30 35 H 8.784065 1.508206 -19.154074 0
M  V30 36 H 7.798606 7.121768 -12.571651 0
M  V30 37 H 10.009640 4.882883 -8.977842 0
M  V30 38 H 8.466800 5.093074 -8.165969 0
M  V30 39 H 8.972372 7.561922 -7.929329 0
M  V30 40 H 10.515560 7.309089 -8.705358 0
M  V30 41 H 7.752740 6.554988 -9.830097 0
M  V30 42 H 8.101057 3.990177 -10.425616 0
M  V30 43 H 10.438712 3.620374 -16.383923 0
M  V30 44 H 13.375031 7.320271 -2.795729 0
M  V30 45 H 11.722390 7.078696 -2.256630 0
M  V30 46 H 6.157543 4.747305 -11.471444 0
M  V30 47 H 10.771433 5.570796 -12.957879 0
M  V30 48 H 11.213597 5.788267 -6.833781 0
M  V30 49 H 9.656682 6.017095 -6.066407 0
M  V30 50 H 7.632159 1.908066 -13.205257 0
M  V30 51 H 6.041110 2.478481 -12.518574 0
M  V30 52 H 8.235842 5.590573 -16.147037 0
M  V30 53 H 7.024383 4.966720 -17.298234 0
M  V30 54 H 6.534625 5.679262 -15.801901 0
M  V30 55 H 5.662142 4.064427 -14.326614 0
M  V30 56 H 8.035855 3.341955 -18.180161 0
M  V30 57 H 5.807275 7.688653 -14.048429 0
M  V30 58 H 4.975413 6.095222 -13.569711 0
M  V30 59 H 10.175503 3.990067 -11.528696 0
M  V30 60 H 13.210506 9.449617 -1.836432 0
M  V30 61 H 11.114044 9.191198 -3.689045 0
M  V30 62 H 12.702902 9.010269 -4.416554 0
M  V30 63 H 13.915762 3.558602 -17.031188 0
M  V30 64 H 12.452460 4.222402 -16.371487 0
M  V30 65 H 12.705868 2.457172 -16.428900 0
M  V30 66 H 11.110913 1.264824 -17.222514 0
M  V30 67 H 11.122798 1.001218 -18.979758 0
M  V30 68 H 5.197589 6.664524 -11.356491 0
M  V30 69 H 9.216640 6.597543 -10.559297 0
M  V30 70 H 5.992205 8.161268 -11.747208 0
M  V30 END ATOM
M  V30 BEGIN BOND
M  V30 1 1 8 6
M  V30 2 1 9 6
M  V30 3 1 10 9
M  V30 4 1 11 4
M  V30 5 1 11 7
M  V30 6 1 13 3
M  V30 7 1 13 10
M  V30 8 1 15 4
M  V30 9 1 16 8
M  V30 10 1 18 1
M  V30 11 1 19 1
M  V30 12 1 19 17
M  V30 13 1 20 2
M  V30 14 1 20 11
M  V30 15 1 21 1
M  V30 16 1 21 20
M  V30 17 1 22 3
M  V30 18 1 23 5
M  V30 19 1 23 10
M  V30 20 1 23 14
M  V30 21 1 24 5 CFG=3
M  V30 22 1 24 13
M  V30 23 1 24 17
M  V30 24 1 24 19
M  V30 25 1 25 12
M  V30 26 2 26 21
M  V30 27 1 27 12
M  V30 28 1 28 15
M  V30 29 1 29 2
M  V30 30 1 29 4
M  V30 31 1 30 27
M  V30 32 1 31 16
M  V30 33 1 31 30
M  V30 34 1 32 3
M  V30 35 1 32 22
M  V30 36 2 33 31
M  V30 37 1 34 2
M  V30 38 1 35 2
M  V30 39 1 3 36 CFG=3
M  V30 40 1 37 6
M  V30 41 1 38 6
M  V30 42 1 39 8
M  V30 43 1 40 8
M  V30 44 1 41 9
M  V30 45 1 10 42 CFG=1
M  V30 46 1 11 43 CFG=1
M  V30 47 1 44 12
M  V30 48 1 45 12
M  V30 49 1 13 46 CFG=1
M  V30 50 1 47 14
M  V30 51 1 48 16
M  V30 52 1 49 16
M  V30 53 1 50 17
M  V30 54 1 51 17
M  V30 55 1 52 18
M  V30 56 1 53 18
M  V30 57 1 54 18
M  V30 58 1 19 55 CFG=3
M  V30 59 1 20 56 CFG=3
M  V30 60 1 57 22
M  V30 61 1 58 22
M  V30 62 1 23 59 CFG=1
M  V30 63 1 60 25
M  V30 64 1 61 27
M  V30 65 1 62 27
M  V30 66 1 63 28
M  V30 67 1 64 28
M  V30 68 1 65 28
M  V30 69 1 66 29
M  V30 70 1 67 29
M  V30 71 1 68 32
M  V30 72 1 69 9
M  V30 73 1 70 32
M  V30 END BOND
M  V30 END CTAB
M  END
>  <i_epik_Tot_Q>  (1) 
2

>  <i_epik_Tot_abs_Q>  (1) 
2

>  <i_i_glide_confnum>  (1) 
1406

>  <i_i_glide_lignum>  (1) 
41

>  <i_i_glide_posenum>  (1) 
259

>  <i_i_glide_rotatable_bonds>  (1) 
15

>  <i_lp_mmshare_version>  (1) 
72125

>  <i_m_source_file_index>  (1) 
9

>  <i_f3d_flags>  (1) 
0

>  <num_sample>  (1) 
50

>  <b_lp_Chiralities_Consistent>  (1) 
1

>  <r_epik_Charging_Adjusted_Penalty>  (1) 
2.8797985042560583

>  <r_epik_Ionization_Penalty>  (1) 
1.6442763990741283

>  <r_epik_Ionization_Penalty_Charging>  (1) 
1.6439676131770962

>  <r_epik_Ionization_Penalty_Neutral>  (1) 
0.00030878589703216643

>  <r_epik_State_Penalty>  (1) 
1.2358308910789622

>  <r_glide_ring_energy>  (1) 
0

>  <r_i_docking_score>  (1) 
-5.985488856024185

>  <r_i_glide_ecoul>  (1) 
-13.419087119063196

>  <r_i_glide_eff_state_penalty>  (1) 
1.2358308910789622

>  <r_i_glide_einternal>  (1) 
23.089773369865199

>  <r_i_glide_emodel>  (1) 
-71.165205825799717

>  <r_i_glide_emodel_strain>  (1) 
0.90875525749819985

>  <r_i_glide_energy>  (1) 
-51.57862157534052

>  <r_i_glide_erotb>  (1) 
1.0700444368793263

>  <r_i_glide_esite>  (1) 
-0.18389272730067466

>  <r_i_glide_evdw>  (1) 
-38.159534456277328

>  <r_i_glide_gscore>  (1) 
-7.2213197471031476

>  <r_i_glide_gscore_strain>  (1) 
0

>  <r_i_glide_hbond>  (1) 
-0.71304440155441506

>  <r_i_glide_ligand_efficiency>  (1) 
-0.18137845018255105

>  <r_i_glide_ligand_efficiency_ln>  (1) 
-1.3311417303770958

>  <r_i_glide_ligand_efficiency_sa>  (1) 
-0.58177760568197034

>  <r_i_glide_lipo>  (1) 
-1.6868860154831253

>  <r_i_glide_metal>  (1) 
-0

>  <r_i_glide_rewards>  (1) 
-1.7867012489709122

>  <r_lp_Energy>  (1) 
49.368469999999995

>  <s_epik_Chemistry_Notes>  (1) 
This compound has an ester and may undergo hydrolysis at high or low pH. This compound contains an acetal/aminal-like group ( X-CH(R)-Y where X, Y are N, S, or O) that may be acid/base labile, releasing an aldehyde. This compound has a N-S or N-O group and may undergo hydrolysis at high or low pH.

>  <s_epik_cmdline>  (1) 
J2VwaWtfcHl0aG9uJywgJy1waHQnLCAnMS4wJywgJy1waCcsICc3LjQnLCAnLXRuJywgJzgnLCAnLW1hJywgJzUwMCcsICctaW1hZScsICc8aW5maWxlLm1hZT4nLCAnLW9tYWUnLCAnPG91dGZpbGUubWFlPic=

>  <s_epik_input>  (1) 
W0NIM11PTjFbQ0BIXShGKVtDQEBIXShbQ0gyXVtDSDJdMSlDKD1PKU4oW0NIM10pW0NASF0yW0NIMl1DMjNPW0NAQEhdKFtPSF0pW0NASF0oW0NASF0zW0NASF00W0NIMl1bTkhdNClbTkhdW0NIMl1bQ0gyXVtDSDJdQyg9TylPW0NIMl1bQ0gyXVtPSF0=

>  <s_glide_docking_method>  (1) 
confgen

>  <s_i_glide_gridfile>  (1) 
gpcr_drd2_6luq_protein_autoprepared_prepared

>  <s_lp_Force_Field>  (1) 
S-OPLS

>  <s_lp_Variant>  (1) 
DiffSBDD_8-10

>  <s_m_source_file>  (1) 
generated_generic_title2_ligand_DiffSBDD_2026-06-23_prepared.sdf

>  <GenAI_Model>  (1) 
DiffSBDD

>  <Protein>  (1) 
generic_title2

$$$$
DiffSBDD_8
     RDKit          3D

  0  0  0  0  0  0  0  0  0  0999 V3000
M  V30 BEGIN CTAB
M  V30 COUNTS 69 72 0 0 1
M  V30 BEGIN ATOM
M  V30 1 N 6.631224 5.794365 -16.411930 0
M  V30 2 C 5.146828 5.735720 -19.476371 0
M  V30 3 C 6.063008 5.035752 -12.152373 0 CFG=1
M  V30 4 N 6.517935 6.725981 -21.136154 0
M  V30 5 O 7.775405 7.044397 -13.890360 0
M  V30 6 C 9.428585 6.238388 -9.559173 0
M  V30 7 F 8.378776 7.190224 -19.871973 0
M  V30 8 C 10.006809 7.663541 -9.727035 0
M  V30 9 N 8.227514 5.990221 -10.385111 0 CHG=1
M  V30 10 C 8.392044 6.062446 -11.857440 0 CFG=1
M  V30 11 C 7.377163 6.328379 -20.034198 0 CFG=1
M  V30 12 C 12.011987 8.726797 -4.331475 0
M  V30 13 C 7.511611 5.076187 -12.601110 0 CFG=2
M  V30 14 O 6.885787 7.981155 -11.985026 0
M  V30 15 O 7.195312 6.297299 -22.330531 0
M  V30 16 C 11.168995 8.014375 -8.770053 0
M  V30 17 C 8.550817 5.034937 -14.977381 0
M  V30 18 C 5.760007 6.942813 -16.127617 0
M  V30 19 C 7.063665 5.026073 -15.279972 0 CFG=1
M  V30 20 C 6.418226 6.304977 -18.838838 0 CFG=2
M  V30 21 C 6.954147 5.433784 -17.681221 0
M  V30 22 C 5.243470 3.858931 -12.543799 0
M  V30 23 C 8.028318 7.392037 -12.555992 0 CFG=2
M  V30 24 C 7.585080 5.636387 -13.990784 0 CFG=2
M  V30 25 O 11.592634 7.375988 -4.384996 0
M  V30 26 O 7.647362 4.445346 -17.928753 0
M  V30 27 C 11.264889 9.582857 -5.369791 0
M  V30 28 C 7.580398 7.465705 -23.032500 0
M  V30 29 C 5.376484 5.832598 -20.990660 0
M  V30 30 O 11.565377 9.183913 -6.703352 0
M  V30 31 C 10.737562 8.320757 -7.330808 0
M  V30 32 N 5.779159 3.990281 -11.193738 0
M  V30 33 O 9.735359 7.813075 -6.827425 0
M  V30 34 H 4.975309 4.695821 -19.194252 0
M  V30 35 H 4.273535 6.314962 -19.173617 0
M  V30 36 H 5.526822 5.976558 -12.064116 0
M  V30 37 H 10.175386 5.483045 -9.783042 0
M  V30 38 H 9.128354 6.067065 -8.526822 0
M  V30 39 H 9.214537 8.403846 -9.607796 0
M  V30 40 H 10.373232 7.782285 -10.746154 0
M  V30 41 H 7.884416 5.063903 -10.168399 0
M  V30 42 H 9.428670 5.833109 -12.115128 0
M  V30 43 H 7.815142 5.348187 -20.231582 0
M  V30 44 H 11.786285 9.105057 -3.333525 0
M  V30 45 H 13.093009 8.796027 -4.446886 0
M  V30 46 H 7.934052 4.069802 -12.573317 0
M  V30 47 H 6.975382 8.002126 -11.026198 0
M  V30 48 H 11.691271 8.890625 -9.156118 0
M  V30 49 H 11.899070 7.206099 -8.750491 0
M  V30 50 H 9.184906 5.709120 -15.549220 0
M  V30 51 H 8.989940 4.068671 -14.746927 0
M  V30 52 H 6.286703 7.881581 -16.305945 0
M  V30 53 H 4.850827 6.922992 -16.729185 0
M  V30 54 H 5.432944 6.952453 -15.085977 0
M  V30 55 H 6.576766 4.057879 -15.178613 0
M  V30 56 H 6.247273 7.341064 -18.552473 0
M  V30 57 H 4.173485 3.990226 -12.675957 0
M  V30 58 H 5.691691 3.097853 -13.179316 0
M  V30 59 H 8.830842 8.128670 -12.508509 0
M  V30 60 H 10.724152 7.336970 -4.762388 0
M  V30 61 H 10.189775 9.576544 -5.185265 0
M  V30 62 H 11.578249 10.621470 -5.259443 0
M  V30 63 H 8.140561 7.183246 -23.922956 0
M  V30 64 H 6.710550 8.042517 -23.349962 0
M  V30 65 H 8.226241 8.105327 -22.428338 0
M  V30 66 H 5.619130 4.843821 -21.386886 0
M  V30 67 H 4.505040 6.209678 -21.526251 0
M  V30 68 H 5.119178 4.200037 -10.453036 0
M  V30 69 H 7.521584 6.659972 -10.052436 0
M  V30 END ATOM
M  V30 BEGIN BOND
M  V30 1 1 8 6
M  V30 2 1 9 6
M  V30 3 1 10 9
M  V30 4 1 11 4
M  V30 5 1 11 7
M  V30 6 1 13 3
M  V30 7 1 13 10
M  V30 8 1 15 4
M  V30 9 1 16 8
M  V30 10 1 18 1
M  V30 11 1 19 1
M  V30 12 1 19 17
M  V30 13 1 20 2
M  V30 14 1 20 11
M  V30 15 1 21 1
M  V30 16 1 21 20
M  V30 17 1 22 3
M  V30 18 1 23 5
M  V30 19 1 23 10
M  V30 20 1 23 14
M  V30 21 1 24 5 CFG=1
M  V30 22 1 24 13
M  V30 23 1 24 17
M  V30 24 1 24 19
M  V30 25 1 25 12
M  V30 26 2 26 21
M  V30 27 1 27 12
M  V30 28 1 28 15
M  V30 29 1 29 2
M  V30 30 1 29 4
M  V30 31 1 30 27
M  V30 32 1 31 16
M  V30 33 1 31 30
M  V30 34 1 32 3
M  V30 35 1 32 22
M  V30 36 2 33 31
M  V30 37 1 34 2
M  V30 38 1 35 2
M  V30 39 1 3 36 CFG=1
M  V30 40 1 37 6
M  V30 41 1 38 6
M  V30 42 1 39 8
M  V30 43 1 40 8
M  V30 44 1 41 9
M  V30 45 1 10 42 CFG=1
M  V30 46 1 11 43 CFG=3
M  V30 47 1 44 12
M  V30 48 1 45 12
M  V30 49 1 13 46 CFG=3
M  V30 50 1 47 14
M  V30 51 1 48 16
M  V30 52 1 49 16
M  V30 53 1 50 17
M  V30 54 1 51 17
M  V30 55 1 52 18
M  V30 56 1 53 18
M  V30 57 1 54 18
M  V30 58 1 19 55 CFG=1
M  V30 59 1 20 56 CFG=1
M  V30 60 1 57 22
M  V30 61 1 58 22
M  V30 62 1 23 59 CFG=3
M  V30 63 1 60 25
M  V30 64 1 61 27
M  V30 65 1 62 27
M  V30 66 1 63 28
M  V30 67 1 64 28
M  V30 68 1 65 28
M  V30 69 1 66 29
M  V30 70 1 67 29
M  V30 71 1 68 32
M  V30 72 1 69 9
M  V30 END BOND
M  V30 END CTAB
M  END
>  <i_epik_Tot_Q>  (1) 
1

>  <i_epik_Tot_abs_Q>  (1) 
1

>  <i_i_glide_confnum>  (1) 
1891

>  <i_i_glide_lignum>  (1) 
33

>  <i_i_glide_posenum>  (1) 
298

>  <i_i_glide_rotatable_bonds>  (1) 
15

>  <i_lp_mmshare_version>  (1) 
72125

>  <i_m_source_file_index>  (1) 
9

>  <i_f3d_flags>  (1) 
0

>  <num_sample>  (1) 
50

>  <b_lp_Chiralities_Consistent>  (1) 
1

>  <r_epik_Charging_Adjusted_Penalty>  (1) 
0.31458683345696248

>  <r_epik_Ionization_Penalty>  (1) 
0.14300301403106822

>  <r_epik_Ionization_Penalty_Charging>  (1) 
0.065080964065447874

>  <r_epik_Ionization_Penalty_Neutral>  (1) 
0.077922049965620341

>  <r_epik_State_Penalty>  (1) 
0.24950586939151459

>  <r_glide_ring_energy>  (1) 
0

>  <r_i_docking_score>  (1) 
-5.9849640674226787

>  <r_i_glide_ecoul>  (1) 
-12.610875845704728

>  <r_i_glide_eff_state_penalty>  (1) 
0.24950586939151459

>  <r_i_glide_einternal>  (1) 
12.676486564225947

>  <r_i_glide_emodel>  (1) 
-58.550471625649223

>  <r_i_glide_emodel_strain>  (1) 
1.6897537057054706

>  <r_i_glide_energy>  (1) 
-44.979932789043886

>  <r_i_glide_erotb>  (1) 
1.0741905119875848

>  <r_i_glide_esite>  (1) 
-0.1501413096053151

>  <r_i_glide_evdw>  (1) 
-32.36905694333916

>  <r_i_glide_gscore>  (1) 
-6.2344699368141931

>  <r_i_glide_gscore_strain>  (1) 
0

>  <r_i_glide_hbond>  (1) 
-0.32917173035510783

>  <r_i_glide_ligand_efficiency>  (1) 
-0.18136254749765693

>  <r_i_glide_ligand_efficiency_ln>  (1) 
-1.3310250201093308

>  <r_i_glide_ligand_efficiency_sa>  (1) 
-0.58172659727423337

>  <r_i_glide_lipo>  (1) 
-2.0128963239178774

>  <r_i_glide_metal>  (1) 
-0

>  <r_i_glide_rewards>  (1) 
-1.3063668609008103

>  <r_lp_Energy>  (1) 
37.534118999999997

>  <s_epik_Chemistry_Notes>  (1) 
This compound has an ester and may undergo hydrolysis at high or low pH. This compound contains an acetal/aminal-like group ( X-CH(R)-Y where X, Y are N, S, or O) that may be acid/base labile, releasing an aldehyde. This compound has a N-S or N-O group and may undergo hydrolysis at high or low pH.

>  <s_epik_cmdline>  (1) 
J2VwaWtfcHl0aG9uJywgJy1waHQnLCAnMS4wJywgJy1waCcsICc3LjQnLCAnLXRuJywgJzgnLCAnLW1hJywgJzUwMCcsICctaW1hZScsICc8aW5maWxlLm1hZT4nLCAnLW9tYWUnLCAnPG91dGZpbGUubWFlPic=

>  <s_epik_input>  (1) 
W0NIM11PTjFbQ0BIXShGKVtDQEBIXShbQ0gyXVtDSDJdMSlDKD1PKU4oW0NIM10pW0NASF0yW0NIMl1DMjNPW0NAQEhdKFtPSF0pW0NASF0oW0NASF0zW0NASF00W0NIMl1bTkhdNClbTkhdW0NIMl1bQ0gyXVtDSDJdQyg9TylPW0NIMl1bQ0gyXVtPSF0=

>  <s_glide_docking_method>  (1) 
confgen

>  <s_i_glide_gridfile>  (1) 
gpcr_drd2_6luq_protein_autoprepared_prepared

>  <s_lp_Force_Field>  (1) 
S-OPLS

>  <s_lp_Variant>  (1) 
DiffSBDD_8-2

>  <s_m_source_file>  (1) 
generated_generic_title2_ligand_DiffSBDD_2026-06-23_prepared.sdf

>  <GenAI_Model>  (1) 
DiffSBDD

>  <Protein>  (1) 
generic_title2

$$$$
DiffSBDD_2
     RDKit          3D

  0  0  0  0  0  0  0  0  0  0999 V3000
M  V30 BEGIN CTAB
M  V30 COUNTS 61 63 0 0 1
M  V30 BEGIN ATOM
M  V30 1 C 11.457118 7.740035 -8.792788 0 CFG=1
M  V30 2 C 9.162985 4.853331 -10.906547 0
M  V30 3 C 11.534295 7.746342 -10.332142 0
M  V30 4 C 7.141622 0.579939 -13.576368 0
M  V30 5 N 5.745525 6.312088 -14.991319 0
M  V30 6 C 8.286665 4.810106 -12.126124 0 CFG=2
M  V30 7 C 10.068703 7.490174 -6.768427 0
M  V30 8 C 6.853156 4.348661 -12.040428 0 CFG=2
M  V30 9 C 5.371995 7.990083 -16.709432 0
M  V30 10 C 6.227922 5.290579 -14.376260 0
M  V30 11 C 5.840812 6.587205 -16.350683 0
M  V30 12 C 7.637023 3.069314 -14.115645 0 CFG=1
M  V30 13 C 8.845407 6.020678 -9.972744 0
M  V30 14 C 9.677306 5.998761 -8.676634 0
M  V30 15 C 7.880803 3.454409 -12.667387 0 CFG=1
M  V30 16 C 8.574212 4.968577 -15.482022 0
M  V30 17 C 10.423692 8.915889 -6.335628 0
M  V30 18 C 11.808665 9.336772 -6.808253 0
M  V30 19 O 6.240310 5.828568 -17.233860 0
M  V30 20 C 6.638391 1.889051 -14.210531 0
M  V30 21 C 7.257524 4.291136 -15.009446 0 CFG=2
M  V30 22 C 11.936727 9.116885 -8.316913 0
M  V30 23 N 10.112080 7.357573 -8.249846 0 CFG=2 CHG=1
M  V30 24 C 5.802357 4.975848 -12.933798 0
M  V30 25 H 12.166850 7.024561 -8.390880 0
M  V30 26 H 9.089876 3.913190 -10.371460 0
M  V30 27 H 10.175423 4.916569 -11.275569 0
M  V30 28 H 12.539580 7.996394 -10.672836 0
M  V30 29 H 11.297272 6.790609 -10.778264 0
M  V30 30 H 10.847689 8.476192 -10.758847 0
M  V30 31 H 6.428889 -0.230741 -13.742680 0
M  V30 32 H 8.096366 0.276480 -14.008494 0
M  V30 33 H 7.271145 0.672620 -12.497834 0
M  V30 34 H 8.463158 5.645564 -12.798041 0
M  V30 35 H 9.068344 7.253630 -6.400773 0
M  V30 36 H 10.748459 6.770857 -6.306429 0
M  V30 37 H 6.490384 4.054885 -11.055737 0
M  V30 38 H 4.360229 8.166607 -16.346252 0
M  V30 39 H 5.373435 8.119651 -17.791855 0
M  V30 40 H 6.028992 8.742323 -16.272329 0
M  V30 41 H 8.575410 2.669973 -14.494731 0
M  V30 42 H 8.975324 6.957827 -10.514323 0
M  V30 43 H 7.788851 5.989966 -9.709401 0
M  V30 44 H 9.063039 5.525018 -7.907960 0
M  V30 45 H 10.551706 5.355972 -8.772496 0
M  V30 46 H 8.289048 2.646705 -12.069745 0
M  V30 47 H 8.437344 5.965688 -15.893519 0
M  V30 48 H 9.314183 5.063847 -14.689058 0
M  V30 49 H 9.042113 4.368066 -16.262690 0
M  V30 50 H 9.708201 9.590050 -6.785053 0
M  V30 51 H 10.352394 9.023708 -5.254926 0
M  V30 52 H 11.976631 10.387471 -6.573069 0
M  V30 53 H 12.575429 8.790526 -6.270771 0
M  V30 54 H 5.695268 2.158327 -13.737965 0
M  V30 55 H 6.417786 1.682703 -15.258758 0
M  V30 56 H 6.788255 3.870148 -15.896768 0
M  V30 57 H 11.395746 9.893078 -8.858213 0
M  V30 58 H 12.988270 9.190423 -8.600301 0
M  V30 59 H 5.463477 5.896359 -12.456293 0
M  V30 60 H 4.937607 4.314995 -12.967697 0
M  V30 61 H 9.417755 7.998420 -8.611715 0
M  V30 END ATOM
M  V30 BEGIN BOND
M  V30 1 1 3 1
M  V30 2 1 6 2
M  V30 3 1 8 6
M  V30 4 2 10 5
M  V30 5 1 11 5
M  V30 6 1 11 9
M  V30 7 1 13 2
M  V30 8 1 14 13
M  V30 9 1 15 6
M  V30 10 1 15 8
M  V30 11 1 15 12
M  V30 12 1 17 7
M  V30 13 1 18 17
M  V30 14 2 19 11
M  V30 15 1 20 4
M  V30 16 1 20 12
M  V30 17 1 21 10
M  V30 18 1 21 12
M  V30 19 1 21 16
M  V30 20 1 22 1
M  V30 21 1 22 18
M  V30 22 1 23 1
M  V30 23 1 23 7
M  V30 24 1 23 14
M  V30 25 1 24 8
M  V30 26 1 24 10
M  V30 27 1 1 25 CFG=1
M  V30 28 1 26 2
M  V30 29 1 27 2
M  V30 30 1 28 3
M  V30 31 1 29 3
M  V30 32 1 30 3
M  V30 33 1 31 4
M  V30 34 1 32 4
M  V30 35 1 33 4
M  V30 36 1 6 34 CFG=3
M  V30 37 1 35 7
M  V30 38 1 36 7
M  V30 39 1 8 37 CFG=1
M  V30 40 1 38 9
M  V30 41 1 39 9
M  V30 42 1 40 9
M  V30 43 1 12 41 CFG=3
M  V30 44 1 42 13
M  V30 45 1 43 13
M  V30 46 1 44 14
M  V30 47 1 45 14
M  V30 48 1 15 46 CFG=1
M  V30 49 1 47 16
M  V30 50 1 48 16
M  V30 51 1 49 16
M  V30 52 1 50 17
M  V30 53 1 51 17
M  V30 54 1 52 18
M  V30 55 1 53 18
M  V30 56 1 54 20
M  V30 57 1 55 20
M  V30 58 1 21 56 CFG=3
M  V30 59 1 57 22
M  V30 60 1 58 22
M  V30 61 1 59 24
M  V30 62 1 60 24
M  V30 63 1 23 61 CFG=3
M  V30 END BOND
M  V30 END CTAB
M  END
>  <i_epik_Tot_Q>  (1) 
1

>  <i_epik_Tot_abs_Q>  (1) 
1

>  <i_i_glide_confnum>  (1) 
122

>  <i_i_glide_lignum>  (1) 
24

>  <i_i_glide_posenum>  (1) 
130

>  <i_i_glide_rotatable_bonds>  (1) 
6

>  <i_lp_mmshare_version>  (1) 
72125

>  <i_m_source_file_index>  (1) 
3

>  <i_f3d_flags>  (1) 
0

>  <num_sample>  (1) 
50

>  <b_lp_Chiralities_Consistent>  (1) 
1

>  <r_epik_Charging_Adjusted_Penalty>  (1) 
0.0011657924221308697

>  <r_epik_Ionization_Penalty>  (1) 
0.0011657924221308697

>  <r_epik_Ionization_Penalty_Charging>  (1) 
0.0011657924221308697

>  <r_epik_Ionization_Penalty_Neutral>  (1) 
0

>  <r_epik_State_Penalty>  (1) 
-0

>  <r_glide_ring_energy>  (1) 
0

>  <r_i_docking_score>  (1) 
-5.9787413644247946

>  <r_i_glide_ecoul>  (1) 
-1.943868108020959

>  <r_i_glide_eff_state_penalty>  (1) 
-0

>  <r_i_glide_einternal>  (1) 
2.8017896386810133

>  <r_i_glide_emodel>  (1) 
-40.925358252082148

>  <r_i_glide_emodel_strain>  (1) 
0.86846951118515392

>  <r_i_glide_energy>  (1) 
-28.389432076192293

>  <r_i_glide_erotb>  (1) 
0.84713914833173298

>  <r_i_glide_esite>  (1) 
-0.057845068537564708

>  <r_i_glide_evdw>  (1) 
-26.445563968171335

>  <r_i_glide_gscore>  (1) 
-5.9787413644247946

>  <r_i_glide_gscore_strain>  (1) 
0

>  <r_i_glide_hbond>  (1) 
0

>  <r_i_glide_ligand_efficiency>  (1) 
-0.24911422351769977

>  <r_i_glide_ligand_efficiency_ln>  (1) 
-1.4309871550714055

>  <r_i_glide_ligand_efficiency_sa>  (1) 
-0.71856976365173242

>  <r_i_glide_lipo>  (1) 
-2.5489224054550941

>  <r_i_glide_metal>  (1) 
-0

>  <r_i_glide_rewards>  (1) 
-2.6052546241521575

>  <r_lp_Energy>  (1) 
47.634619999999998

>  <r_lp_tautomer_probability>  (1) 
1

>  <s_epik_Chemistry_Notes>  (1) 
This compound has an imine and may undergo hydrolysis.

>  <s_epik_cmdline>  (1) 
J2VwaWtfcHl0aG9uJywgJy1waHQnLCAnMS4wJywgJy1waCcsICc3LjQnLCAnLXRuJywgJzgnLCAnLW1hJywgJzUwMCcsICctaW1hZScsICc8aW5maWxlLm1hZT4nLCAnLW9tYWUnLCAnPG91dGZpbGUubWFlPic=

>  <s_epik_input>  (1) 
W0NIM11bQ0BIXTFbQ0gyXVtDSDJdW0NIMl1bQ0gyXU4xW0NIMl1bQ0gyXVtDSDJdW0NASF0yW0NAQEhdKFtDQEBIXTIzKVtDQEBIXShbQ0gyXVtDSDNdKVtDQEhdKFtDSDNdKS9DKFtDSDJdMyk9TlxDKD1PKVtDSDNd

>  <s_glide_docking_method>  (1) 
confgen

>  <s_i_glide_gridfile>  (1) 
gpcr_drd2_6luq_protein_autoprepared_prepared

>  <s_lp_Force_Field>  (1) 
S-OPLS

>  <s_lp_Variant>  (1) 
DiffSBDD_2-4

>  <s_m_source_file>  (1) 
generated_generic_title2_ligand_DiffSBDD_2026-06-23_prepared.sdf

>  <GenAI_Model>  (1) 
DiffSBDD

>  <Protein>  (1) 
generic_title2

$$$$
DiffSBDD_37
     RDKit          3D

  0  0  0  0  0  0  0  0  0  0999 V3000
M  V30 BEGIN CTAB
M  V30 COUNTS 80 85 0 0 1
M  V30 BEGIN ATOM
M  V30 1 C 9.491859 5.938016 -11.104649 0 CFG=1
M  V30 2 O 11.775414 10.703092 -6.229109 0
M  V30 3 F 9.256904 4.423062 -18.521085 0
M  V30 4 C 9.303595 6.460334 -7.278597 0
M  V30 5 C 7.719427 8.170361 -12.248453 0
M  V30 6 O 10.636499 7.990216 -10.647400 0 CHG=-1
M  V30 7 C 10.575445 7.000962 -11.408582 0
M  V30 8 C 6.754722 5.526915 -17.617716 0
M  V30 9 C 7.864843 5.301051 -9.254936 0
M  V30 10 O 8.287772 7.055163 -12.942536 0
M  V30 11 C 9.090270 3.364467 -12.523170 0
M  V30 12 C 10.856354 7.147749 -5.308847 0
M  V30 13 F 6.208985 5.409786 -21.807298 0
M  V30 14 C 11.679420 8.756251 -7.656067 0
M  V30 15 C 9.132524 5.589173 -8.528035 0 CFG=2
M  V30 16 C 5.568820 6.067787 -15.491037 0
M  V30 17 O 8.572813 2.240343 -13.186993 0
M  V30 18 C 5.853779 4.585818 -13.415468 0
M  V30 19 C 7.226863 2.548214 -13.443113 0
M  V30 20 C 11.763139 7.222561 -7.653303 0
M  V30 21 C 11.869598 9.303810 -6.235214 0 CFG=2
M  V30 22 C 6.427201 5.447705 -20.482269 0
M  V30 23 C 6.384039 6.790229 -19.786428 0
M  V30 24 O 9.777049 4.390226 -8.759762 0
M  V30 25 C 6.864948 5.484878 -16.084563 0 CFG=1
M  V30 26 C 6.928195 4.192133 -18.347593 0 CFG=1
M  V30 27 O 11.322806 6.790226 -12.385323 0
M  V30 28 N 8.851577 6.244863 -9.795614 0 CFG=1 CHG=1
M  V30 29 C 8.377339 5.832511 -12.213523 0 CFG=1
M  V30 30 C 8.506992 4.616981 -13.213608 0 CFG=2
M  V30 31 C 5.527140 5.966772 -13.973803 0
M  V30 32 C 6.668794 4.294676 -19.842083 0
M  V30 33 C 10.749055 6.539953 -6.725785 0 CFG=2
M  V30 34 C 8.309888 3.598530 -18.070693 0 CFG=2
M  V30 35 C 6.511306 6.676365 -18.277481 0
M  V30 36 S 8.575407 3.271720 -16.311764 0
M  V30 37 C 10.818896 8.690017 -5.298938 0
M  V30 38 C 7.186363 4.086330 -15.472640 0 CFG=1
M  V30 39 C 7.213645 4.028966 -13.901723 0 CFG=2
M  V30 40 H 10.050178 5.016360 -11.027382 0
M  V30 41 H 11.869105 11.014489 -5.343001 0
M  V30 42 H 8.918470 7.461345 -7.475424 0
M  V30 43 H 8.658345 6.041542 -6.506375 0
M  V30 44 H 7.775525 9.041207 -12.896697 0
M  V30 45 H 6.675108 8.005657 -11.984988 0
M  V30 46 H 8.231023 8.435662 -11.329009 0
M  V30 47 H 7.737760 4.413461 -9.872277 0
M  V30 48 H 6.975412 5.741401 -8.859217 0
M  V30 49 H 10.175404 3.355492 -12.534627 0
M  V30 50 H 8.773576 3.287161 -11.486899 0
M  V30 51 H 10.077558 6.735773 -4.670457 0
M  V30 52 H 11.792054 6.822641 -4.855113 0
M  V30 53 H 10.714584 9.068048 -8.056288 0
M  V30 54 H 12.437791 9.161955 -8.325572 0
M  V30 55 H 4.700901 5.590232 -15.932201 0
M  V30 56 H 5.470303 7.120531 -15.754410 0
M  V30 57 H 5.056236 3.914248 -13.732399 0
M  V30 58 H 5.775671 4.583572 -12.328240 0
M  V30 59 H 6.798524 1.851805 -14.164667 0
M  V30 60 H 6.673176 2.412182 -12.512466 0
M  V30 61 H 12.739547 6.953966 -7.277386 0
M  V30 62 H 11.708860 6.813926 -8.658547 0
M  V30 63 H 12.875921 9.117432 -5.871245 0
M  V30 64 H 5.444402 7.287014 -20.028461 0
M  V30 65 H 7.192351 7.416866 -20.164675 0
M  V30 66 H 10.697662 4.482764 -8.554501 0
M  V30 67 H 7.689569 6.143906 -15.807506 0
M  V30 68 H 6.175558 3.495262 -17.985282 0
M  V30 69 H 7.423251 5.723906 -11.711508 0
M  V30 70 H 9.217088 4.907211 -13.988708 0
M  V30 71 H 4.575414 6.259524 -13.585006 0
M  V30 72 H 6.178285 6.725164 -13.601116 0
M  V30 73 H 6.683886 3.369960 -20.399273 0
M  V30 74 H 11.091808 5.515450 -6.630983 0
M  V30 75 H 8.444880 2.662064 -18.613540 0
M  V30 76 H 6.393372 7.590193 -17.719672 0
M  V30 77 H 9.826582 9.017022 -5.607196 0
M  V30 78 H 10.975539 9.061827 -4.286741 0
M  V30 79 H 6.381286 3.407580 -15.693976 0
M  V30 80 H 8.415723 7.166526 -9.726321 0
M  V30 END ATOM
M  V30 BEGIN BOND
M  V30 1 1 7 1
M  V30 2 1 7 6
M  V30 3 1 10 5
M  V30 4 1 15 4
M  V30 5 1 15 9
M  V30 6 1 17 11
M  V30 7 1 19 17
M  V30 8 1 20 14
M  V30 9 1 21 2
M  V30 10 1 21 14
M  V30 11 1 22 13
M  V30 12 1 23 22
M  V30 13 1 15 24 CFG=3
M  V30 14 1 25 8
M  V30 15 1 25 16
M  V30 16 1 26 8
M  V30 17 2 27 7
M  V30 18 1 28 1
M  V30 19 1 28 9
M  V30 20 1 28 15
M  V30 21 1 29 1
M  V30 22 1 29 10
M  V30 23 1 30 11
M  V30 24 1 30 29
M  V30 25 1 31 16
M  V30 26 1 31 18
M  V30 27 2 32 22
M  V30 28 1 32 26
M  V30 29 1 33 4
M  V30 30 1 33 12
M  V30 31 1 33 20
M  V30 32 1 34 3
M  V30 33 1 34 26
M  V30 34 2 35 8
M  V30 35 1 35 23
M  V30 36 1 36 34
M  V30 37 1 37 12
M  V30 38 1 37 21
M  V30 39 1 38 25
M  V30 40 1 38 36
M  V30 41 1 39 18 CFG=1
M  V30 42 1 39 19
M  V30 43 1 39 30
M  V30 44 1 39 38
M  V30 45 1 1 40 CFG=1
M  V30 46 1 41 2
M  V30 47 1 42 4
M  V30 48 1 43 4
M  V30 49 1 44 5
M  V30 50 1 45 5
M  V30 51 1 46 5
M  V30 52 1 47 9
M  V30 53 1 48 9
M  V30 54 1 49 11
M  V30 55 1 50 11
M  V30 56 1 51 12
M  V30 57 1 52 12
M  V30 58 1 53 14
M  V30 59 1 54 14
M  V30 60 1 55 16
M  V30 61 1 56 16
M  V30 62 1 57 18
M  V30 63 1 58 18
M  V30 64 1 59 19
M  V30 65 1 60 19
M  V30 66 1 61 20
M  V30 67 1 62 20
M  V30 68 1 21 63 CFG=1
M  V30 69 1 64 23
M  V30 70 1 65 23
M  V30 71 1 66 24
M  V30 72 1 25 67 CFG=3
M  V30 73 1 26 68 CFG=1
M  V30 74 1 29 69 CFG=1
M  V30 75 1 30 70 CFG=3
M  V30 76 1 71 31
M  V30 77 1 72 31
M  V30 78 1 73 32
M  V30 79 1 33 74 CFG=1
M  V30 80 1 34 75 CFG=3
M  V30 81 1 76 35
M  V30 82 1 77 37
M  V30 83 1 78 37
M  V30 84 1 38 79 CFG=3
M  V30 85 1 28 80 CFG=1
M  V30 END BOND
M  V30 END CTAB
M  END
>  <i_epik_Tot_Q>  (1) 
0

>  <i_epik_Tot_abs_Q>  (1) 
2

>  <i_i_glide_confnum>  (1) 
261

>  <i_i_glide_lignum>  (1) 
101

>  <i_i_glide_posenum>  (1) 
149

>  <i_i_glide_rotatable_bonds>  (1) 
9

>  <i_lp_mmshare_version>  (1) 
72125

>  <i_m_source_file_index>  (1) 
38

>  <i_f3d_flags>  (1) 
0

>  <num_sample>  (1) 
50

>  <b_lp_Chiralities_Consistent>  (1) 
1

>  <r_epik_Charging_Adjusted_Penalty>  (1) 
0.53807329711462948

>  <r_epik_Ionization_Penalty>  (1) 
0.26903764201212299

>  <r_epik_Ionization_Penalty_Charging>  (1) 
0.26903696022575102

>  <r_epik_Ionization_Penalty_Neutral>  (1) 
6.8178637198181737e-07

>  <r_epik_State_Penalty>  (1) 
0.26903633688887846

>  <r_glide_ring_energy>  (1) 
2.4632222799601484

>  <r_i_docking_score>  (1) 
-5.9721866312360916

>  <r_i_glide_ecoul>  (1) 
-7.8350202962632398

>  <r_i_glide_eff_state_penalty>  (1) 
0.26903633688887846

>  <r_i_glide_einternal>  (1) 
13.637222425356279

>  <r_i_glide_emodel>  (1) 
-21.610108717214619

>  <r_i_glide_emodel_strain>  (1) 
2.7274372316590956

>  <r_i_glide_energy>  (1) 
-25.001202843928326

>  <r_i_glide_erotb>  (1) 
0.23153238063810569

>  <r_i_glide_esite>  (1) 
-0.18374452592882271

>  <r_i_glide_evdw>  (1) 
-17.166182547665088

>  <r_i_glide_gscore>  (1) 
-6.24122296812497

>  <r_i_glide_gscore_strain>  (1) 
0

>  <r_i_glide_hbond>  (1) 
-0.16047794939294113

>  <r_i_glide_ligand_efficiency>  (1) 
-0.15313299054451518

>  <r_i_glide_ligand_efficiency_ln>  (1) 
-1.2806063443360916

>  <r_i_glide_ligand_efficiency_sa>  (1) 
-0.51930634983754009

>  <r_i_glide_lipo>  (1) 
-3.2128608564658405

>  <r_i_glide_metal>  (1) 
-0

>  <r_i_glide_rewards>  (1) 
-0.88210984515273039

>  <r_lp_Energy>  (1) 
30.214154999999998

>  <s_epik_cmdline>  (1) 
J2VwaWtfcHl0aG9uJywgJy1waHQnLCAnMS4wJywgJy1waCcsICc3LjQnLCAnLXRuJywgJzgnLCAnLW1hJywgJzUwMCcsICctaW1hZScsICc8aW5maWxlLm1hZT4nLCAnLW9tYWUnLCAnPG91dGZpbGUubWFlPic=

>  <s_epik_input>  (1) 
W09IXVtDQEBIXTFbQ0gyXVtDSDJdW0NAQEhdKFtDSDJdW0NIMl0xKVtDSDJdW0NAQF0yKFtPSF0pW0NIMl1OMltDQEhdKEMoPU8pW09IXSlbQ0BASF0oT1tDSDNdKVtDQEhdM1tDSDJdT1tDSDJdW0NAXTM0W0NASF01W0NASF0oW0NIMl1bQ0gyXVtDSDJdNClDPTZbQ0BIXShbQ0BASF0oRilTNSlbQ0hdPUMoRilbQ0gyXVtDSF02

>  <s_glide_docking_method>  (1) 
confgen

>  <s_i_glide_gridfile>  (1) 
gpcr_drd2_6luq_protein_autoprepared_prepared

>  <s_lp_Force_Field>  (1) 
S-OPLS

>  <s_lp_Variant>  (1) 
DiffSBDD_37-2

>  <s_m_source_file>  (1) 
generated_generic_title2_ligand_DiffSBDD_2026-06-23_prepared.sdf

>  <GenAI_Model>  (1) 
DiffSBDD

>  <Protein>  (1) 
generic_title2

$$$$
DiffSBDD_9
     RDKit          3D

  0  0  0  0  0  0  0  0  0  0999 V3000
M  V30 BEGIN CTAB
M  V30 COUNTS 77 78 0 0 1
M  V30 BEGIN ATOM
M  V30 1 C 10.242020 8.442239 -9.123001 0
M  V30 2 F 8.681661 -1.588726 -18.926341 0
M  V30 3 C 7.460027 3.020401 -15.645544 0 CFG=2
M  V30 4 O 8.205805 -0.160953 -17.259596 0
M  V30 5 F 10.162621 4.289018 -16.644217 0
M  V30 6 C 7.467752 5.274960 -14.226238 0 CFG=2
M  V30 7 O 12.101102 7.539519 -3.643621 0
M  V30 8 C 9.381452 5.885980 -11.724895 0
M  V30 9 C 7.389112 4.598183 -12.848341 0 CFG=2
M  V30 10 F 8.651312 0.569072 -19.376099 0
M  V30 11 O 10.202578 5.990603 -12.633669 0
M  V30 12 C 12.179375 8.708426 -4.019868 0
M  V30 13 C 6.321323 0.117792 -15.780969 0
M  V30 14 C 7.611112 2.644941 -17.141680 0
M  V30 15 O 6.115129 -2.140315 -17.731042 0
M  V30 16 F 10.704077 0.949704 -17.592798 0
M  V30 17 C 11.376410 7.906628 -8.241276 0
M  V30 18 C 10.242433 7.862979 -10.553261 0
M  V30 19 F 6.224732 -0.668607 -19.448581 0
M  V30 20 O 12.554159 8.015668 -8.577507 0
M  V30 21 C 8.907348 -0.353075 -18.416923 0
M  V30 22 N 9.337166 6.728547 -10.683353 0
M  V30 23 C 5.947790 -0.795395 -18.129399 0
M  V30 24 C 6.057864 5.800893 -14.633706 0
M  V30 25 O 8.510636 5.589781 -17.415099 0
M  V30 26 F 4.642513 -0.459352 -17.980947 0
M  V30 27 C 6.803472 0.179208 -17.253151 0 CFG=2
M  V30 28 C 8.235640 4.340489 -15.224646 0 CFG=2
M  V30 29 C 7.800309 1.872813 -14.681687 0
M  V30 30 O 7.052457 5.417507 -11.721726 0
M  V30 31 C 9.143055 5.093747 -16.260294 0 CFG=1
M  V30 32 C 5.661797 7.000375 -13.749391 0
M  V30 33 C 5.888648 6.201427 -16.105172 0
M  V30 34 C 11.376301 9.207407 -5.234547 0
M  V30 35 C 8.352459 4.807633 -11.693995 0 CFG=2
M  V30 36 C 7.306259 0.620031 -14.744650 0
M  V30 37 C 10.404964 -0.243698 -18.103556 0
M  V30 38 C 10.390372 8.201030 -5.887116 0
M  V30 39 C 6.618578 1.636102 -17.738298 0
M  V30 40 C 10.986492 7.231964 -6.924925 0
M  V30 41 H 10.375321 9.523223 -9.183734 0
M  V30 42 H 9.276928 8.273419 -8.644358 0
M  V30 43 H 6.409018 3.211003 -15.468576 0
M  V30 44 H 8.091211 6.161259 -14.120237 0
M  V30 45 H 6.851695 3.653597 -12.844283 0
M  V30 46 H 12.809810 9.454926 -3.535027 0
M  V30 47 H 5.365178 0.622973 -15.648262 0
M  V30 48 H 6.125681 -0.915618 -15.496500 0
M  V30 49 H 8.637658 2.346413 -17.344955 0
M  V30 50 H 7.428928 3.526215 -17.744338 0
M  V30 51 H 6.780935 -2.180751 -17.061517 0
M  V30 52 H 11.254170 7.595649 -10.867000 0
M  V30 53 H 9.885264 8.613948 -11.255141 0
M  V30 54 H 8.613033 6.613936 -9.983178 0
M  V30 55 H 5.336661 5.005352 -14.446162 0
M  V30 56 H 9.073565 5.402674 -18.150286 0
M  V30 57 H 9.043633 3.994265 -14.584213 0
M  V30 58 H 8.497210 2.106754 -13.890519 0
M  V30 59 H 9.589412 5.971522 -15.788176 0
M  V30 60 H 6.531869 7.586983 -13.463370 0
M  V30 61 H 4.977026 7.680286 -14.253706 0
M  V30 62 H 5.182364 6.672715 -12.827435 0
M  V30 63 H 4.864382 6.508866 -16.312320 0
M  V30 64 H 6.537230 7.035674 -16.369295 0
M  V30 65 H 6.095319 5.368647 -16.773825 0
M  V30 66 H 12.069080 9.595090 -5.981713 0
M  V30 67 H 10.806933 10.068234 -4.884209 0
M  V30 68 H 8.464963 4.005150 -10.967074 0
M  V30 69 H 7.621460 -0.102621 -14.004360 0
M  V30 70 H 10.729862 -0.998559 -17.387271 0
M  V30 71 H 10.995969 -0.340563 -19.012453 0
M  V30 72 H 9.578562 8.765486 -6.348018 0
M  V30 73 H 9.901143 7.592702 -5.132014 0
M  V30 74 H 6.711851 1.687099 -18.822192 0
M  V30 75 H 5.597890 1.976023 -17.578446 0
M  V30 76 H 10.253831 6.460531 -7.162369 0
M  V30 77 H 11.847533 6.712122 -6.505429 0
M  V30 END ATOM
M  V30 BEGIN BOND
M  V30 1 1 9 6
M  V30 2 2 11 8
M  V30 3 2 12 7
M  V30 4 1 14 3
M  V30 5 1 17 1
M  V30 6 1 18 1
M  V30 7 2 20 17
M  V30 8 1 21 2
M  V30 9 1 21 4
M  V30 10 1 21 10
M  V30 11 1 22 8
M  V30 12 1 22 18
M  V30 13 1 23 15
M  V30 14 1 23 19
M  V30 15 1 24 6
M  V30 16 1 26 23
M  V30 17 1 27 4 CFG=1
M  V30 18 1 27 13
M  V30 19 1 27 23
M  V30 20 1 28 3
M  V30 21 1 28 6
M  V30 22 1 29 3
M  V30 23 1 30 9
M  V30 24 1 31 5
M  V30 25 1 31 25
M  V30 26 1 31 28
M  V30 27 1 32 24
M  V30 28 1 33 24
M  V30 29 1 34 12
M  V30 30 1 35 8
M  V30 31 1 35 9
M  V30 32 1 35 30
M  V30 33 1 36 13
M  V30 34 2 36 29
M  V30 35 1 37 16
M  V30 36 1 37 21
M  V30 37 1 38 34
M  V30 38 1 39 14
M  V30 39 1 39 27
M  V30 40 1 40 17
M  V30 41 1 40 38
M  V30 42 1 41 1
M  V30 43 1 42 1
M  V30 44 1 3 43 CFG=3
M  V30 45 1 6 44 CFG=1
M  V30 46 1 9 45 CFG=3
M  V30 47 1 46 12
M  V30 48 1 47 13
M  V30 49 1 48 13
M  V30 50 1 49 14
M  V30 51 1 50 14
M  V30 52 1 51 15
M  V30 53 1 52 18
M  V30 54 1 53 18
M  V30 55 1 54 22
M  V30 56 1 55 24
M  V30 57 1 56 25
M  V30 58 1 28 57 CFG=1
M  V30 59 1 58 29
M  V30 60 1 31 59 CFG=1
M  V30 61 1 60 32
M  V30 62 1 61 32
M  V30 63 1 62 32
M  V30 64 1 63 33
M  V30 65 1 64 33
M  V30 66 1 65 33
M  V30 67 1 66 34
M  V30 68 1 67 34
M  V30 69 1 35 68 CFG=1
M  V30 70 1 69 36
M  V30 71 1 70 37
M  V30 72 1 71 37
M  V30 73 1 72 38
M  V30 74 1 73 38
M  V30 75 1 74 39
M  V30 76 1 75 39
M  V30 77 1 76 40
M  V30 78 1 77 40
M  V30 END BOND
M  V30 END CTAB
M  END
>  <i_epik_Tot_Q>  (1) 
0

>  <i_epik_Tot_abs_Q>  (1) 
0

>  <i_i_glide_confnum>  (1) 
2932

>  <i_i_glide_lignum>  (1) 
44

>  <i_i_glide_posenum>  (1) 
12

>  <i_i_glide_rotatable_bonds>  (1) 
20

>  <i_lp_mmshare_version>  (1) 
72125

>  <i_m_source_file_index>  (1) 
10

>  <i_f3d_flags>  (1) 
0

>  <num_sample>  (1) 
50

>  <b_lp_Chiralities_Consistent>  (1) 
1

>  <r_epik_Charging_Adjusted_Penalty>  (1) 
0.024791601223723252

>  <r_epik_Ionization_Penalty>  (1) 
0.024829857689501161

>  <r_epik_Ionization_Penalty_Charging>  (1) 
0

>  <r_epik_Ionization_Penalty_Neutral>  (1) 
0.024829857689501161

>  <r_epik_State_Penalty>  (1) 
0.024791601223723252

>  <r_glide_ring_energy>  (1) 
0

>  <r_i_docking_score>  (1) 
-5.9611322073179958

>  <r_i_glide_ecoul>  (1) 
-1.1631722202517021

>  <r_i_glide_eff_state_penalty>  (1) 
0.024791601223723252

>  <r_i_glide_einternal>  (1) 
16.625537120713695

>  <r_i_glide_emodel>  (1) 
-49.225761865316912

>  <r_i_glide_emodel_strain>  (1) 
3.0669805117952365

>  <r_i_glide_energy>  (1) 
-44.42938927775257

>  <r_i_glide_erotb>  (1) 
0.79596426883134463

>  <r_i_glide_esite>  (1) 
-0.091634265433897702

>  <r_i_glide_evdw>  (1) 
-43.266217057500867

>  <r_i_glide_gscore>  (1) 
-5.9859238085417186

>  <r_i_glide_gscore_strain>  (1) 
0

>  <r_i_glide_hbond>  (1) 
-0.084168572326878327

>  <r_i_glide_ligand_efficiency>  (1) 
-0.14902830518294991

>  <r_i_glide_ligand_efficiency_ln>  (1) 
-1.2713340715312715

>  <r_i_glide_ligand_efficiency_sa>  (1) 
-0.50966963447367697

>  <r_i_glide_lipo>  (1) 
-2.5293710551568962

>  <r_i_glide_metal>  (1) 
-0

>  <r_i_glide_rewards>  (1) 
-1.7389274985425911

>  <r_lp_Energy>  (1) 
20.029204999999997

>  <r_lp_tautomer_probability>  (1) 
0.99989996500775002

>  <s_epik_cmdline>  (1) 
J2VwaWtfcHl0aG9uJywgJy1waHQnLCAnMS4wJywgJy1waCcsICc3LjQnLCAnLXRuJywgJzgnLCAnLW1hJywgJzUwMCcsICctaW1hZScsICc8aW5maWxlLm1hZT4nLCAnLW9tYWUnLCAnPG91dGZpbGUubWFlPic=

>  <s_epik_input>  (1) 
Tz1bQ0hdW0NIMl1bQ0gyXVtDSDJdQyg9TylbQ0gyXVtDSDJdW05IXUMoPU8pW0NASF0xT1tDQEhdMVtDQEhdKFtDSF0oW0NIM10pW0NIM10pW0NASF0oW0NAQEhdKEYpW09IXSlbQ0BASF0oW0NIMl1bQ0gyXTIpW0NIXT1bQ0hdW0NIMl1bQ0BdMihDKEYpKEYpW09IXSlPQyhGKShGKVtDSDJdRg==

>  <s_glide_docking_method>  (1) 
confgen

>  <s_i_glide_gridfile>  (1) 
gpcr_drd2_6luq_protein_autoprepared_prepared

>  <s_lp_Force_Field>  (1) 
S-OPLS

>  <s_lp_Variant>  (1) 
DiffSBDD_9-1

>  <s_m_source_file>  (1) 
generated_generic_title2_ligand_DiffSBDD_2026-06-23_prepared.sdf

>  <GenAI_Model>  (1) 
DiffSBDD

>  <Protein>  (1) 
generic_title2

$$$$
DiffSBDD_33
     RDKit          3D

  0  0  0  0  0  0  0  0  0  0999 V3000
M  V30 BEGIN CTAB
M  V30 COUNTS 57 63 0 0 1
M  V30 BEGIN ATOM
M  V30 1 C 7.619223 3.106799 -12.387455 0
M  V30 2 C 7.084639 4.988150 -13.989382 0
M  V30 3 C 8.775952 5.560904 -11.404325 0 CFG=2
M  V30 4 C 12.481742 8.451198 -8.144638 0
M  V30 5 C 6.771892 4.627048 -19.053118 0
M  V30 6 C 7.713984 7.236509 -12.772872 0
M  V30 7 C 7.074463 4.492387 -16.411012 0
M  V30 8 S 6.191607 6.903769 -15.870511 0
M  V30 9 C 7.583892 3.191252 -16.080475 0
M  V30 10 C 6.714218 5.116926 -17.719986 0
M  V30 11 C 9.453517 8.629086 -7.664181 0
M  V30 12 C 6.832132 5.398730 -15.306290 0
M  V30 13 C 6.338528 5.407954 -20.142684 0
M  V30 14 N 7.321424 5.380919 -11.517000 0
M  V30 15 C 5.757891 7.216382 -18.639143 0
M  V30 16 O 10.074233 6.903711 -6.108695 0
M  V30 17 C 9.320296 7.190088 -7.270520 0 CFG=2
M  V30 18 N 7.763219 2.824656 -14.785497 0
M  V30 19 C 6.191548 6.452220 -17.542699 0
M  V30 20 C 5.832506 6.695567 -19.934940 0
M  V30 21 N 9.375402 7.161746 -9.738550 0 CFG=1 CHG=1
M  V30 22 C 9.225911 5.714970 -9.952453 0
M  V30 23 C 9.061442 6.869312 -12.116094 0 CFG=1
M  V30 24 C 7.499780 3.671553 -13.784054 0
M  V30 25 C 10.121913 7.557551 -8.518945 0 CFG=1
M  V30 26 C 11.610014 7.266602 -8.564255 0
M  V30 27 C 6.892141 4.001826 -11.356485 0
M  V30 28 C 6.860424 5.940145 -12.789253 0 CFG=2
M  V30 29 C 9.650347 7.809126 -11.038659 0
M  V30 30 H 7.139238 2.126609 -12.390647 0
M  V30 31 H 8.659730 2.906352 -12.133405 0
M  V30 32 H 9.364650 4.796477 -11.904963 0
M  V30 33 H 13.536111 8.230475 -8.303734 0
M  V30 34 H 12.232419 9.328363 -8.740245 0
M  V30 35 H 12.343434 8.703918 -7.092607 0
M  V30 36 H 7.149059 3.631207 -19.232946 0
M  V30 37 H 7.203946 7.969406 -12.143613 0
M  V30 38 H 7.827839 7.695680 -13.753568 0
M  V30 39 H 7.794660 2.453961 -16.842209 0
M  V30 40 H 8.575750 9.132177 -8.058434 0
M  V30 41 H 10.065326 9.231001 -6.998259 0
M  V30 42 H 6.391193 5.008348 -21.144380 0
M  V30 43 H 5.369117 8.211809 -18.481642 0
M  V30 44 H 9.477998 6.855027 -5.374075 0
M  V30 45 H 8.366735 6.671677 -7.339102 0
M  V30 46 H 5.498911 7.286976 -20.775133 0
M  V30 47 H 10.175409 5.209303 -9.794880 0
M  V30 48 H 8.508810 5.290989 -9.248259 0
M  V30 49 H 9.809035 6.689421 -12.885829 0
M  V30 50 H 11.775296 6.410587 -7.912839 0
M  V30 51 H 11.901659 6.954136 -9.565490 0
M  V30 52 H 5.813433 3.947160 -11.508678 0
M  V30 53 H 7.053006 3.696928 -10.323191 0
M  V30 54 H 5.795405 6.171253 -12.731979 0
M  V30 55 H 9.188284 8.791278 -11.072301 0
M  V30 56 H 10.723769 7.927067 -11.187216 0
M  V30 57 H 8.400882 7.457329 -9.574915 0
M  V30 END ATOM
M  V30 BEGIN BOND
M  V30 1 2 9 7
M  V30 2 2 10 5
M  V30 3 1 10 7
M  V30 4 2 12 2
M  V30 5 1 12 7
M  V30 6 1 12 8
M  V30 7 1 13 5
M  V30 8 1 14 3
M  V30 9 1 17 11
M  V30 10 1 17 16
M  V30 11 1 18 9
M  V30 12 1 19 8
M  V30 13 1 19 10
M  V30 14 2 19 15
M  V30 15 2 20 13
M  V30 16 1 20 15
M  V30 17 1 22 3
M  V30 18 1 22 21
M  V30 19 1 23 3
M  V30 20 1 23 6
M  V30 21 1 24 1
M  V30 22 1 24 2
M  V30 23 2 24 18
M  V30 24 1 25 11
M  V30 25 1 25 17
M  V30 26 1 25 21
M  V30 27 1 26 4
M  V30 28 1 25 26 CFG=1
M  V30 29 1 27 1
M  V30 30 1 27 14
M  V30 31 1 28 2
M  V30 32 1 28 6
M  V30 33 1 28 14
M  V30 34 1 29 21
M  V30 35 1 29 23
M  V30 36 1 30 1
M  V30 37 1 31 1
M  V30 38 1 3 32 CFG=3
M  V30 39 1 33 4
M  V30 40 1 34 4
M  V30 41 1 35 4
M  V30 42 1 36 5
M  V30 43 1 37 6
M  V30 44 1 38 6
M  V30 45 1 39 9
M  V30 46 1 40 11
M  V30 47 1 41 11
M  V30 48 1 42 13
M  V30 49 1 43 15
M  V30 50 1 44 16
M  V30 51 1 17 45 CFG=3
M  V30 52 1 46 20
M  V30 53 1 47 22
M  V30 54 1 48 22
M  V30 55 1 23 49 CFG=3
M  V30 56 1 50 26
M  V30 57 1 51 26
M  V30 58 1 52 27
M  V30 59 1 53 27
M  V30 60 1 28 54 CFG=1
M  V30 61 1 55 29
M  V30 62 1 56 29
M  V30 63 1 21 57 CFG=1
M  V30 END BOND
M  V30 END CTAB
M  END
>  <i_epik_Tot_Q>  (1) 
1

>  <i_epik_Tot_abs_Q>  (1) 
1

>  <i_i_glide_confnum>  (1) 
2

>  <i_i_glide_lignum>  (1) 
96

>  <i_i_glide_posenum>  (1) 
393

>  <i_i_glide_rotatable_bonds>  (1) 
3

>  <i_lp_mmshare_version>  (1) 
72125

>  <i_m_source_file_index>  (1) 
34

>  <i_f3d_flags>  (1) 
0

>  <num_sample>  (1) 
50

>  <b_lp_Chiralities_Consistent>  (1) 
1

>  <r_epik_Charging_Adjusted_Penalty>  (1) 
0.0056247907503774904

>  <r_epik_Ionization_Penalty>  (1) 
0.066233849197789949

>  <r_epik_Ionization_Penalty_Charging>  (1) 
0.0056247907503774904

>  <r_epik_Ionization_Penalty_Neutral>  (1) 
0.060609058447412462

>  <r_epik_State_Penalty>  (1) 
-0

>  <r_glide_ring_energy>  (1) 
0

>  <r_i_docking_score>  (1) 
-5.9303483343038845

>  <r_i_glide_ecoul>  (1) 
-7.508226119812865

>  <r_i_glide_eff_state_penalty>  (1) 
-0

>  <r_i_glide_einternal>  (1) 
3.59823227674738

>  <r_i_glide_emodel>  (1) 
-40.008055439041009

>  <r_i_glide_emodel_strain>  (1) 
0.35043666323743139

>  <r_i_glide_energy>  (1) 
-35.06885616852059

>  <r_i_glide_erotb>  (1) 
0.11895510521466947

>  <r_i_glide_esite>  (1) 
-0.10000000000000001

>  <r_i_glide_evdw>  (1) 
-27.560630048707722

>  <r_i_glide_gscore>  (1) 
-5.9303483343038845

>  <r_i_glide_gscore_strain>  (1) 
0

>  <r_i_glide_hbond>  (1) 
-0.19591701980666737

>  <r_i_glide_ligand_efficiency>  (1) 
-0.2044947701484098

>  <r_i_glide_ligand_efficiency_ln>  (1) 
-1.3578993878970298

>  <r_i_glide_ligand_efficiency_sa>  (1) 
-0.62827272309171944

>  <r_i_glide_lipo>  (1) 
-1.9525483774745762

>  <r_i_glide_metal>  (1) 
-0

>  <r_i_glide_rewards>  (1) 
-1.296572621829994

>  <r_lp_Energy>  (1) 
35.548580999999999

>  <r_lp_tautomer_probability>  (1) 
1

>  <s_epik_cmdline>  (1) 
J2VwaWtfcHl0aG9uJywgJy1waHQnLCAnMS4wJywgJy1waCcsICc3LjQnLCAnLXRuJywgJzgnLCAnLW1hJywgJzUwMCcsICctaW1hZScsICc8aW5maWxlLm1hZT4nLCAnLW9tYWUnLCAnPG91dGZpbGUubWFlPic=

>  <s_epik_input>  (1) 
W09IXVtDQEhdMVtDSDJdW0NAXTEoW0NIMl1bQ0gzXSlOKFtDSDJdMilbQ0gyXVtDQEhdKFtDSDJdW0NAQEhdMzQpW0NAQEhdMk40W0NIMl1bQ0gyXWM1bltjSF1jKGM2YzM1KWM3YyhzNilbY0hdW2NIXVtjSF1bY0hdNw==

>  <s_glide_docking_method>  (1) 
confgen

>  <s_i_glide_gridfile>  (1) 
gpcr_drd2_6luq_protein_autoprepared_prepared

>  <s_lp_Force_Field>  (1) 
S-OPLS

>  <s_lp_Variant>  (1) 
DiffSBDD_33-2

>  <s_m_source_file>  (1) 
generated_generic_title2_ligand_DiffSBDD_2026-06-23_prepared.sdf

>  <GenAI_Model>  (1) 
DiffSBDD

>  <Protein>  (1) 
generic_title2

$$$$
DiffSBDD_3
     RDKit          3D

  0  0  0  0  0  0  0  0  0  0999 V3000
M  V30 BEGIN CTAB
M  V30 COUNTS 27 27 0 0 1
M  V30 BEGIN ATOM
M  V30 1 C 10.559960 7.996837 -9.073374 0
M  V30 2 C 9.598097 7.988779 -8.046820 0
M  V30 3 C 11.317181 8.787340 -6.540630 0
M  V30 4 C 6.197281 6.771183 -14.254894 0
M  V30 5 C 7.412680 6.010727 -12.118347 0
M  V30 6 N 12.253067 8.787087 -7.523976 0
M  V30 7 C 6.907959 5.626170 -13.518929 0
M  V30 8 Cl 11.777811 9.296837 -4.958782 0
M  V30 9 C 9.984425 8.389720 -6.763273 0
M  V30 10 N 8.975652 7.418656 -10.785025 0 CHG=1
M  V30 11 C 8.551557 7.040443 -12.140370 0
M  V30 12 C 10.213179 7.603219 -10.452781 0
M  V30 13 C 11.872936 8.393631 -8.761720 0
M  V30 14 H 8.585019 7.680985 -8.233229 0
M  V30 15 H 5.781746 6.422667 -15.200788 0
M  V30 16 H 5.375415 7.172580 -13.661134 0
M  V30 17 H 6.879683 7.590240 -14.482026 0
M  V30 18 H 7.759237 5.110200 -11.609423 0
M  V30 19 H 6.579009 6.390268 -11.525137 0
M  V30 20 H 7.736136 5.256109 -14.124638 0
M  V30 21 H 6.210791 4.793086 -13.420588 0
M  V30 22 H 9.267472 8.396957 -5.957379 0
M  V30 23 H 8.223293 7.963217 -12.619667 0
M  V30 24 H 9.416277 6.662079 -12.688460 0
M  V30 25 H 11.000919 7.484658 -11.188415 0
M  V30 26 H 12.637391 8.410983 -9.525440 0
M  V30 27 H 8.223926 7.588670 -10.082189 0
M  V30 END ATOM
M  V30 BEGIN BOND
M  V30 1 1 2 1
M  V30 2 2 6 3
M  V30 3 1 7 4
M  V30 4 1 7 5
M  V30 5 1 8 3
M  V30 6 2 9 2
M  V30 7 1 9 3
M  V30 8 1 11 5
M  V30 9 1 11 10
M  V30 10 1 12 1
M  V30 11 2 12 10
M  V30 12 2 13 1
M  V30 13 1 13 6
M  V30 14 1 14 2
M  V30 15 1 15 4
M  V30 16 1 16 4
M  V30 17 1 17 4
M  V30 18 1 18 5
M  V30 19 1 19 5
M  V30 20 1 20 7
M  V30 21 1 21 7
M  V30 22 1 22 9
M  V30 23 1 23 11
M  V30 24 1 24 11
M  V30 25 1 25 12
M  V30 26 1 26 13
M  V30 27 1 27 10
M  V30 END BOND
M  V30 END CTAB
M  END
>  <i_epik_Tot_Q>  (1) 
1

>  <i_epik_Tot_abs_Q>  (1) 
1

>  <i_i_glide_confnum>  (1) 
4

>  <i_i_glide_lignum>  (1) 
25

>  <i_i_glide_posenum>  (1) 
249

>  <i_i_glide_rotatable_bonds>  (1) 
4

>  <i_lp_mmshare_version>  (1) 
72125

>  <i_m_source_file_index>  (1) 
4

>  <i_f3d_flags>  (1) 
0

>  <num_sample>  (1) 
50

>  <b_lp_Chiralities_Consistent>  (1) 
1

>  <r_epik_Charging_Adjusted_Penalty>  (1) 
0.029699158874294952

>  <r_epik_Ionization_Penalty>  (1) 
0.014849585528506534

>  <r_epik_Ionization_Penalty_Charging>  (1) 
0.014849579437147471

>  <r_epik_Ionization_Penalty_Neutral>  (1) 
6.091359062829099e-09

>  <r_epik_State_Penalty>  (1) 
0.01484957943714748

>  <r_glide_ring_energy>  (1) 
0

>  <r_i_docking_score>  (1) 
-5.9110550611267367

>  <r_i_glide_ecoul>  (1) 
-9.3478627209034588

>  <r_i_glide_eff_state_penalty>  (1) 
0.01484957943714748

>  <r_i_glide_einternal>  (1) 
2.4043753468212214

>  <r_i_glide_emodel>  (1) 
-46.374816264702453

>  <r_i_glide_emodel_strain>  (1) 
0.02502330425829058

>  <r_i_glide_energy>  (1) 
-30.902820246128705

>  <r_i_glide_erotb>  (1) 
0.83262420793162661

>  <r_i_glide_esite>  (1) 
-0.15528517547171813

>  <r_i_glide_evdw>  (1) 
-21.554957525225245

>  <r_i_glide_gscore>  (1) 
-5.9259046405638838

>  <r_i_glide_gscore_strain>  (1) 
0

>  <r_i_glide_hbond>  (1) 
-0.17211810419534929

>  <r_i_glide_ligand_efficiency>  (1) 
-0.45469654316359515

>  <r_i_glide_ligand_efficiency_ln>  (1) 
-1.6581035152027437

>  <r_i_glide_ligand_efficiency_sa>  (1) 
-1.0691437543272801

>  <r_i_glide_lipo>  (1) 
-1.2649901935225709

>  <r_i_glide_metal>  (1) 
-0

>  <r_i_glide_rewards>  (1) 
-2.6862080909090906

>  <r_lp_Energy>  (1) 
19.410530999999999

>  <s_epik_Chemistry_Notes>  (1) 
This compound has an imine and may undergo hydrolysis.

>  <s_epik_cmdline>  (1) 
J2VwaWtfcHl0aG9uJywgJy1waHQnLCAnMS4wJywgJy1waCcsICc3LjQnLCAnLXRuJywgJzgnLCAnLW1hJywgJzUwMCcsICctaW1hZScsICc8aW5maWxlLm1hZT4nLCAnLW9tYWUnLCAnPG91dGZpbGUubWFlPic=

>  <s_epik_input>  (1) 
W2NIXTFuYyhDbClbY0hdW2NIXWMxXFtDSF09TlxbQ0gyXVtDSDJdW0NIMl1bQ0gzXQ==

>  <s_glide_docking_method>  (1) 
confgen

>  <s_i_glide_gridfile>  (1) 
gpcr_drd2_6luq_protein_autoprepared_prepared

>  <s_lp_Force_Field>  (1) 
S-OPLS

>  <s_lp_Variant>  (1) 
DiffSBDD_3-1

>  <s_m_source_file>  (1) 
generated_generic_title2_ligand_DiffSBDD_2026-06-23_prepared.sdf

>  <GenAI_Model>  (1) 
DiffSBDD

>  <Protein>  (1) 
generic_title2

$$$$
DiffSBDD_28
     RDKit          3D

  0  0  0  0  0  0  0  0  0  0999 V3000
M  V30 BEGIN CTAB
M  V30 COUNTS 79 86 0 0 1
M  V30 BEGIN ATOM
M  V30 1 F 6.584690 -0.112764 -20.784062 0
M  V30 2 C 10.291751 6.850000 -9.520824 0 CFG=1
M  V30 3 C 8.266088 6.365899 -12.611293 0 CFG=2
M  V30 4 C 9.987400 8.111933 -7.093659 0 CFG=2
M  V30 5 C 7.283998 1.765500 -14.257461 0 CFG=1
M  V30 6 C 10.175427 5.543774 -8.713538 0
M  V30 7 C 7.708246 4.350855 -13.845826 0 CFG=2
M  V30 8 C 7.863109 0.822844 -17.992958 0 CFG=1
M  V30 9 C 7.881889 7.816511 -12.305831 0
M  V30 10 C 7.229933 1.932775 -15.774106 0 CFG=1
M  V30 11 C 11.673913 8.552519 -9.226228 0 CFG=1
M  V30 12 C 6.538970 5.111134 -11.772622 0
M  V30 13 C 10.480396 7.961656 -8.514463 0 CFG=1
M  V30 14 O 12.841621 8.631185 -8.440202 0
M  V30 15 C 6.425662 1.073101 -20.090294 0 CFG=1
M  V30 16 C 7.460936 2.938632 -13.331436 0 CFG=1
M  V30 17 O 6.175914 2.371375 -13.568165 0
M  V30 18 N 7.184890 5.477080 -13.032925 0
M  V30 19 O 11.375372 8.178527 -5.144340 0
M  V30 20 C 5.922001 2.230839 -20.864501 0
M  V30 21 O 9.375499 8.790246 -8.199102 0
M  V30 22 C 7.776299 3.322432 -16.191245 0
M  V30 23 C 11.606138 7.366351 -10.183181 0
M  V30 24 N 9.090011 7.010394 -10.411106 0 CFG=1 CHG=1
M  V30 25 C 10.693645 8.988447 -6.086040 0
M  V30 26 N 8.328183 -0.535133 -18.357145 0 CHG=1
M  V30 27 C 7.264630 4.479843 -15.313790 0
M  V30 28 C 8.056840 -1.443707 -17.229473 0
M  V30 29 C 7.623403 -0.545454 -16.072469 0
M  V30 30 O 5.051929 2.960306 -20.392874 0
M  V30 31 C 7.627591 5.015205 -10.702220 0
M  V30 32 C 6.446883 1.081661 -18.569103 0
M  V30 33 O 7.213989 2.181497 -20.650257 0
M  V30 34 N 7.932751 0.833121 -16.503454 0 CFG=1 CHG=1
M  V30 35 C 8.913436 8.223324 -11.251788 0
M  V30 36 C 12.040896 8.941356 -4.151755 0
M  V30 37 C 8.790494 5.843803 -11.270130 0 CFG=1
M  V30 38 H 9.071229 6.390469 -13.344959 0
M  V30 39 H 9.347896 7.340444 -6.669960 0
M  V30 40 H 7.519477 0.785399 -13.854382 0
M  V30 41 H 10.976730 5.440825 -7.985249 0
M  V30 42 H 9.245247 5.517480 -8.143980 0
M  V30 43 H 10.173581 4.643753 -9.324465 0
M  V30 44 H 8.797284 4.411037 -13.866920 0
M  V30 45 H 8.560691 1.562296 -18.388897 0
M  V30 46 H 6.877406 7.885587 -11.888615 0
M  V30 47 H 7.907180 8.451425 -13.189195 0
M  V30 48 H 6.175638 1.875598 -16.030547 0
M  V30 49 H 11.478679 9.494727 -9.737110 0
M  V30 50 H 5.857311 5.914009 -11.488858 0
M  V30 51 H 5.914072 4.222099 -11.841745 0
M  V30 52 H 13.486724 9.106577 -8.949210 0
M  V30 53 H 7.921930 2.686897 -12.385008 0
M  V30 54 H 7.515001 3.536221 -17.227375 0
M  V30 55 H 8.865912 3.316123 -16.151307 0
M  V30 56 H 11.585195 7.606151 -11.242275 0
M  V30 57 H 12.498617 6.790537 -9.985035 0
M  V30 58 H 11.380226 9.671024 -6.585374 0
M  V30 59 H 9.948101 9.589891 -5.585063 0
M  V30 60 H 9.326927 -0.511833 -18.512807 0
M  V30 61 H 6.176083 4.533516 -15.360000 0
M  V30 62 H 7.631789 5.425027 -15.716086 0
M  V30 63 H 8.958591 -2.007882 -16.982755 0
M  V30 64 H 7.274421 -2.158672 -17.487831 0
M  V30 65 H 8.157649 -0.809000 -15.159809 0
M  V30 66 H 6.552515 -0.658887 -15.888752 0
M  V30 67 H 7.259264 5.384037 -9.743373 0
M  V30 68 H 7.948584 3.990307 -10.547183 0
M  V30 69 H 5.738921 0.331954 -18.212587 0
M  V30 70 H 6.064030 2.043339 -18.228914 0
M  V30 71 H 8.576532 9.080590 -10.667384 0
M  V30 72 H 9.811488 8.510435 -11.783498 0
M  V30 73 H 12.524529 8.271383 -3.440230 0
M  V30 74 H 12.810243 9.575776 -4.594696 0
M  V30 75 H 11.341239 9.571742 -3.600074 0
M  V30 76 H 9.673044 5.228082 -11.449477 0
M  V30 77 H 8.282079 7.117767 -9.789622 0
M  V30 78 H 7.877075 -0.861387 -19.202826 0
M  V30 79 H 8.909767 0.960414 -16.280504 0
M  V30 END ATOM
M  V30 BEGIN BOND
M  V30 1 1 2 6 CFG=1
M  V30 2 1 9 3
M  V30 3 1 10 5
M  V30 4 1 13 2
M  V30 5 1 13 4
M  V30 6 1 13 11
M  V30 7 1 14 11
M  V30 8 1 15 1 CFG=3
M  V30 9 1 16 5
M  V30 10 1 16 7
M  V30 11 1 17 5
M  V30 12 1 17 16
M  V30 13 1 18 3
M  V30 14 1 18 7
M  V30 15 1 18 12
M  V30 16 1 20 15
M  V30 17 1 21 4
M  V30 18 1 13 21 CFG=3
M  V30 19 1 22 10
M  V30 20 1 23 2
M  V30 21 1 23 11
M  V30 22 1 24 2
M  V30 23 1 25 4
M  V30 24 1 25 19
M  V30 25 1 26 8
M  V30 26 1 27 7
M  V30 27 1 27 22
M  V30 28 1 28 26
M  V30 29 1 29 28
M  V30 30 2 30 20
M  V30 31 1 31 12
M  V30 32 1 32 8
M  V30 33 1 32 15
M  V30 34 1 33 15
M  V30 35 1 33 20
M  V30 36 1 34 8
M  V30 37 1 34 10
M  V30 38 1 34 29
M  V30 39 1 35 9
M  V30 40 1 35 24
M  V30 41 1 36 19
M  V30 42 1 37 3
M  V30 43 1 37 24
M  V30 44 1 37 31
M  V30 45 1 3 38 CFG=3
M  V30 46 1 4 39 CFG=1
M  V30 47 1 5 40 CFG=3
M  V30 48 1 41 6
M  V30 49 1 42 6
M  V30 50 1 43 6
M  V30 51 1 7 44 CFG=3
M  V30 52 1 8 45 CFG=3
M  V30 53 1 46 9
M  V30 54 1 47 9
M  V30 55 1 10 48 CFG=3
M  V30 56 1 11 49 CFG=3
M  V30 57 1 50 12
M  V30 58 1 51 12
M  V30 59 1 52 14
M  V30 60 1 16 53 CFG=1
M  V30 61 1 54 22
M  V30 62 1 55 22
M  V30 63 1 56 23
M  V30 64 1 57 23
M  V30 65 1 58 25
M  V30 66 1 59 25
M  V30 67 1 60 26
M  V30 68 1 61 27
M  V30 69 1 62 27
M  V30 70 1 63 28
M  V30 71 1 64 28
M  V30 72 1 65 29
M  V30 73 1 66 29
M  V30 74 1 67 31
M  V30 75 1 68 31
M  V30 76 1 69 32
M  V30 77 1 70 32
M  V30 78 1 71 35
M  V30 79 1 72 35
M  V30 80 1 73 36
M  V30 81 1 74 36
M  V30 82 1 75 36
M  V30 83 1 37 76 CFG=3
M  V30 84 1 24 77 CFG=1
M  V30 85 1 78 26
M  V30 86 1 34 79 CFG=3
M  V30 END BOND
M  V30 END CTAB
M  END
>  <i_epik_Tot_Q>  (1) 
3

>  <i_epik_Tot_abs_Q>  (1) 
3

>  <i_i_glide_confnum>  (1) 
77

>  <i_i_glide_lignum>  (1) 
82

>  <i_i_glide_posenum>  (1) 
27

>  <i_i_glide_rotatable_bonds>  (1) 
8

>  <i_lp_mmshare_version>  (1) 
72125

>  <i_m_source_file_index>  (1) 
29

>  <i_f3d_flags>  (1) 
0

>  <num_sample>  (1) 
50

>  <b_lp_Chiralities_Consistent>  (1) 
1

>  <r_epik_Charging_Adjusted_Penalty>  (1) 
2.5479580004866769

>  <r_epik_Ionization_Penalty>  (1) 
1.853674345886815

>  <r_epik_Ionization_Penalty_Charging>  (1) 
1.8530809818743854

>  <r_epik_Ionization_Penalty_Neutral>  (1) 
0.00059336401242958479

>  <r_epik_State_Penalty>  (1) 
0.69487701861229134

>  <r_glide_ring_energy>  (1) 
0.81914574756084646

>  <r_i_docking_score>  (1) 
-5.9068202252806703

>  <r_i_glide_ecoul>  (1) 
-13.821270666195106

>  <r_i_glide_eff_state_penalty>  (1) 
0.69487701861229134

>  <r_i_glide_einternal>  (1) 
15.158719073406591

>  <r_i_glide_emodel>  (1) 
-57.203690773593777

>  <r_i_glide_emodel_strain>  (1) 
4.729475197843783

>  <r_i_glide_energy>  (1) 
-48.232136429797379

>  <r_i_glide_erotb>  (1) 
0.44698704239028575

>  <r_i_glide_esite>  (1) 
-0.10698848943328712

>  <r_i_glide_evdw>  (1) 
-34.410865763602274

>  <r_i_glide_gscore>  (1) 
-6.6016972438929615

>  <r_i_glide_gscore_strain>  (1) 
0.18236879946094575

>  <r_i_glide_hbond>  (1) 
-0.37918996505817126

>  <r_i_glide_ligand_efficiency>  (1) 
-0.15964378987245054

>  <r_i_glide_ligand_efficiency_ln>  (1) 
-1.281050831350256

>  <r_i_glide_ligand_efficiency_sa>  (1) 
-0.53196852509255477

>  <r_i_glide_lipo>  (1) 
-2.0247409524841853

>  <r_i_glide_metal>  (1) 
-0

>  <r_i_glide_rewards>  (1) 
-0.92639979065916955

>  <r_lp_Energy>  (1) 
63.850986999999996

>  <s_epik_Chemistry_Notes>  (1) 
This compound has an ester and may undergo hydrolysis at high or low pH. This compound contains an acetal/aminal-like group ( X-CH(R)-Y where X, Y are N, S, or O) that may be acid/base labile, releasing an aldehyde.

>  <s_epik_cmdline>  (1) 
J2VwaWtfcHl0aG9uJywgJy1waHQnLCAnMS4wJywgJy1waCcsICc3LjQnLCAnLXRuJywgJzgnLCAnLW1hJywgJzUwMCcsICctaW1hZScsICc8aW5maWxlLm1hZT4nLCAnLW9tYWUnLCAnPG91dGZpbGUubWFlPic=

>  <s_epik_input>  (1) 
Tz1DKE8xKUMxKEYpW0NIMl1bQ0BASF0yW05IXVtDSDJdW0NIMl1OMltDQEBIXTNbQ0gyXVtDSDJdW0NASF0oW0NAQEhdKE80KVtDQEhdMzQpTjVbQ0gyXVtDSDJdW0NAQEhdKFtDQEhdNTYpTihbQ0gyXVtDSDJdNilbQ0BAXShbQ0gzXSkoW0NIMl1bQ0BASF03W09IXSlbQ0BAXTc4W0NASF0oTzgpW0NIMl1PW0NIM10=

>  <s_glide_docking_method>  (1) 
confgen

>  <s_i_glide_gridfile>  (1) 
gpcr_drd2_6luq_protein_autoprepared_prepared

>  <s_lp_Force_Field>  (1) 
S-OPLS

>  <s_lp_Variant>  (1) 
DiffSBDD_28-5

>  <s_m_source_file>  (1) 
generated_generic_title2_ligand_DiffSBDD_2026-06-23_prepared.sdf

>  <GenAI_Model>  (1) 
DiffSBDD

>  <Protein>  (1) 
generic_title2

$$$$
DiffSBDD_2
     RDKit          3D

  0  0  0  0  0  0  0  0  0  0999 V3000
M  V30 BEGIN CTAB
M  V30 COUNTS 61 63 0 0 1
M  V30 BEGIN ATOM
M  V30 1 C 11.927192 9.085645 -5.903739 0 CFG=1
M  V30 2 C 9.775671 7.916022 -10.226472 0
M  V30 3 C 11.590933 10.540682 -6.197580 0
M  V30 4 C 5.679263 7.216255 -15.188856 0
M  V30 5 N 8.076318 3.176964 -13.117855 0
M  V30 6 C 9.004312 6.950579 -11.100181 0 CFG=2
M  V30 7 C 11.206937 6.716081 -6.138427 0
M  V30 8 C 9.571492 6.579125 -12.450794 0 CFG=2
M  V30 9 C 7.270823 0.890117 -13.289295 0
M  V30 10 C 8.126030 4.455384 -12.974644 0
M  V30 11 C 6.945025 2.376967 -13.190663 0
M  V30 12 C 7.086024 6.896617 -13.021527 0 CFG=1
M  V30 13 C 10.062408 7.357218 -8.828431 0
M  V30 14 C 11.109817 8.205194 -8.087712 0
M  V30 15 C 8.356497 7.442566 -12.385089 0 CFG=1
M  V30 16 C 6.137020 5.136174 -11.429128 0
M  V30 17 C 11.047724 6.600731 -4.625108 0
M  V30 18 C 11.995553 7.519866 -3.859751 0
M  V30 19 O 5.775413 2.749537 -13.185058 0
M  V30 20 C 7.058459 7.282171 -14.521459 0
M  V30 21 C 6.868806 5.367728 -12.777115 0 CFG=2
M  V30 22 C 11.886634 8.950127 -4.362831 0
M  V30 23 N 11.017748 8.116847 -6.604326 0 CFG=2 CHG=1
M  V30 24 C 9.470388 5.176320 -13.004392 0
M  V30 25 H 12.937347 8.937177 -6.279214 0
M  V30 26 H 10.709068 8.182419 -10.723037 0
M  V30 27 H 9.193081 8.833020 -10.132839 0
M  V30 28 H 12.175416 11.198732 -5.585076 0
M  V30 29 H 11.775410 10.843978 -7.213510 0
M  V30 30 H 10.575436 10.772844 -5.941366 0
M  V30 31 H 5.738445 7.553209 -16.223829 0
M  V30 32 H 5.267511 6.208506 -15.201453 0
M  V30 33 H 4.975512 7.870318 -14.675801 0
M  V30 34 H 8.518765 6.153565 -10.546353 0
M  V30 35 H 10.464373 6.060509 -6.594004 0
M  V30 36 H 12.175465 6.336239 -6.454771 0
M  V30 37 H 10.499165 7.074495 -12.732673 0
M  V30 38 H 7.923437 0.696951 -14.141052 0
M  V30 39 H 6.361842 0.301277 -13.419182 0
M  V30 40 H 7.774458 0.547797 -12.384973 0
M  V30 41 H 6.261592 7.435894 -12.551352 0
M  V30 42 H 9.121425 7.329675 -8.275480 0
M  V30 43 H 10.411565 6.326142 -8.904995 0
M  V30 44 H 12.112064 7.930376 -8.420006 0
M  V30 45 H 10.968311 9.231033 -8.403204 0
M  V30 46 H 8.504637 8.504470 -12.574718 0
M  V30 47 H 6.300457 4.141401 -11.015759 0
M  V30 48 H 6.422340 5.853077 -10.662532 0
M  V30 49 H 5.061488 5.255355 -11.560577 0
M  V30 50 H 10.008392 6.790157 -4.385028 0
M  V30 51 H 11.242264 5.590252 -4.303807 0
M  V30 52 H 11.784197 7.474659 -2.790113 0
M  V30 53 H 13.019610 7.190210 -3.976406 0
M  V30 54 H 7.390643 8.314845 -14.630098 0
M  V30 55 H 7.771848 6.674042 -15.078605 0
M  V30 56 H 6.160272 5.072371 -13.545413 0
M  V30 57 H 10.970150 9.388246 -3.979778 0
M  V30 58 H 12.689285 9.540446 -3.917354 0
M  V30 59 H 10.179910 4.557462 -12.458401 0
M  V30 60 H 9.811782 5.196888 -14.039911 0
M  V30 61 H 10.071805 8.372820 -6.357580 0
M  V30 END ATOM
M  V30 BEGIN BOND
M  V30 1 1 3 1
M  V30 2 1 6 2
M  V30 3 1 8 6
M  V30 4 2 10 5
M  V30 5 1 11 5
M  V30 6 1 11 9
M  V30 7 1 13 2
M  V30 8 1 14 13
M  V30 9 1 15 6
M  V30 10 1 15 8
M  V30 11 1 15 12
M  V30 12 1 17 7
M  V30 13 1 18 17
M  V30 14 2 19 11
M  V30 15 1 20 4
M  V30 16 1 20 12
M  V30 17 1 21 10
M  V30 18 1 21 12
M  V30 19 1 21 16
M  V30 20 1 22 1
M  V30 21 1 22 18
M  V30 22 1 23 1
M  V30 23 1 23 7
M  V30 24 1 23 14
M  V30 25 1 24 8
M  V30 26 1 24 10
M  V30 27 1 1 25 CFG=3
M  V30 28 1 26 2
M  V30 29 1 27 2
M  V30 30 1 28 3
M  V30 31 1 29 3
M  V30 32 1 30 3
M  V30 33 1 31 4
M  V30 34 1 32 4
M  V30 35 1 33 4
M  V30 36 1 6 34 CFG=1
M  V30 37 1 35 7
M  V30 38 1 36 7
M  V30 39 1 8 37 CFG=1
M  V30 40 1 38 9
M  V30 41 1 39 9
M  V30 42 1 40 9
M  V30 43 1 12 41 CFG=1
M  V30 44 1 42 13
M  V30 45 1 43 13
M  V30 46 1 44 14
M  V30 47 1 45 14
M  V30 48 1 15 46 CFG=1
M  V30 49 1 47 16
M  V30 50 1 48 16
M  V30 51 1 49 16
M  V30 52 1 50 17
M  V30 53 1 51 17
M  V30 54 1 52 18
M  V30 55 1 53 18
M  V30 56 1 54 20
M  V30 57 1 55 20
M  V30 58 1 21 56 CFG=3
M  V30 59 1 57 22
M  V30 60 1 58 22
M  V30 61 1 59 24
M  V30 62 1 60 24
M  V30 63 1 23 61 CFG=3
M  V30 END BOND
M  V30 END CTAB
M  END
>  <i_epik_Tot_Q>  (1) 
1

>  <i_epik_Tot_abs_Q>  (1) 
1

>  <i_i_glide_confnum>  (1) 
62

>  <i_i_glide_lignum>  (1) 
24

>  <i_i_glide_posenum>  (1) 
150

>  <i_i_glide_rotatable_bonds>  (1) 
6

>  <i_lp_mmshare_version>  (1) 
72125

>  <i_m_source_file_index>  (1) 
3

>  <i_f3d_flags>  (1) 
0

>  <num_sample>  (1) 
50

>  <b_lp_Chiralities_Consistent>  (1) 
1

>  <r_epik_Charging_Adjusted_Penalty>  (1) 
0.0011657924221308697

>  <r_epik_Ionization_Penalty>  (1) 
0.0011657924221308697

>  <r_epik_Ionization_Penalty_Charging>  (1) 
0.0011657924221308697

>  <r_epik_Ionization_Penalty_Neutral>  (1) 
0

>  <r_epik_State_Penalty>  (1) 
-0

>  <r_glide_ring_energy>  (1) 
0

>  <r_i_docking_score>  (1) 
-5.8976981098232608

>  <r_i_glide_ecoul>  (1) 
-0.43324919825467045

>  <r_i_glide_eff_state_penalty>  (1) 
-0

>  <r_i_glide_einternal>  (1) 
5.3476131908146947

>  <r_i_glide_emodel>  (1) 
-42.944749862223475

>  <r_i_glide_emodel_strain>  (1) 
0.070265670171409056

>  <r_i_glide_energy>  (1) 
-31.084220839204473

>  <r_i_glide_erotb>  (1) 
0.84713914833173298

>  <r_i_glide_esite>  (1) 
0

>  <r_i_glide_evdw>  (1) 
-30.650971640949802

>  <r_i_glide_gscore>  (1) 
-5.8976981098232608

>  <r_i_glide_gscore_strain>  (1) 
0

>  <r_i_glide_hbond>  (1) 
0

>  <r_i_glide_ligand_efficiency>  (1) 
-0.24573742124263587

>  <r_i_glide_ligand_efficiency_ln>  (1) 
-1.4115897854126271

>  <r_i_glide_ligand_efficiency_sa>  (1) 
-0.7088293803912844

>  <r_i_glide_lipo>  (1) 
-2.7004616828369903

>  <r_i_glide_metal>  (1) 
-0

>  <r_i_glide_rewards>  (1) 
-2.4468396135323127

>  <r_lp_Energy>  (1) 
47.634619999999998

>  <r_lp_tautomer_probability>  (1) 
1

>  <s_epik_Chemistry_Notes>  (1) 
This compound has an imine and may undergo hydrolysis.

>  <s_epik_cmdline>  (1) 
J2VwaWtfcHl0aG9uJywgJy1waHQnLCAnMS4wJywgJy1waCcsICc3LjQnLCAnLXRuJywgJzgnLCAnLW1hJywgJzUwMCcsICctaW1hZScsICc8aW5maWxlLm1hZT4nLCAnLW9tYWUnLCAnPG91dGZpbGUubWFlPic=

>  <s_epik_input>  (1) 
W0NIM11bQ0BIXTFbQ0gyXVtDSDJdW0NIMl1bQ0gyXU4xW0NIMl1bQ0gyXVtDSDJdW0NASF0yW0NAQEhdKFtDQEBIXTIzKVtDQEBIXShbQ0gyXVtDSDNdKVtDQEhdKFtDSDNdKS9DKFtDSDJdMyk9TlxDKD1PKVtDSDNd

>  <s_glide_docking_method>  (1) 
confgen

>  <s_i_glide_gridfile>  (1) 
gpcr_drd2_6luq_protein_autoprepared_prepared

>  <s_lp_Force_Field>  (1) 
S-OPLS

>  <s_lp_Variant>  (1) 
DiffSBDD_2-4

>  <s_m_source_file>  (1) 
generated_generic_title2_ligand_DiffSBDD_2026-06-23_prepared.sdf

>  <GenAI_Model>  (1) 
DiffSBDD

>  <Protein>  (1) 
generic_title2

$$$$
DiffSBDD_40
     RDKit          3D

  0  0  0  0  0  0  0  0  0  0999 V3000
M  V30 BEGIN CTAB
M  V30 COUNTS 74 76 0 0 1
M  V30 BEGIN ATOM
M  V30 1 C 9.590219 7.018304 -8.919065 0
M  V30 2 O 15.130319 2.800236 -18.469442 0 CHG=-1
M  V30 3 C 12.605824 6.184909 -16.614838 0
M  V30 4 C 10.292992 7.317449 -10.025609 0
M  V30 5 C 10.790263 5.246852 -20.002775 0 CFG=2
M  V30 6 C 6.672761 5.652266 -17.346810 0
M  V30 7 C 6.922467 5.798228 -15.811684 0 CFG=2
M  V30 8 C 10.486368 3.733912 -20.132083 0
M  V30 9 C 11.475602 5.682968 -17.509421 0
M  V30 10 C 8.775709 5.436993 -11.621786 0
M  V30 11 C 10.866941 8.222491 -7.030736 0
M  V30 12 C 14.286191 5.011777 -18.131592 0 CFG=2
M  V30 13 F 10.743983 5.944710 -7.238135 0
M  V30 14 C 7.206482 4.448108 -15.094904 0
M  V30 15 C 11.930835 5.575275 -18.987127 0 CFG=1
M  V30 16 C 13.115928 4.590103 -19.050447 0
M  V30 17 C 6.443802 5.924685 -12.606968 0
M  V30 18 C 6.176191 7.028615 -13.641540 0
M  V30 19 C 12.359362 8.449695 -9.028144 0
M  V30 20 C 9.552271 6.073743 -19.671845 0
M  V30 21 C 7.823095 4.981730 -18.060621 0
M  V30 22 C 11.679311 7.817832 -10.030304 0
M  V30 23 F 10.575464 8.697555 -5.807676 0
M  V30 24 S 9.500065 7.107683 -11.599732 0
M  V30 25 O 16.575015 4.390577 -17.889403 0
M  V30 26 C 14.941280 5.887517 -15.814696 0
M  V30 27 C 11.881055 8.793487 -7.686786 0
M  V30 28 C 8.134299 4.614532 -13.904833 0
M  V30 29 C 15.427782 3.978039 -18.169141 0
M  V30 30 C 10.083538 7.062550 -7.518683 0 CFG=2
M  V30 31 C 7.804481 5.276520 -12.783937 0
M  V30 32 C 8.569931 5.600196 -18.941336 0
M  V30 33 C 13.829747 5.260190 -16.664598 0 CFG=1
M  V30 34 C 5.305963 7.823408 -15.847859 0
M  V30 35 C 5.792594 6.579178 -15.073965 0 CFG=1
M  V30 36 H 8.576526 6.664366 -9.033837 0
M  V30 37 H 12.886795 7.193055 -16.924349 0
M  V30 38 H 12.241287 6.268311 -15.590298 0
M  V30 39 H 11.116624 5.575607 -20.990337 0
M  V30 40 H 6.541468 6.635997 -17.798971 0
M  V30 41 H 5.773939 5.094638 -17.583516 0
M  V30 42 H 7.831008 6.389749 -15.722399 0
M  V30 43 H 9.638128 3.557377 -20.794107 0
M  V30 44 H 11.330874 3.191475 -20.557611 0
M  V30 45 H 10.258679 3.282341 -19.166090 0
M  V30 46 H 10.659696 6.390010 -17.384164 0
M  V30 47 H 11.111139 4.720561 -17.151260 0
M  V30 48 H 8.251630 5.223318 -10.689825 0
M  V30 49 H 9.586603 4.711928 -11.701588 0
M  V30 50 H 14.688145 5.944362 -18.530601 0
M  V30 51 H 6.277323 3.976357 -14.775357 0
M  V30 52 H 7.687158 3.719720 -15.742135 0
M  V30 53 H 12.308801 6.559962 -19.268966 0
M  V30 54 H 12.768468 3.599642 -18.752194 0
M  V30 55 H 13.470774 4.500732 -20.078653 0
M  V30 56 H 5.662793 5.164731 -12.643720 0
M  V30 57 H 6.390292 6.361139 -11.607592 0
M  V30 58 H 5.348458 7.609224 -13.238856 0
M  V30 59 H 7.030851 7.705257 -13.680856 0
M  V30 60 H 13.355503 8.789024 -9.275578 0
M  V30 61 H 9.526287 7.082526 -20.057039 0
M  V30 62 H 8.012439 3.950891 -17.807847 0
M  V30 63 H 12.208542 7.721314 -10.966512 0
M  V30 64 H 15.381359 6.702568 -16.385269 0
M  V30 65 H 14.563965 6.285498 -14.872602 0
M  V30 66 H 15.731424 5.175457 -15.578524 0
M  V30 67 H 12.402518 9.585953 -7.174013 0
M  V30 68 H 9.116539 4.175154 -13.994125 0
M  V30 69 H 9.189396 7.020394 -6.894062 0
M  V30 70 H 13.545001 4.308069 -16.212333 0
M  V30 71 H 6.131888 8.496014 -16.083629 0
M  V30 72 H 4.804345 7.556921 -16.777677 0
M  V30 73 H 4.576894 8.390377 -15.269135 0
M  V30 74 H 4.940887 5.908480 -14.990295 0
M  V30 END ATOM
M  V30 BEGIN BOND
M  V30 1 2 4 1
M  V30 2 1 7 6
M  V30 3 1 8 5
M  V30 4 1 9 3
M  V30 5 1 14 7
M  V30 6 1 15 5
M  V30 7 1 15 9
M  V30 8 1 16 12
M  V30 9 1 16 15
M  V30 10 1 18 17
M  V30 11 1 20 5
M  V30 12 1 21 6
M  V30 13 1 22 4
M  V30 14 2 22 19
M  V30 15 1 23 11
M  V30 16 1 24 4
M  V30 17 1 24 10
M  V30 18 2 27 11
M  V30 19 1 27 19
M  V30 20 1 28 14
M  V30 21 1 29 2
M  V30 22 1 29 12
M  V30 23 2 29 25
M  V30 24 1 30 1
M  V30 25 1 30 11
M  V30 26 1 30 13
M  V30 27 1 31 10
M  V30 28 1 31 17
M  V30 29 2 31 28
M  V30 30 2 32 20
M  V30 31 2 32 21
M  V30 32 1 33 3
M  V30 33 1 33 12
M  V30 34 1 33 26
M  V30 35 1 35 7
M  V30 36 1 35 18
M  V30 37 1 35 34
M  V30 38 1 36 1
M  V30 39 1 37 3
M  V30 40 1 38 3
M  V30 41 1 5 39 CFG=3
M  V30 42 1 40 6
M  V30 43 1 41 6
M  V30 44 1 7 42 CFG=3
M  V30 45 1 43 8
M  V30 46 1 44 8
M  V30 47 1 45 8
M  V30 48 1 46 9
M  V30 49 1 47 9
M  V30 50 1 48 10
M  V30 51 1 49 10
M  V30 52 1 12 50 CFG=3
M  V30 53 1 51 14
M  V30 54 1 52 14
M  V30 55 1 15 53 CFG=3
M  V30 56 1 54 16
M  V30 57 1 55 16
M  V30 58 1 56 17
M  V30 59 1 57 17
M  V30 60 1 58 18
M  V30 61 1 59 18
M  V30 62 1 60 19
M  V30 63 1 61 20
M  V30 64 1 62 21
M  V30 65 1 63 22
M  V30 66 1 64 26
M  V30 67 1 65 26
M  V30 68 1 66 26
M  V30 69 1 67 27
M  V30 70 1 68 28
M  V30 71 1 30 69 CFG=1
M  V30 72 1 33 70 CFG=1
M  V30 73 1 71 34
M  V30 74 1 72 34
M  V30 75 1 73 34
M  V30 76 1 35 74 CFG=1
M  V30 END BOND
M  V30 END CTAB
M  END
>  <i_epik_Tot_Q>  (1) 
-1

>  <i_epik_Tot_abs_Q>  (1) 
1

>  <i_i_glide_confnum>  (1) 
182

>  <i_i_glide_lignum>  (1) 
115

>  <i_i_glide_posenum>  (1) 
224

>  <i_i_glide_rotatable_bonds>  (1) 
8

>  <i_lp_mmshare_version>  (1) 
72125

>  <i_m_source_file_index>  (1) 
41

>  <i_f3d_flags>  (1) 
0

>  <num_sample>  (1) 
50

>  <b_lp_Chiralities_Consistent>  (1) 
1

>  <r_epik_Charging_Adjusted_Penalty>  (1) 
0.0014684053483694905

>  <r_epik_Ionization_Penalty>  (1) 
0.0014684053483694905

>  <r_epik_Ionization_Penalty_Charging>  (1) 
0.0014684053483694905

>  <r_epik_Ionization_Penalty_Neutral>  (1) 
0

>  <r_epik_State_Penalty>  (1) 
-0

>  <r_glide_ring_energy>  (1) 
0

>  <r_i_docking_score>  (1) 
-5.8853914726848604

>  <r_i_glide_ecoul>  (1) 
-4.9919131164975399

>  <r_i_glide_eff_state_penalty>  (1) 
-0

>  <r_i_glide_einternal>  (1) 
9.1451553927510023

>  <r_i_glide_emodel>  (1) 
-41.630518041529193

>  <r_i_glide_emodel_strain>  (1) 
2.41895903266537

>  <r_i_glide_energy>  (1) 
-38.379751840311521

>  <r_i_glide_erotb>  (1) 
0.56810967558155767

>  <r_i_glide_esite>  (1) 
-0.015178383569149859

>  <r_i_glide_evdw>  (1) 
-33.387838723813978

>  <r_i_glide_gscore>  (1) 
-5.8853914726848604

>  <r_i_glide_gscore_strain>  (1) 
0

>  <r_i_glide_hbond>  (1) 
-0.15760344903758033

>  <r_i_glide_ligand_efficiency>  (1) 
-0.16815404207671031

>  <r_i_glide_ligand_efficiency_ln>  (1) 
-1.2919740474804855

>  <r_i_glide_ligand_efficiency_sa>  (1) 
-0.55004302195916166

>  <r_i_glide_lipo>  (1) 
-2.5693845495623449

>  <r_i_glide_metal>  (1) 
-0

>  <r_i_glide_rewards>  (1) 
-1.2931558624320116

>  <r_lp_Energy>  (1) 
5.7710229999999996

>  <r_lp_tautomer_probability>  (1) 
1

>  <s_epik_cmdline>  (1) 
J2VwaWtfcHl0aG9uJywgJy1waHQnLCAnMS4wJywgJy1waCcsICc3LjQnLCAnLXRuJywgJzgnLCAnLW1hJywgJzUwMCcsICctaW1hZScsICc8aW5maWxlLm1hZT4nLCAnLW9tYWUnLCAnPG91dGZpbGUubWFlPic=

>  <s_epik_input>  (1) 
W0NIXTE9W0NIXVtDSF09QyhGKVtDQEhdKEYpW0NIXT1DMVNbQ0gyXUMoW0NIMl1bQ0gyXVtDQEhdMltDSDNdKT1bQ0hdW0NIMl1bQ0BIXTJbQ0gyXVtDSF09Qz1bQ0hdW0NASF0oW0NIM10pW0NAQEhdKFtDSDJdW0NIMl1bQ0BASF0zW0NIM10pW0NIMl1bQ0BASF0zQyg9TylbT0hd

>  <s_glide_docking_method>  (1) 
confgen

>  <s_i_glide_gridfile>  (1) 
gpcr_drd2_6luq_protein_autoprepared_prepared

>  <s_lp_Force_Field>  (1) 
S-OPLS

>  <s_lp_Variant>  (1) 
DiffSBDD_40-1

>  <s_m_source_file>  (1) 
generated_generic_title2_ligand_DiffSBDD_2026-06-23_prepared.sdf

>  <GenAI_Model>  (1) 
DiffSBDD

>  <Protein>  (1) 
generic_title2

$$$$
DiffSBDD_39
     RDKit          3D

  0  0  0  0  0  0  0  0  0  0999 V3000
M  V30 BEGIN CTAB
M  V30 COUNTS 68 71 0 0 1
M  V30 BEGIN ATOM
M  V30 1 C 8.334861 3.342888 -12.860731 0
M  V30 2 F 6.049862 -2.681597 -17.085844 0
M  V30 3 F 4.179473 -1.673472 -17.511785 0
M  V30 4 C 12.377276 8.936163 -7.598733 0
M  V30 5 C 9.080303 4.847673 -10.918535 0
M  V30 6 C 9.166980 7.318734 -11.280413 0 CFG=1
M  V30 7 O 13.376685 8.733056 -8.575907 0
M  V30 8 C 7.290092 0.220516 -16.729739 0 CFG=2
M  V30 9 C 7.262804 5.644271 -14.277941 0
M  V30 10 C 9.838921 6.293042 -9.011377 0 CFG=2
M  V30 11 O 9.007091 0.626545 -18.389810 0
M  V30 12 C 7.524674 4.308216 -14.990758 0
M  V30 13 N 7.428669 3.164299 -14.034287 0 CFG=1 CHG=1
M  V30 14 C 5.990958 -1.235003 -18.917930 0
M  V30 15 C 8.102172 4.672734 -12.112673 0 CFG=1
M  V30 16 C 7.545042 1.783793 -14.612644 0
M  V30 17 O 7.381723 -0.928179 -18.872189 0
M  V30 18 C 8.137127 7.170338 -12.416504 0
M  V30 19 N 9.020062 6.203843 -10.282126 0 CFG=2 CHG=1
M  V30 20 C 11.495110 7.684285 -7.566117 0 CFG=1
M  V30 21 C 10.491936 7.700080 -6.408177 0
M  V30 22 C 7.360509 1.667486 -16.146907 0
M  V30 23 C 8.256468 5.816383 -13.127295 0 CFG=2
M  V30 24 C 7.648397 0.287299 -18.241613 0 CFG=1
M  V30 25 C 5.891445 -0.403571 -16.545416 0
M  V30 26 C 9.710665 6.387813 -6.432545 0
M  V30 27 C 5.505835 -1.536417 -17.495316 0
M  V30 28 O 5.118995 -0.009418 -15.671656 0
M  V30 29 C 8.950875 6.170713 -7.755076 0
M  V30 30 O 10.355435 7.193281 -11.826163 0 CHG=-1
M  V30 31 C 10.742298 7.546729 -8.901090 0
M  V30 32 H 9.373205 3.308859 -13.184498 0
M  V30 33 H 8.218521 2.497989 -12.192534 0
M  V30 34 H 12.845317 9.144634 -6.633981 0
M  V30 35 H 11.774800 9.803607 -7.857280 0
M  V30 36 H 10.099521 4.670115 -11.262056 0
M  V30 37 H 8.879178 4.083454 -10.170460 0
M  V30 38 H 8.860516 8.240205 -10.785608 0
M  V30 39 H 13.722360 9.563461 -8.895883 0
M  V30 40 H 8.024479 -0.427235 -16.247946 0
M  V30 41 H 7.369328 6.469103 -14.982723 0
M  V30 42 H 6.238346 5.692046 -13.907166 0
M  V30 43 H 10.507337 5.435484 -8.969360 0
M  V30 44 H 9.054361 1.551972 -18.594882 0
M  V30 45 H 8.509650 4.326037 -15.461796 0
M  V30 46 H 6.792158 4.222457 -15.791669 0
M  V30 47 H 5.831603 -2.107632 -19.555536 0
M  V30 48 H 5.419639 -0.418278 -19.367547 0
M  V30 49 H 7.084294 4.679638 -11.721420 0
M  V30 50 H 8.518377 1.357548 -14.359132 0
M  V30 51 H 6.814757 1.162608 -14.093653 0
M  V30 52 H 8.258284 7.986010 -13.130660 0
M  V30 53 H 7.133997 7.276901 -12.005532 0
M  V30 54 H 12.154769 6.823164 -7.428756 0
M  V30 55 H 11.016682 7.795601 -5.456299 0
M  V30 56 H 9.815029 8.551777 -6.486670 0
M  V30 57 H 6.445134 2.176908 -16.439202 0
M  V30 58 H 8.164073 2.222629 -16.631226 0
M  V30 59 H 9.251558 5.750349 -13.570644 0
M  V30 60 H 7.084999 1.069451 -18.754704 0
M  V30 61 H 10.429919 5.590504 -6.281446 0
M  V30 62 H 9.018068 6.344357 -5.594393 0
M  V30 63 H 8.422462 5.216492 -7.729847 0
M  V30 64 H 8.175411 6.917631 -7.791911 0
M  V30 65 H 10.156509 8.454562 -9.053210 0
M  V30 66 H 11.495888 7.496589 -9.685715 0
M  V30 67 H 6.486727 3.218859 -13.669428 0
M  V30 68 H 8.067842 6.348430 -9.957229 0
M  V30 END ATOM
M  V30 BEGIN BOND
M  V30 1 1 7 4
M  V30 2 1 12 9
M  V30 3 1 13 1
M  V30 4 1 13 12
M  V30 5 1 15 1
M  V30 6 1 15 5
M  V30 7 1 16 13
M  V30 8 1 17 14
M  V30 9 1 18 6
M  V30 10 1 19 5
M  V30 11 1 19 6
M  V30 12 1 19 10
M  V30 13 1 20 4
M  V30 14 1 21 20
M  V30 15 1 22 8
M  V30 16 1 22 16
M  V30 17 1 23 9
M  V30 18 1 23 15
M  V30 19 1 23 18
M  V30 20 1 24 8
M  V30 21 1 24 11
M  V30 22 1 24 17
M  V30 23 1 25 8
M  V30 24 1 26 21
M  V30 25 1 27 2
M  V30 26 1 27 3
M  V30 27 1 27 14
M  V30 28 1 27 25
M  V30 29 2 28 25
M  V30 30 1 29 10
M  V30 31 1 29 26
M  V30 32 1 30 6
M  V30 33 1 31 10
M  V30 34 1 31 20
M  V30 35 1 32 1
M  V30 36 1 33 1
M  V30 37 1 34 4
M  V30 38 1 35 4
M  V30 39 1 36 5
M  V30 40 1 37 5
M  V30 41 1 6 38 CFG=1
M  V30 42 1 39 7
M  V30 43 1 8 40 CFG=1
M  V30 44 1 41 9
M  V30 45 1 42 9
M  V30 46 1 10 43 CFG=3
M  V30 47 1 44 11
M  V30 48 1 45 12
M  V30 49 1 46 12
M  V30 50 1 47 14
M  V30 51 1 48 14
M  V30 52 1 15 49 CFG=1
M  V30 53 1 50 16
M  V30 54 1 51 16
M  V30 55 1 52 18
M  V30 56 1 53 18
M  V30 57 1 20 54 CFG=1
M  V30 58 1 55 21
M  V30 59 1 56 21
M  V30 60 1 57 22
M  V30 61 1 58 22
M  V30 62 1 23 59 CFG=3
M  V30 63 1 24 60 CFG=3
M  V30 64 1 61 26
M  V30 65 1 62 26
M  V30 66 1 63 29
M  V30 67 1 64 29
M  V30 68 1 65 31
M  V30 69 1 66 31
M  V30 70 1 13 67 CFG=1
M  V30 71 1 19 68 CFG=1
M  V30 END BOND
M  V30 END CTAB
M  END
>  <i_epik_Tot_Q>  (1) 
1

>  <i_epik_Tot_abs_Q>  (1) 
3

>  <i_i_glide_confnum>  (1) 
230

>  <i_i_glide_lignum>  (1) 
107

>  <i_i_glide_posenum>  (1) 
141

>  <i_i_glide_rotatable_bonds>  (1) 
7

>  <i_lp_mmshare_version>  (1) 
72125

>  <i_m_source_file_index>  (1) 
40

>  <i_f3d_flags>  (1) 
0

>  <num_sample>  (1) 
50

>  <b_lp_Chiralities_Consistent>  (1) 
1

>  <r_epik_Charging_Adjusted_Penalty>  (1) 
0.43569023002306473

>  <r_epik_Ionization_Penalty>  (1) 
0.17475065349743213

>  <r_epik_Ionization_Penalty_Charging>  (1) 
0.17468327186895813

>  <r_epik_Ionization_Penalty_Neutral>  (1) 
6.7381628474014066e-05

>  <r_epik_State_Penalty>  (1) 
0.26100695815410663

>  <r_glide_ring_energy>  (1) 
0

>  <r_i_docking_score>  (1) 
-5.8827904947441167

>  <r_i_glide_ecoul>  (1) 
-10.25149937029893

>  <r_i_glide_eff_state_penalty>  (1) 
0.26100695815410663

>  <r_i_glide_einternal>  (1) 
12.652341317617713

>  <r_i_glide_emodel>  (1) 
-42.328847837816276

>  <r_i_glide_emodel_strain>  (1) 
3.2113264062583795

>  <r_i_glide_energy>  (1) 
-35.298774554264241

>  <r_i_glide_erotb>  (1) 
0.49989103335302049

>  <r_i_glide_esite>  (1) 
-0.19851751722342267

>  <r_i_glide_evdw>  (1) 
-25.047275183965308

>  <r_i_glide_gscore>  (1) 
-6.1437974528982231

>  <r_i_glide_gscore_strain>  (1) 
0

>  <r_i_glide_hbond>  (1) 
-0.47351076731409275

>  <r_i_glide_ligand_efficiency>  (1) 
-0.18976743531432635

>  <r_i_glide_ligand_efficiency_ln>  (1) 
-1.3267495424419473

>  <r_i_glide_ligand_efficiency_sa>  (1) 
-0.5961317497503601

>  <r_i_glide_lipo>  (1) 
-1.7304536424403771

>  <r_i_glide_metal>  (1) 
-0

>  <r_i_glide_rewards>  (1) 
-1.4511178945302459

>  <r_lp_Energy>  (1) 
50.450402999999994

>  <r_lp_tautomer_probability>  (1) 
0.99995000000000001

>  <s_epik_Chemistry_Notes>  (1) 
This compound contains an acetal/aminal-like group ( X-CH(R)-Y where X, Y are N, S, or O) that may be acid/base labile, releasing an aldehyde.

>  <s_epik_cmdline>  (1) 
J2VwaWtfcHl0aG9uJywgJy1waHQnLCAnMS4wJywgJy1waCcsICc3LjQnLCAnLXRuJywgJzgnLCAnLW1hJywgJzUwMCcsICctaW1hZScsICc8aW5maWxlLm1hZT4nLCAnLW9tYWUnLCAnPG91dGZpbGUubWFlPic=

>  <s_epik_input>  (1) 
RkMxKEYpW0NIMl1PW0NASF0oW09IXSlbQ0BIXShDMT1PKVtDSDJdW0NIMl1OKFtDSDJdMilbQ0gyXVtDSDJdW0NASF0oW0NAQEhdMjMpW0NIMl1bQ0BIXShbT0hdKU4oW0NIMl0zKVtDQEBIXTRbQ0gyXVtDSDJdW0NIMl1bQ0BASF0oW0NIMl00KVtDSDJdW09IXQ==

>  <s_glide_docking_method>  (1) 
confgen

>  <s_i_glide_gridfile>  (1) 
gpcr_drd2_6luq_protein_autoprepared_prepared

>  <s_lp_Force_Field>  (1) 
S-OPLS

>  <s_lp_Variant>  (1) 
DiffSBDD_39-3

>  <s_m_source_file>  (1) 
generated_generic_title2_ligand_DiffSBDD_2026-06-23_prepared.sdf

>  <GenAI_Model>  (1) 
DiffSBDD

>  <Protein>  (1) 
generic_title2

$$$$
DiffSBDD_28
     RDKit          3D

  0  0  0  0  0  0  0  0  0  0999 V3000
M  V30 BEGIN CTAB
M  V30 COUNTS 79 86 0 0 1
M  V30 BEGIN ATOM
M  V30 1 F 8.223938 0.542115 -17.662448 0
M  V30 2 C 11.379590 7.818512 -7.359186 0 CFG=1
M  V30 3 C 8.736521 5.989762 -9.301640 0 CFG=2
M  V30 4 C 11.775397 6.758048 -4.761672 0 CFG=2
M  V30 5 C 6.174860 3.787629 -12.334485 0 CFG=1
M  V30 6 C 12.773416 7.981863 -7.944708 0
M  V30 7 C 8.405115 4.830666 -11.525993 0 CFG=2
M  V30 8 C 6.943569 0.965150 -14.850833 0 CFG=1
M  V30 9 C 9.542782 4.833959 -8.670489 0
M  V30 10 C 6.800074 3.220968 -13.593308 0 CFG=1
M  V30 11 C 11.066652 9.213702 -5.705479 0 CFG=1
M  V30 12 C 9.732168 7.000486 -11.233964 0
M  V30 13 C 11.393893 7.761015 -5.813970 0 CFG=1
M  V30 14 O 12.153025 9.989777 -5.252819 0
M  V30 15 C 6.877385 0.440288 -17.365238 0 CFG=1
M  V30 16 C 6.940181 4.567364 -11.334393 0 CFG=1
M  V30 17 O 6.055769 5.213379 -12.256677 0
M  V30 18 N 8.676980 6.079057 -10.785169 0 CFG=2 CHG=1
M  V30 19 O 12.171294 6.388585 -2.367502 0
M  V30 20 C 6.260418 -0.846283 -17.760668 0
M  V30 21 O 10.413673 6.971828 -5.139586 0
M  V30 22 C 8.315325 3.498938 -13.676941 0
M  V30 23 C 10.796039 9.192135 -7.184942 0
M  V30 24 N 10.647658 6.827623 -8.155706 0
M  V30 25 C 12.272824 7.311701 -3.432844 0
M  V30 26 N 6.652246 -0.409783 -14.406882 0 CHG=1
M  V30 27 C 8.760844 4.831283 -13.032120 0
M  V30 28 C 6.202615 -0.396991 -13.007672 0
M  V30 29 C 6.652671 0.945905 -12.520760 0
M  V30 30 O 5.596317 -1.485803 -16.944751 0
M  V30 31 C 9.768690 8.052275 -10.123221 0
M  V30 32 C 6.274042 1.227786 -16.210960 0
M  V30 33 O 5.960243 0.210835 -18.488178 0
M  V30 34 N 6.425999 1.782098 -13.716393 0 CFG=2 CHG=1
M  V30 35 C 10.383967 5.532563 -7.608681 0
M  V30 36 C 10.871984 6.336164 -1.804294 0
M  V30 37 C 9.454759 7.252889 -8.848663 0 CFG=1
M  V30 38 H 7.734926 5.970189 -8.880498 0
M  V30 39 H 12.174928 5.803000 -5.087433 0
M  V30 40 H 5.375396 3.237143 -11.894755 0
M  V30 41 H 13.280596 8.892199 -7.623785 0
M  V30 42 H 13.375712 7.190208 -7.585079 0
M  V30 43 H 12.783935 7.958289 -9.034751 0
M  V30 44 H 8.945335 3.997439 -11.085481 0
M  V30 45 H 8.028131 1.079891 -14.920952 0
M  V30 46 H 10.175322 4.327264 -9.388472 0
M  V30 47 H 8.899634 4.092140 -8.198162 0
M  V30 48 H 6.318811 3.738108 -14.426026 0
M  V30 49 H 10.175829 9.471105 -5.149275 0
M  V30 50 H 9.509909 7.444189 -12.203124 0
M  V30 51 H 10.681344 6.474220 -11.305461 0
M  V30 52 H 12.938673 9.638773 -5.642518 0
M  V30 53 H 6.573479 4.535427 -10.309827 0
M  V30 54 H 8.575498 3.499005 -14.733746 0
M  V30 55 H 8.878070 2.700246 -13.190997 0
M  V30 56 H 9.722946 9.270328 -7.323381 0
M  V30 57 H 11.375454 9.956180 -7.706626 0
M  V30 58 H 13.328414 7.559011 -3.555762 0
M  V30 59 H 11.776019 8.250200 -3.184989 0
M  V30 60 H 7.473156 -0.997332 -14.501687 0
M  V30 61 H 8.288343 5.666969 -13.548940 0
M  V30 62 H 9.835753 4.948034 -13.167873 0
M  V30 63 H 6.575376 -1.226163 -12.409643 0
M  V30 64 H 5.110565 -0.409690 -12.986141 0
M  V30 65 H 7.718534 0.912453 -12.295719 0
M  V30 66 H 6.105706 1.225353 -11.622706 0
M  V30 67 H 8.977723 8.783447 -10.286971 0
M  V30 68 H 10.712620 8.596936 -10.089507 0
M  V30 69 H 5.217756 0.969037 -16.145349 0
M  V30 70 H 6.352747 2.281104 -16.469378 0
M  V30 71 H 11.314695 5.022267 -7.363561 0
M  V30 72 H 9.757661 5.590255 -6.724094 0
M  V30 73 H 10.862773 5.590684 -1.013214 0
M  V30 74 H 10.575801 7.287011 -1.358473 0
M  V30 75 H 10.132977 6.021470 -2.541087 0
M  V30 76 H 8.774857 7.766713 -8.172877 0
M  V30 77 H 7.839426 6.639278 -10.915378 0
M  V30 78 H 5.914509 -0.835301 -14.958606 0
M  V30 79 H 5.420821 1.796550 -13.825262 0
M  V30 END ATOM
M  V30 BEGIN BOND
M  V30 1 1 2 6 CFG=3
M  V30 2 1 9 3
M  V30 3 1 10 5
M  V30 4 1 13 2
M  V30 5 1 13 4
M  V30 6 1 13 11
M  V30 7 1 14 11
M  V30 8 1 15 1 CFG=3
M  V30 9 1 16 5
M  V30 10 1 16 7
M  V30 11 1 17 5
M  V30 12 1 17 16
M  V30 13 1 18 3
M  V30 14 1 18 7
M  V30 15 1 18 12
M  V30 16 1 20 15
M  V30 17 1 21 4
M  V30 18 1 13 21 CFG=1
M  V30 19 1 22 10
M  V30 20 1 23 2
M  V30 21 1 23 11
M  V30 22 1 24 2
M  V30 23 1 25 4
M  V30 24 1 25 19
M  V30 25 1 26 8
M  V30 26 1 27 7
M  V30 27 1 27 22
M  V30 28 1 28 26
M  V30 29 1 29 28
M  V30 30 2 30 20
M  V30 31 1 31 12
M  V30 32 1 32 8
M  V30 33 1 32 15
M  V30 34 1 33 15
M  V30 35 1 33 20
M  V30 36 1 34 8
M  V30 37 1 34 10
M  V30 38 1 34 29
M  V30 39 1 35 9
M  V30 40 1 35 24
M  V30 41 1 36 19
M  V30 42 1 37 3
M  V30 43 1 37 24
M  V30 44 1 37 31
M  V30 45 1 3 38 CFG=1
M  V30 46 1 4 39 CFG=3
M  V30 47 1 5 40 CFG=1
M  V30 48 1 41 6
M  V30 49 1 42 6
M  V30 50 1 43 6
M  V30 51 1 7 44 CFG=1
M  V30 52 1 8 45 CFG=3
M  V30 53 1 46 9
M  V30 54 1 47 9
M  V30 55 1 10 48 CFG=3
M  V30 56 1 11 49 CFG=1
M  V30 57 1 50 12
M  V30 58 1 51 12
M  V30 59 1 52 14
M  V30 60 1 16 53 CFG=1
M  V30 61 1 54 22
M  V30 62 1 55 22
M  V30 63 1 56 23
M  V30 64 1 57 23
M  V30 65 1 58 25
M  V30 66 1 59 25
M  V30 67 1 60 26
M  V30 68 1 61 27
M  V30 69 1 62 27
M  V30 70 1 63 28
M  V30 71 1 64 28
M  V30 72 1 65 29
M  V30 73 1 66 29
M  V30 74 1 67 31
M  V30 75 1 68 31
M  V30 76 1 69 32
M  V30 77 1 70 32
M  V30 78 1 71 35
M  V30 79 1 72 35
M  V30 80 1 73 36
M  V30 81 1 74 36
M  V30 82 1 75 36
M  V30 83 1 37 76 CFG=1
M  V30 84 1 18 77 CFG=1
M  V30 85 1 78 26
M  V30 86 1 34 79 CFG=3
M  V30 END BOND
M  V30 END CTAB
M  END
>  <i_epik_Tot_Q>  (1) 
3

>  <i_epik_Tot_abs_Q>  (1) 
3

>  <i_i_glide_confnum>  (1) 
314

>  <i_i_glide_lignum>  (1) 
81

>  <i_i_glide_posenum>  (1) 
83

>  <i_i_glide_rotatable_bonds>  (1) 
8

>  <i_lp_mmshare_version>  (1) 
72125

>  <i_m_source_file_index>  (1) 
29

>  <i_f3d_flags>  (1) 
0

>  <num_sample>  (1) 
50

>  <b_lp_Chiralities_Consistent>  (1) 
1

>  <r_epik_Charging_Adjusted_Penalty>  (1) 
2.5241965566360229

>  <r_epik_Ionization_Penalty>  (1) 
2.0480993089750741

>  <r_epik_Ionization_Penalty_Charging>  (1) 
2.0477503768466887

>  <r_epik_Ionization_Penalty_Neutral>  (1) 
0.00034893212838530931

>  <r_epik_State_Penalty>  (1) 
0.4764461797893344

>  <r_glide_ring_energy>  (1) 
0.81914574756083636

>  <r_i_docking_score>  (1) 
-5.8733452343737209

>  <r_i_glide_ecoul>  (1) 
-8.4688350267525987

>  <r_i_glide_eff_state_penalty>  (1) 
0.4764461797893344

>  <r_i_glide_einternal>  (1) 
19.104435151409106

>  <r_i_glide_emodel>  (1) 
-37.755161193484682

>  <r_i_glide_emodel_strain>  (1) 
4.4727423490633669

>  <r_i_glide_energy>  (1) 
-39.835019580877976

>  <r_i_glide_erotb>  (1) 
0.44698704239028575

>  <r_i_glide_esite>  (1) 
-0.13045034855167731

>  <r_i_glide_evdw>  (1) 
-31.366184554125375

>  <r_i_glide_gscore>  (1) 
-6.3497914141630556

>  <r_i_glide_gscore_strain>  (1) 
0.11818558726584172

>  <r_i_glide_hbond>  (1) 
-0.077765340266249317

>  <r_i_glide_ligand_efficiency>  (1) 
-0.15873906038847893

>  <r_i_glide_ligand_efficiency_ln>  (1) 
-1.2737908905876689

>  <r_i_glide_ligand_efficiency_sa>  (1) 
-0.5289537657362362

>  <r_i_glide_lipo>  (1) 
-2.7525342938776949

>  <r_i_glide_metal>  (1) 
-0

>  <r_i_glide_rewards>  (1) 
-1.1155795794044034

>  <r_lp_Energy>  (1) 
75.273594000000003

>  <s_epik_Chemistry_Notes>  (1) 
This compound has an ester and may undergo hydrolysis at high or low pH. This compound contains an acetal/aminal-like group ( X-CH(R)-Y where X, Y are N, S, or O) that may be acid/base labile, releasing an aldehyde.

>  <s_epik_cmdline>  (1) 
J2VwaWtfcHl0aG9uJywgJy1waHQnLCAnMS4wJywgJy1waCcsICc3LjQnLCAnLXRuJywgJzgnLCAnLW1hJywgJzUwMCcsICctaW1hZScsICc8aW5maWxlLm1hZT4nLCAnLW9tYWUnLCAnPG91dGZpbGUubWFlPic=

>  <s_epik_input>  (1) 
Tz1DKE8xKUMxKEYpW0NIMl1bQ0BASF0yW05IXVtDSDJdW0NIMl1OMltDQEBIXTNbQ0gyXVtDSDJdW0NASF0oW0NAQEhdKE80KVtDQEhdMzQpTjVbQ0gyXVtDSDJdW0NAQEhdKFtDQEhdNTYpTihbQ0gyXVtDSDJdNilbQ0BAXShbQ0gzXSkoW0NIMl1bQ0BASF03W09IXSlbQ0BAXTc4W0NASF0oTzgpW0NIMl1PW0NIM10=

>  <s_glide_docking_method>  (1) 
confgen

>  <s_i_glide_gridfile>  (1) 
gpcr_drd2_6luq_protein_autoprepared_prepared

>  <s_lp_Force_Field>  (1) 
S-OPLS

>  <s_lp_Variant>  (1) 
DiffSBDD_28-4

>  <s_m_source_file>  (1) 
generated_generic_title2_ligand_DiffSBDD_2026-06-23_prepared.sdf

>  <GenAI_Model>  (1) 
DiffSBDD

>  <Protein>  (1) 
generic_title2

$$$$
DiffSBDD_20
     RDKit          3D

  0  0  0  0  0  0  0  0  0  0999 V3000
M  V30 BEGIN CTAB
M  V30 COUNTS 72 74 0 0 1
M  V30 BEGIN ATOM
M  V30 1 C 11.470574 5.624915 -19.249068 0
M  V30 2 C 5.220859 7.833890 -15.463554 0
M  V30 3 C 7.547706 4.598732 -16.899044 0 CFG=2
M  V30 4 C 10.180280 5.559973 -19.583130 0
M  V30 5 C 12.080410 5.390225 -17.933755 0 CFG=1
M  V30 6 C 12.517730 7.831470 -9.787788 0
M  V30 7 C 9.521858 6.530689 -10.764236 0 CFG=1
M  V30 8 F 12.851013 6.432619 -17.631422 0
M  V30 9 C 7.453741 6.471008 -12.461841 0
M  V30 10 O 11.375462 9.570331 -9.184980 0
M  V30 11 C 7.244349 4.873078 -15.397846 0
M  V30 12 C 8.980039 6.365676 -12.211240 0 CFG=2
M  V30 13 C 11.775314 7.558539 -6.881274 0
M  V30 14 C 9.015979 5.235827 -18.745421 0
M  V30 15 C 8.963007 4.878455 -17.430389 0
M  V30 16 C 10.100463 4.721457 -16.497339 0
M  V30 17 C 10.068774 7.952381 -10.472173 0 CFG=2
M  V30 18 C 6.120685 6.705704 -17.626591 0
M  V30 19 N 7.775402 6.181251 -14.966337 0 CHG=1
M  V30 20 C 4.944284 6.883075 -16.647592 0
M  V30 21 C 9.418316 8.188604 -7.307172 0
M  V30 22 C 7.101870 6.956023 -13.892772 0 CFG=1
M  V30 23 O 9.430236 5.146807 -12.768490 0
M  V30 24 C 11.104130 8.197551 -9.317466 0 CFG=1
M  V30 25 S 7.459669 5.301044 -19.515114 0
M  V30 26 C 11.406364 4.935381 -16.704008 0
M  V30 27 C 10.678951 7.569496 -7.944033 0
M  V30 28 C 5.590505 7.134850 -14.132581 0
M  V30 29 C 6.564916 5.255956 -17.936881 0 CFG=1
M  V30 30 O 8.975432 8.790283 -10.421264 0
M  V30 31 N 8.575910 5.990187 -9.754031 0 CHG=1
M  V30 32 H 12.173546 5.885170 -20.027659 0
M  V30 33 H 4.300563 8.390943 -15.289218 0
M  V30 34 H 5.946840 8.602267 -15.729246 0
M  V30 35 H 7.426568 3.521829 -17.028297 0
M  V30 36 H 9.960369 5.781222 -20.617504 0
M  V30 37 H 12.805338 4.600150 -18.133726 0
M  V30 38 H 12.575175 6.790287 -9.985337 0
M  V30 39 H 13.297417 8.072272 -9.064694 0
M  V30 40 H 12.785742 8.339345 -10.717477 0
M  V30 41 H 10.440873 5.990602 -10.705734 0
M  V30 42 H 6.956175 5.526359 -12.240176 0
M  V30 43 H 7.032007 7.195873 -11.764980 0
M  V30 44 H 12.096649 9.673625 -8.583987 0
M  V30 45 H 6.173987 4.780954 -15.235170 0
M  V30 46 H 7.691796 4.102630 -14.769753 0
M  V30 47 H 9.461076 7.150253 -12.785327 0
M  V30 48 H 12.178824 8.555702 -6.704213 0
M  V30 49 H 12.575452 6.889945 -7.185003 0
M  V30 50 H 11.398450 7.177156 -5.929966 0
M  V30 51 H 9.846816 4.390247 -15.503528 0
M  V30 52 H 10.574990 8.284389 -11.371528 0
M  V30 53 H 5.808610 7.170812 -18.563546 0
M  V30 54 H 6.975136 7.294235 -17.316802 0
M  V30 55 H 8.739874 6.041495 -14.692817 0
M  V30 56 H 4.563185 5.928330 -16.299250 0
M  V30 57 H 4.115614 7.305065 -17.220160 0
M  V30 58 H 9.622252 9.190296 -6.938250 0
M  V30 59 H 9.079959 7.597214 -6.455726 0
M  V30 60 H 8.576733 8.260113 -7.984156 0
M  V30 61 H 7.537660 7.952492 -13.970153 0
M  V30 62 H 9.166803 4.416581 -12.227818 0
M  V30 63 H 12.073100 4.761363 -15.874541 0
M  V30 64 H 10.476420 6.515433 -8.119939 0
M  V30 65 H 5.206509 7.751843 -13.319555 0
M  V30 66 H 5.051586 6.193769 -14.016399 0
M  V30 67 H 5.684361 4.642875 -18.100904 0
M  V30 68 H 8.262023 8.416045 -9.896569 0
M  V30 69 H 7.788006 6.642597 -9.630861 0
M  V30 70 H 9.030072 5.927961 -8.855557 0
M  V30 71 H 7.763302 6.771213 -15.784367 0
M  V30 72 H 8.220105 5.085402 -10.022154 0
M  V30 END ATOM
M  V30 BEGIN BOND
M  V30 1 2 4 1
M  V30 2 1 5 1
M  V30 3 1 8 5
M  V30 4 1 11 3
M  V30 5 1 12 7
M  V30 6 1 12 9
M  V30 7 1 14 4
M  V30 8 1 15 3
M  V30 9 2 15 14
M  V30 10 1 16 15
M  V30 11 1 17 7
M  V30 12 1 19 11
M  V30 13 1 20 2
M  V30 14 1 20 18
M  V30 15 1 22 9
M  V30 16 1 22 19
M  V30 17 1 23 12
M  V30 18 1 24 6
M  V30 19 1 24 10 CFG=1
M  V30 20 1 24 17
M  V30 21 1 25 14
M  V30 22 1 26 5
M  V30 23 2 26 16
M  V30 24 1 27 13
M  V30 25 1 27 21
M  V30 26 1 27 24
M  V30 27 1 28 2
M  V30 28 1 28 22
M  V30 29 1 29 3
M  V30 30 1 29 18
M  V30 31 1 29 25
M  V30 32 1 30 17
M  V30 33 1 31 7
M  V30 34 1 32 1
M  V30 35 1 33 2
M  V30 36 1 34 2
M  V30 37 1 3 35 CFG=1
M  V30 38 1 36 4
M  V30 39 1 5 37 CFG=3
M  V30 40 1 38 6
M  V30 41 1 39 6
M  V30 42 1 40 6
M  V30 43 1 7 41 CFG=3
M  V30 44 1 42 9
M  V30 45 1 43 9
M  V30 46 1 44 10
M  V30 47 1 45 11
M  V30 48 1 46 11
M  V30 49 1 12 47 CFG=3
M  V30 50 1 48 13
M  V30 51 1 49 13
M  V30 52 1 50 13
M  V30 53 1 51 16
M  V30 54 1 17 52 CFG=3
M  V30 55 1 53 18
M  V30 56 1 54 18
M  V30 57 1 55 19
M  V30 58 1 56 20
M  V30 59 1 57 20
M  V30 60 1 58 21
M  V30 61 1 59 21
M  V30 62 1 60 21
M  V30 63 1 22 61 CFG=1
M  V30 64 1 62 23
M  V30 65 1 63 26
M  V30 66 1 64 27
M  V30 67 1 65 28
M  V30 68 1 66 28
M  V30 69 1 29 67 CFG=3
M  V30 70 1 68 30
M  V30 71 1 69 31
M  V30 72 1 70 31
M  V30 73 1 71 19
M  V30 74 1 72 31
M  V30 END BOND
M  V30 END CTAB
M  END
>  <i_epik_Tot_Q>  (1) 
2

>  <i_epik_Tot_abs_Q>  (1) 
2

>  <i_i_glide_confnum>  (1) 
68

>  <i_i_glide_lignum>  (1) 
65

>  <i_i_glide_posenum>  (1) 
142

>  <i_i_glide_rotatable_bonds>  (1) 
9

>  <i_lp_mmshare_version>  (1) 
72125

>  <i_m_source_file_index>  (1) 
21

>  <i_f3d_flags>  (1) 
0

>  <num_sample>  (1) 
50

>  <b_lp_Chiralities_Consistent>  (1) 
1

>  <r_epik_Charging_Adjusted_Penalty>  (1) 
0.28425092081310654

>  <r_epik_Ionization_Penalty>  (1) 
0.14293687999153612

>  <r_epik_Ionization_Penalty_Charging>  (1) 
0.14293530953308087

>  <r_epik_Ionization_Penalty_Neutral>  (1) 
1.5704584552406844e-06

>  <r_epik_State_Penalty>  (1) 
0.14131561128002565

>  <r_glide_ring_energy>  (1) 
0

>  <r_i_docking_score>  (1) 
-5.8723215764602754

>  <r_i_glide_ecoul>  (1) 
-14.468068743929937

>  <r_i_glide_eff_state_penalty>  (1) 
0.14131561128002565

>  <r_i_glide_einternal>  (1) 
18.142194184738152

>  <r_i_glide_emodel>  (1) 
-39.185302168436678

>  <r_i_glide_emodel_strain>  (1) 
2.6330453824875235

>  <r_i_glide_energy>  (1) 
-31.534571113248028

>  <r_i_glide_erotb>  (1) 
0.38550374204318533

>  <r_i_glide_esite>  (1) 
-0.091471010771297961

>  <r_i_glide_evdw>  (1) 
-17.066502369318091

>  <r_i_glide_gscore>  (1) 
-6.0136371877403008

>  <r_i_glide_gscore_strain>  (1) 
0

>  <r_i_glide_hbond>  (1) 
-0.32672014440837405

>  <r_i_glide_ligand_efficiency>  (1) 
-0.1894297282729121

>  <r_i_glide_ligand_efficiency_ln>  (1) 
-1.3243884805351263

>  <r_i_glide_ligand_efficiency_sa>  (1) 
-0.59507088338428504

>  <r_i_glide_lipo>  (1) 
-1.9878768951828867

>  <r_i_glide_metal>  (1) 
-0

>  <r_i_glide_rewards>  (1) 
-0.96953744936553121

>  <r_lp_Energy>  (1) 
50.051933999999996

>  <s_epik_cmdline>  (1) 
J2VwaWtfcHl0aG9uJywgJy1waHQnLCAnMS4wJywgJy1waCcsICc3LjQnLCAnLXRuJywgJzgnLCAnLW1hJywgJzUwMCcsICctaW1hZScsICc8aW5maWxlLm1hZT4nLCAnLW9tYWUnLCAnPG91dGZpbGUubWFlPic=

>  <s_epik_input>  (1) 
W0NIXTE9W0NIXVtDQEhdKEYpW0NIXT1bQ0hdQyg9QzFbQ0BASF0yMylTW0NAQEhdM1tDSDJdW0NIMl1bQ0gyXVtDSDJdW0NASF0oW05IXVtDSDJdMilbQ0gyXVtDQEhdKFtPSF0pW0NASF0oW05IMl0pW0NAQEhdKFtPSF0pW0NAQF0oW0NIM10pKFtPSF0pW0NIXShbQ0gzXSlbQ0gzXQ==

>  <s_glide_docking_method>  (1) 
confgen

>  <s_i_glide_gridfile>  (1) 
gpcr_drd2_6luq_protein_autoprepared_prepared

>  <s_lp_Force_Field>  (1) 
S-OPLS

>  <s_lp_Variant>  (1) 
DiffSBDD_20-2

>  <s_m_source_file>  (1) 
generated_generic_title2_ligand_DiffSBDD_2026-06-23_prepared.sdf

>  <GenAI_Model>  (1) 
DiffSBDD

>  <Protein>  (1) 
generic_title2

$$$$
DiffSBDD_30
     RDKit          3D

  0  0  0  0  0  0  0  0  0  0999 V3000
M  V30 BEGIN CTAB
M  V30 COUNTS 44 44 0 0 1
M  V30 BEGIN ATOM
M  V30 1 C 10.139696 7.311369 -10.880878 0
M  V30 2 N 11.775398 7.256525 -4.209636 0 CHG=-1
M  V30 3 C 7.954465 2.384706 -13.227773 0
M  V30 4 O 10.776161 8.434716 -6.639818 0
M  V30 5 C 12.013260 7.072931 -2.804545 0
M  V30 6 C 7.432589 3.762245 -12.778605 0
M  V30 7 O 9.281295 5.139061 -13.508189 0
M  V30 8 F 6.609126 3.564311 -11.746795 0
M  V30 9 N 6.845287 1.492090 -13.522871 0
M  V30 10 C 11.821955 8.613062 -4.378330 0
M  V30 11 C 10.087215 7.591863 -9.360706 0 CFG=2
M  V30 12 C 12.175521 8.511642 -2.357625 0
M  V30 13 C 8.796543 7.292315 -11.640723 0
M  V30 14 C 8.557320 4.747809 -12.353083 0 CFG=1
M  V30 15 F 13.130772 6.390239 -2.584434 0
M  V30 16 F 10.975232 6.493536 -2.203190 0
M  V30 17 C 11.637050 9.186587 -5.786768 0
M  V30 18 O 12.412517 8.790227 -1.185262 0
M  V30 19 N 11.571087 7.465404 -7.357147 0
M  V30 20 F 6.711258 4.310582 -13.760141 0
M  V30 21 O 9.375422 8.789344 -9.171474 0
M  V30 22 C 11.489139 7.825431 -8.765883 0
M  V30 23 O 7.773137 5.590216 -10.258788 0
M  V30 24 N 12.027038 9.392733 -3.400214 0
M  V30 25 C 7.982420 5.976076 -11.600047 0 CFG=1
M  V30 26 H 10.754868 8.084745 -11.320932 0
M  V30 27 H 10.664903 6.390227 -11.092350 0
M  V30 28 H 8.575410 2.483090 -14.116572 0
M  V30 29 H 8.573482 1.941028 -12.446754 0
M  V30 30 H 10.048477 4.588869 -13.587303 0
M  V30 31 H 7.174805 0.549182 -13.673715 0
M  V30 32 H 6.222005 1.458061 -12.728041 0
M  V30 33 H 9.578837 6.780334 -8.840471 0
M  V30 34 H 8.175011 8.115000 -11.292942 0
M  V30 35 H 8.987566 7.542533 -12.684216 0
M  V30 36 H 9.270446 4.240584 -11.699822 0
M  V30 37 H 12.613359 9.360980 -6.242529 0
M  V30 38 H 11.181428 10.172467 -5.687797 0
M  V30 39 H 11.122911 6.580058 -7.164794 0
M  V30 40 H 8.441790 8.555823 -9.185102 0
M  V30 41 H 12.200761 7.190221 -9.288906 0
M  V30 42 H 11.833738 8.849060 -8.921528 0
M  V30 43 H 7.375416 6.336677 -9.806726 0
M  V30 44 H 7.005407 6.208677 -12.025382 0
M  V30 END ATOM
M  V30 BEGIN BOND
M  V30 1 1 5 2
M  V30 2 1 6 3
M  V30 3 1 8 6
M  V30 4 1 9 3
M  V30 5 1 10 2
M  V30 6 1 11 1
M  V30 7 1 12 5
M  V30 8 1 13 1
M  V30 9 1 14 6
M  V30 10 1 14 7
M  V30 11 1 15 5
M  V30 12 1 16 5
M  V30 13 1 17 4
M  V30 14 1 17 10
M  V30 15 2 18 12
M  V30 16 1 19 4
M  V30 17 1 20 6
M  V30 18 1 21 11
M  V30 19 1 22 11
M  V30 20 1 22 19
M  V30 21 2 24 10
M  V30 22 1 24 12
M  V30 23 1 25 13
M  V30 24 1 25 14
M  V30 25 1 25 23
M  V30 26 1 26 1
M  V30 27 1 27 1
M  V30 28 1 28 3
M  V30 29 1 29 3
M  V30 30 1 30 7
M  V30 31 1 31 9
M  V30 32 1 32 9
M  V30 33 1 11 33 CFG=1
M  V30 34 1 34 13
M  V30 35 1 35 13
M  V30 36 1 14 36 CFG=1
M  V30 37 1 37 17
M  V30 38 1 38 17
M  V30 39 1 39 19
M  V30 40 1 40 21
M  V30 41 1 41 22
M  V30 42 1 42 22
M  V30 43 1 43 23
M  V30 44 1 25 44 CFG=3
M  V30 END BOND
M  V30 END CTAB
M  END
>  <i_epik_Tot_Q>  (1) 
-1

>  <i_epik_Tot_abs_Q>  (1) 
1

>  <i_i_glide_confnum>  (1) 
127

>  <i_i_glide_lignum>  (1) 
89

>  <i_i_glide_posenum>  (1) 
102

>  <i_i_glide_rotatable_bonds>  (1) 
14

>  <i_lp_mmshare_version>  (1) 
72125

>  <i_m_source_file_index>  (1) 
31

>  <i_f3d_flags>  (1) 
0

>  <num_sample>  (1) 
50

>  <b_lp_Chiralities_Consistent>  (1) 
1

>  <r_epik_Charging_Adjusted_Penalty>  (1) 
0.29689953438897132

>  <r_epik_Ionization_Penalty>  (1) 
0.29704553669164502

>  <r_epik_Ionization_Penalty_Charging>  (1) 
1.7526919545429853e-05

>  <r_epik_Ionization_Penalty_Neutral>  (1) 
0.29702800977209959

>  <r_epik_State_Penalty>  (1) 
0.29688200746942589

>  <r_glide_ring_energy>  (1) 
0

>  <r_i_docking_score>  (1) 
-5.8660393964926945

>  <r_i_glide_ecoul>  (1) 
-11.401391696606092

>  <r_i_glide_eff_state_penalty>  (1) 
0.29688200746942589

>  <r_i_glide_einternal>  (1) 
14.609658114310431

>  <r_i_glide_emodel>  (1) 
-47.905735888203559

>  <r_i_glide_emodel_strain>  (1) 
2.0118804938161645

>  <r_i_glide_energy>  (1) 
-40.28587589461813

>  <r_i_glide_erotb>  (1) 
1.2361090002768802

>  <r_i_glide_esite>  (1) 
0

>  <r_i_glide_evdw>  (1) 
-28.884484198012039

>  <r_i_glide_gscore>  (1) 
-6.1629214039621205

>  <r_i_glide_gscore_strain>  (1) 
0

>  <r_i_glide_hbond>  (1) 
-0.4541661554013981

>  <r_i_glide_ligand_efficiency>  (1) 
-0.23464157585970777

>  <r_i_glide_ligand_efficiency_ln>  (1) 
-1.3904271279840172

>  <r_i_glide_ligand_efficiency_sa>  (1) 
-0.68609612993600544

>  <r_i_glide_lipo>  (1) 
-1.3030979103698093

>  <r_i_glide_metal>  (1) 
-0

>  <r_i_glide_rewards>  (1) 
-2.4873333740762775

>  <r_lp_Energy>  (1) 
24.598537

>  <s_epik_Chemistry_Notes>  (1) 
This compound has an imine and may undergo hydrolysis. This compound has a N-S or N-O group and may undergo hydrolysis at high or low pH.

>  <s_epik_cmdline>  (1) 
J2VwaWtfcHl0aG9uJywgJy1waHQnLCAnMS4wJywgJy1waCcsICc3LjQnLCAnLXRuJywgJzgnLCAnLW1hJywgJzUwMCcsICctaW1hZScsICc8aW5maWxlLm1hZT4nLCAnLW9tYWUnLCAnPG91dGZpbGUubWFlPic=

>  <s_epik_input>  (1) 
W05IMl1bQ0gyXUMoRikoRilbQ0BASF0oW09IXSlbQ0BASF0oW09IXSlbQ0gyXVtDSDJdW0NASF0oW09IXSlbQ0gyXVtOSF1PW0NIMl1DKD1OQzEoRilGKVtOSF1DMT1P

>  <s_glide_docking_method>  (1) 
confgen

>  <s_i_glide_gridfile>  (1) 
gpcr_drd2_6luq_protein_autoprepared_prepared

>  <s_lp_Force_Field>  (1) 
S-OPLS

>  <s_lp_Variant>  (1) 
DiffSBDD_30-1

>  <s_m_source_file>  (1) 
generated_generic_title2_ligand_DiffSBDD_2026-06-23_prepared.sdf

>  <GenAI_Model>  (1) 
DiffSBDD

>  <Protein>  (1) 
generic_title2

$$$$
DiffSBDD_30
     RDKit          3D

  0  0  0  0  0  0  0  0  0  0999 V3000
M  V30 BEGIN CTAB
M  V30 COUNTS 44 44 0 0 1
M  V30 BEGIN ATOM
M  V30 1 C 9.979477 7.240061 -11.456163 0
M  V30 2 N 11.430696 9.064339 -5.001443 0 CHG=-1
M  V30 3 C 7.442404 2.505775 -13.952781 0
M  V30 4 O 11.375403 6.942667 -7.500271 0
M  V30 5 C 12.143982 9.123504 -3.756661 0
M  V30 6 C 7.051664 3.720246 -13.077878 0
M  V30 7 O 8.975398 4.988259 -13.770766 0
M  V30 8 F 6.371270 3.286490 -12.014624 0
M  V30 9 N 8.000039 1.407099 -13.185026 0
M  V30 10 C 11.208678 7.727734 -5.185032 0
M  V30 11 C 10.121900 7.605569 -9.960441 0 CFG=2
M  V30 12 C 12.175409 7.654633 -3.374967 0
M  V30 13 C 8.539949 7.191794 -12.018431 0
M  V30 14 C 8.232262 4.623701 -12.618167 0 CFG=1
M  V30 15 F 11.473640 9.839869 -2.853866 0
M  V30 16 F 13.375411 9.590230 -3.942665 0
M  V30 17 C 10.479262 7.284561 -6.445507 0
M  V30 18 O 12.665019 7.281036 -2.313071 0
M  V30 19 N 11.752636 8.163516 -8.167487 0
M  V30 20 F 6.214509 4.458276 -13.810855 0
M  V30 21 O 9.375410 8.771298 -9.689767 0
M  V30 22 C 11.588516 7.916285 -9.591428 0
M  V30 23 O 7.694212 5.585911 -10.444310 0
M  V30 24 N 11.593793 6.865197 -4.335781 0
M  V30 25 C 7.751894 5.878244 -11.822641 0 CFG=1
M  V30 26 H 10.513299 7.990207 -12.030907 0
M  V30 27 H 10.493665 6.301222 -11.658880 0
M  V30 28 H 6.552516 2.121533 -14.451681 0
M  V30 29 H 8.135414 2.795456 -14.742884 0
M  V30 30 H 9.840352 5.257393 -13.497454 0
M  V30 31 H 8.293002 0.659927 -13.797648 0
M  V30 32 H 8.812610 1.692493 -12.652888 0
M  V30 33 H 9.734249 6.792243 -9.347216 0
M  V30 34 H 7.952966 8.016319 -11.613507 0
M  V30 35 H 8.575405 7.410113 -13.085247 0
M  V30 36 H 8.909682 4.037334 -11.995054 0
M  V30 37 H 9.750490 8.038284 -6.753792 0
M  V30 38 H 9.897061 6.393312 -6.208061 0
M  V30 39 H 12.717769 8.320669 -7.916618 0
M  V30 40 H 8.454891 8.505149 -9.585024 0
M  V30 41 H 12.238125 7.093488 -9.881147 0
M  V30 42 H 11.936237 8.794843 -10.136086 0
M  V30 43 H 7.373725 6.362766 -9.985009 0
M  V30 44 H 6.729626 6.103195 -12.126767 0
M  V30 END ATOM
M  V30 BEGIN BOND
M  V30 1 1 5 2
M  V30 2 1 6 3
M  V30 3 1 8 6
M  V30 4 1 9 3
M  V30 5 1 10 2
M  V30 6 1 11 1
M  V30 7 1 12 5
M  V30 8 1 13 1
M  V30 9 1 14 6
M  V30 10 1 14 7
M  V30 11 1 15 5
M  V30 12 1 16 5
M  V30 13 1 17 4
M  V30 14 1 17 10
M  V30 15 2 18 12
M  V30 16 1 19 4
M  V30 17 1 20 6
M  V30 18 1 21 11
M  V30 19 1 22 11
M  V30 20 1 22 19
M  V30 21 2 24 10
M  V30 22 1 24 12
M  V30 23 1 25 13
M  V30 24 1 25 14
M  V30 25 1 25 23
M  V30 26 1 26 1
M  V30 27 1 27 1
M  V30 28 1 28 3
M  V30 29 1 29 3
M  V30 30 1 30 7
M  V30 31 1 31 9
M  V30 32 1 32 9
M  V30 33 1 11 33 CFG=1
M  V30 34 1 34 13
M  V30 35 1 35 13
M  V30 36 1 14 36 CFG=1
M  V30 37 1 37 17
M  V30 38 1 38 17
M  V30 39 1 39 19
M  V30 40 1 40 21
M  V30 41 1 41 22
M  V30 42 1 42 22
M  V30 43 1 43 23
M  V30 44 1 25 44 CFG=3
M  V30 END BOND
M  V30 END CTAB
M  END
>  <i_epik_Tot_Q>  (1) 
-1

>  <i_epik_Tot_abs_Q>  (1) 
1

>  <i_i_glide_confnum>  (1) 
127

>  <i_i_glide_lignum>  (1) 
89

>  <i_i_glide_posenum>  (1) 
102

>  <i_i_glide_rotatable_bonds>  (1) 
14

>  <i_lp_mmshare_version>  (1) 
72125

>  <i_m_source_file_index>  (1) 
31

>  <i_f3d_flags>  (1) 
0

>  <num_sample>  (1) 
50

>  <b_lp_Chiralities_Consistent>  (1) 
1

>  <r_epik_Charging_Adjusted_Penalty>  (1) 
0.29689953438897132

>  <r_epik_Ionization_Penalty>  (1) 
0.29704553669164502

>  <r_epik_Ionization_Penalty_Charging>  (1) 
1.7526919545429853e-05

>  <r_epik_Ionization_Penalty_Neutral>  (1) 
0.29702800977209959

>  <r_epik_State_Penalty>  (1) 
0.29688200746942589

>  <r_glide_ring_energy>  (1) 
0

>  <r_i_docking_score>  (1) 
-5.8411668773804326

>  <r_i_glide_ecoul>  (1) 
-12.407692041364037

>  <r_i_glide_eff_state_penalty>  (1) 
0.29688200746942589

>  <r_i_glide_einternal>  (1) 
17.877932874957072

>  <r_i_glide_emodel>  (1) 
-47.892956499688367

>  <r_i_glide_emodel_strain>  (1) 
1.8370934445192617

>  <r_i_glide_energy>  (1) 
-41.800799996626452

>  <r_i_glide_erotb>  (1) 
1.2361090002768802

>  <r_i_glide_esite>  (1) 
0

>  <r_i_glide_evdw>  (1) 
-29.393107955262415

>  <r_i_glide_gscore>  (1) 
-6.1380488848498587

>  <r_i_glide_gscore_strain>  (1) 
0

>  <r_i_glide_hbond>  (1) 
-0.33132866544903122

>  <r_i_glide_ligand_efficiency>  (1) 
-0.2336466750952173

>  <r_i_glide_ligand_efficiency_ln>  (1) 
-1.3845315955851609

>  <r_i_glide_ligand_efficiency_sa>  (1) 
-0.68318702245287377

>  <r_i_glide_lipo>  (1) 
-1.2028740369554045

>  <r_i_glide_metal>  (1) 
-0

>  <r_i_glide_rewards>  (1) 
-2.5091459787545771

>  <r_lp_Energy>  (1) 
24.598537

>  <s_epik_Chemistry_Notes>  (1) 
This compound has an imine and may undergo hydrolysis. This compound has a N-S or N-O group and may undergo hydrolysis at high or low pH.

>  <s_epik_cmdline>  (1) 
J2VwaWtfcHl0aG9uJywgJy1waHQnLCAnMS4wJywgJy1waCcsICc3LjQnLCAnLXRuJywgJzgnLCAnLW1hJywgJzUwMCcsICctaW1hZScsICc8aW5maWxlLm1hZT4nLCAnLW9tYWUnLCAnPG91dGZpbGUubWFlPic=

>  <s_epik_input>  (1) 
W05IMl1bQ0gyXUMoRikoRilbQ0BASF0oW09IXSlbQ0BASF0oW09IXSlbQ0gyXVtDSDJdW0NASF0oW09IXSlbQ0gyXVtOSF1PW0NIMl1DKD1OQzEoRilGKVtOSF1DMT1P

>  <s_glide_docking_method>  (1) 
confgen

>  <s_i_glide_gridfile>  (1) 
gpcr_drd2_6luq_protein_autoprepared_prepared

>  <s_lp_Force_Field>  (1) 
S-OPLS

>  <s_lp_Variant>  (1) 
DiffSBDD_30-1

>  <s_m_source_file>  (1) 
generated_generic_title2_ligand_DiffSBDD_2026-06-23_prepared.sdf

>  <GenAI_Model>  (1) 
DiffSBDD

>  <Protein>  (1) 
generic_title2

$$$$
DiffSBDD_2
     RDKit          3D

  0  0  0  0  0  0  0  0  0  0999 V3000
M  V30 BEGIN CTAB
M  V30 COUNTS 61 63 0 0 1
M  V30 BEGIN ATOM
M  V30 1 C 10.218627 7.514247 -7.585219 0 CFG=1
M  V30 2 C 10.375422 6.625345 -12.000982 0
M  V30 3 C 10.660218 6.070382 -7.276780 0
M  V30 4 C 5.190691 5.769927 -11.203520 0
M  V30 5 N 5.793548 7.172051 -15.652539 0
M  V30 6 C 9.115218 6.270947 -12.777623 0 CFG=2
M  V30 7 C 12.423674 8.632959 -7.830274 0
M  V30 8 C 7.833183 7.008001 -12.475115 0 CFG=2
M  V30 9 C 4.212882 7.099134 -17.495149 0
M  V30 10 C 6.424969 6.669830 -14.650344 0
M  V30 11 C 5.456538 6.522839 -16.827099 0
M  V30 12 C 6.877473 4.708650 -12.948868 0 CFG=1
M  V30 13 C 10.144061 7.196351 -10.578708 0
M  V30 14 C 11.413051 7.622870 -9.822235 0
M  V30 15 C 7.914596 5.536763 -12.198634 0 CFG=1
M  V30 16 C 7.837352 4.597006 -15.325707 0
M  V30 17 C 12.191423 9.466944 -6.557849 0
M  V30 18 C 11.265056 8.737362 -5.582377 0
M  V30 19 O 6.059959 5.590237 -17.350888 0
M  V30 20 C 5.566650 4.574590 -12.112675 0
M  V30 21 C 6.681108 5.144938 -14.446897 0 CFG=2
M  V30 22 C 9.971537 8.312075 -6.291578 0
M  V30 23 N 11.150089 8.254047 -8.497009 0 CFG=1 CHG=1
M  V30 24 C 6.954589 7.572731 -13.554616 0
M  V30 25 H 9.244709 7.456810 -8.074174 0
M  V30 26 H 10.975447 5.720699 -11.985051 0
M  V30 27 H 10.937947 7.344800 -12.593948 0
M  V30 28 H 9.918971 5.590847 -6.638842 0
M  V30 29 H 10.733647 5.460036 -8.174330 0
M  V30 30 H 11.614932 6.021920 -6.755084 0
M  V30 31 H 4.301738 5.590228 -10.606774 0
M  V30 32 H 5.974345 5.990229 -10.480638 0
M  V30 33 H 4.985341 6.669031 -11.776377 0
M  V30 34 H 9.341974 5.990227 -13.799328 0
M  V30 35 H 12.976394 7.728097 -7.585533 0
M  V30 36 H 13.050583 9.190197 -8.526352 0
M  V30 37 H 7.762128 7.619024 -11.585011 0
M  V30 38 H 3.452654 7.366481 -16.761464 0
M  V30 39 H 3.774718 6.390174 -18.195576 0
M  V30 40 H 4.481509 7.991702 -18.057148 0
M  V30 41 H 7.274599 3.692867 -12.980207 0
M  V30 42 H 9.526422 8.090241 -10.631115 0
M  V30 43 H 9.591178 6.454206 -10.005305 0
M  V30 44 H 12.091352 6.790234 -9.684986 0
M  V30 45 H 11.955164 8.343453 -10.434881 0
M  V30 46 H 8.043919 5.221397 -11.165333 0
M  V30 47 H 8.349361 5.384256 -15.880796 0
M  V30 48 H 8.594950 4.071065 -14.744709 0
M  V30 49 H 7.464276 3.874443 -16.052199 0
M  V30 50 H 13.146944 9.669154 -6.072656 0
M  V30 51 H 11.774172 10.442069 -6.806091 0
M  V30 52 H 11.773297 7.865315 -5.169337 0
M  V30 53 H 11.031054 9.385248 -4.736206 0
M  V30 54 H 4.729164 4.320332 -12.762532 0
M  V30 55 H 5.684048 3.714127 -11.452709 0
M  V30 56 H 5.782916 4.629349 -14.784764 0
M  V30 57 H 9.368990 7.722160 -5.603199 0
M  V30 58 H 9.379668 9.190163 -6.537617 0
M  V30 59 H 7.492454 8.390225 -14.026633 0
M  V30 60 H 6.087461 7.990089 -13.045756 0
M  V30 61 H 10.672915 9.120527 -8.702844 0
M  V30 END ATOM
M  V30 BEGIN BOND
M  V30 1 1 3 1
M  V30 2 1 6 2
M  V30 3 1 8 6
M  V30 4 2 10 5
M  V30 5 1 11 5
M  V30 6 1 11 9
M  V30 7 1 13 2
M  V30 8 1 14 13
M  V30 9 1 15 6
M  V30 10 1 15 8
M  V30 11 1 15 12
M  V30 12 1 17 7
M  V30 13 1 18 17
M  V30 14 2 19 11
M  V30 15 1 20 4
M  V30 16 1 20 12
M  V30 17 1 21 10
M  V30 18 1 21 12
M  V30 19 1 21 16
M  V30 20 1 22 1
M  V30 21 1 22 18
M  V30 22 1 23 1
M  V30 23 1 23 7
M  V30 24 1 23 14
M  V30 25 1 24 8
M  V30 26 1 24 10
M  V30 27 1 1 25 CFG=3
M  V30 28 1 26 2
M  V30 29 1 27 2
M  V30 30 1 28 3
M  V30 31 1 29 3
M  V30 32 1 30 3
M  V30 33 1 31 4
M  V30 34 1 32 4
M  V30 35 1 33 4
M  V30 36 1 6 34 CFG=3
M  V30 37 1 35 7
M  V30 38 1 36 7
M  V30 39 1 8 37 CFG=1
M  V30 40 1 38 9
M  V30 41 1 39 9
M  V30 42 1 40 9
M  V30 43 1 12 41 CFG=3
M  V30 44 1 42 13
M  V30 45 1 43 13
M  V30 46 1 44 14
M  V30 47 1 45 14
M  V30 48 1 15 46 CFG=1
M  V30 49 1 47 16
M  V30 50 1 48 16
M  V30 51 1 49 16
M  V30 52 1 50 17
M  V30 53 1 51 17
M  V30 54 1 52 18
M  V30 55 1 53 18
M  V30 56 1 54 20
M  V30 57 1 55 20
M  V30 58 1 21 56 CFG=3
M  V30 59 1 57 22
M  V30 60 1 58 22
M  V30 61 1 59 24
M  V30 62 1 60 24
M  V30 63 1 23 61 CFG=3
M  V30 END BOND
M  V30 END CTAB
M  END
>  <i_epik_Tot_Q>  (1) 
1

>  <i_epik_Tot_abs_Q>  (1) 
1

>  <i_i_glide_confnum>  (1) 
59

>  <i_i_glide_lignum>  (1) 
23

>  <i_i_glide_posenum>  (1) 
317

>  <i_i_glide_rotatable_bonds>  (1) 
6

>  <i_lp_mmshare_version>  (1) 
72125

>  <i_m_source_file_index>  (1) 
3

>  <i_f3d_flags>  (1) 
0

>  <num_sample>  (1) 
50

>  <b_lp_Chiralities_Consistent>  (1) 
1

>  <r_epik_Charging_Adjusted_Penalty>  (1) 
0.0011657924221308697

>  <r_epik_Ionization_Penalty>  (1) 
0.0011657924221308697

>  <r_epik_Ionization_Penalty_Charging>  (1) 
0.0011657924221308697

>  <r_epik_Ionization_Penalty_Neutral>  (1) 
0

>  <r_epik_State_Penalty>  (1) 
-0

>  <r_glide_ring_energy>  (1) 
0

>  <r_i_docking_score>  (1) 
-5.8395790687923839

>  <r_i_glide_ecoul>  (1) 
-0.90626355237590017

>  <r_i_glide_eff_state_penalty>  (1) 
-0

>  <r_i_glide_einternal>  (1) 
3.8195843571588064

>  <r_i_glide_emodel>  (1) 
-42.315513889485153

>  <r_i_glide_emodel_strain>  (1) 
1.7773669556532354

>  <r_i_glide_energy>  (1) 
-31.009986588085507

>  <r_i_glide_erotb>  (1) 
0.84713914833173298

>  <r_i_glide_esite>  (1) 
0

>  <r_i_glide_evdw>  (1) 
-30.103723035709606

>  <r_i_glide_gscore>  (1) 
-5.8395790687923839

>  <r_i_glide_gscore_strain>  (1) 
0

>  <r_i_glide_hbond>  (1) 
0

>  <r_i_glide_ligand_efficiency>  (1) 
-0.24331579453301599

>  <r_i_glide_ligand_efficiency_ln>  (1) 
-1.3976792319849234

>  <r_i_glide_ligand_efficiency_sa>  (1) 
-0.70184420022849603

>  <r_i_glide_lipo>  (1) 
-2.3681539733923391

>  <r_i_glide_metal>  (1) 
-0

>  <r_i_glide_rewards>  (1) 
-2.6774385590899126

>  <r_lp_Energy>  (1) 
47.613637999999995

>  <r_lp_tautomer_probability>  (1) 
1

>  <s_epik_Chemistry_Notes>  (1) 
This compound has an imine and may undergo hydrolysis.

>  <s_epik_cmdline>  (1) 
J2VwaWtfcHl0aG9uJywgJy1waHQnLCAnMS4wJywgJy1waCcsICc3LjQnLCAnLXRuJywgJzgnLCAnLW1hJywgJzUwMCcsICctaW1hZScsICc8aW5maWxlLm1hZT4nLCAnLW9tYWUnLCAnPG91dGZpbGUubWFlPic=

>  <s_epik_input>  (1) 
W0NIM11bQ0BIXTFbQ0gyXVtDSDJdW0NIMl1bQ0gyXU4xW0NIMl1bQ0gyXVtDSDJdW0NASF0yW0NAQEhdKFtDQEBIXTIzKVtDQEBIXShbQ0gyXVtDSDNdKVtDQEhdKFtDSDNdKS9DKFtDSDJdMyk9TlxDKD1PKVtDSDNd

>  <s_glide_docking_method>  (1) 
confgen

>  <s_i_glide_gridfile>  (1) 
gpcr_drd2_6luq_protein_autoprepared_prepared

>  <s_lp_Force_Field>  (1) 
S-OPLS

>  <s_lp_Variant>  (1) 
DiffSBDD_2-3

>  <s_m_source_file>  (1) 
generated_generic_title2_ligand_DiffSBDD_2026-06-23_prepared.sdf

>  <GenAI_Model>  (1) 
DiffSBDD

>  <Protein>  (1) 
generic_title2

$$$$
DiffSBDD_15
     RDKit          3D

  0  0  0  0  0  0  0  0  0  0999 V3000
M  V30 BEGIN CTAB
M  V30 COUNTS 46 47 0 0 1
M  V30 BEGIN ATOM
M  V30 1 C 11.776322 6.838596 -3.671293 0
M  V30 2 C 10.049405 6.196597 -8.704026 0
M  V30 3 Cl 10.781228 7.190219 -11.184509 0
M  V30 4 C 11.922666 6.712464 -2.354482 0
M  V30 5 C 12.405344 9.190531 -2.130476 0
M  V30 6 C 10.853677 8.218408 -5.601901 0 CFG=2
M  V30 7 N 8.152876 5.709447 -12.062680 0 CFG=2 CHG=1
M  V30 8 C 11.787265 8.176980 -4.375689 0 CFG=1
M  V30 9 O 6.355994 6.335145 -13.740821 0
M  V30 10 C 9.506402 6.562601 -10.102373 0 CFG=1
M  V30 11 P 6.492278 6.217746 -12.081979 0
M  V30 12 C 8.360783 4.325469 -12.488739 0
M  V30 13 C 9.413529 4.212496 -11.400962 0
M  V30 14 N 10.210669 7.376577 -7.867781 0
M  V30 15 O 12.200111 10.021774 -6.385144 0
M  V30 16 O 6.934551 7.814731 -11.985035 0
M  V30 17 C 11.006569 7.098725 -6.669986 0
M  V30 18 C 12.114972 7.890467 -1.429686 0
M  V30 19 C 11.069281 9.590504 -6.189477 0
M  V30 20 C 8.716594 5.403552 -10.744220 0 CFG=2
M  V30 21 C 11.604768 9.370937 -3.399957 0
M  V30 22 H 11.647852 5.959597 -4.283704 0
M  V30 23 H 9.343549 5.539526 -8.193511 0
M  V30 24 H 10.975536 5.643774 -8.782108 0
M  V30 25 H 11.905520 5.730686 -1.902095 0
M  V30 26 H 12.175444 10.015702 -1.454169 0
M  V30 27 H 13.466188 9.191945 -2.374287 0
M  V30 28 H 9.824597 8.179697 -5.248620 0
M  V30 29 H 12.803602 8.390296 -4.680070 0
M  V30 30 H 5.685802 6.977867 -13.923606 0
M  V30 31 H 8.878130 7.429529 -9.992001 0
M  V30 32 H 7.500907 3.679215 -12.309673 0
M  V30 33 H 8.741929 4.228175 -13.505589 0
M  V30 34 H 9.375137 3.286468 -10.826734 0
M  V30 35 H 10.413691 4.424483 -11.780762 0
M  V30 36 H 9.287070 7.708653 -7.614787 0
M  V30 37 H 6.975273 7.989718 -11.034940 0
M  V30 38 H 10.664348 6.153928 -6.246568 0
M  V30 39 H 12.050088 6.964390 -6.958425 0
M  V30 40 H 11.207054 7.990092 -0.833515 0
M  V30 41 H 12.975532 7.690993 -0.785171 0
M  V30 42 H 10.175756 10.150800 -6.385018 0
M  V30 43 H 7.926005 5.037586 -10.082948 0
M  V30 44 H 11.954049 10.288641 -3.859848 0
M  V30 45 H 10.575433 9.590398 -3.168735 0
M  V30 46 H 8.757257 6.342638 -12.567178 0
M  V30 END ATOM
M  V30 BEGIN BOND
M  V30 1 2 4 1
M  V30 2 1 8 1
M  V30 3 1 8 6
M  V30 4 1 10 2
M  V30 5 1 10 3
M  V30 6 1 11 7
M  V30 7 1 11 9
M  V30 8 1 12 7
M  V30 9 1 13 12
M  V30 10 1 14 2
M  V30 11 1 16 11
M  V30 12 1 17 6
M  V30 13 1 17 14
M  V30 14 1 18 4
M  V30 15 1 18 5
M  V30 16 1 19 6
M  V30 17 2 19 15
M  V30 18 1 20 7
M  V30 19 1 20 10
M  V30 20 1 20 13
M  V30 21 1 21 5
M  V30 22 1 21 8
M  V30 23 1 22 1
M  V30 24 1 23 2
M  V30 25 1 24 2
M  V30 26 1 25 4
M  V30 27 1 26 5
M  V30 28 1 27 5
M  V30 29 1 6 28 CFG=1
M  V30 30 1 8 29 CFG=3
M  V30 31 1 30 9
M  V30 32 1 10 31 CFG=1
M  V30 33 1 32 12
M  V30 34 1 33 12
M  V30 35 1 34 13
M  V30 36 1 35 13
M  V30 37 1 36 14
M  V30 38 1 37 16
M  V30 39 1 38 17
M  V30 40 1 39 17
M  V30 41 1 40 18
M  V30 42 1 41 18
M  V30 43 1 42 19
M  V30 44 1 20 43 CFG=1
M  V30 45 1 44 21
M  V30 46 1 45 21
M  V30 47 1 7 46 CFG=3
M  V30 END BOND
M  V30 END CTAB
M  END
>  <i_epik_Tot_Q>  (1) 
1

>  <i_epik_Tot_abs_Q>  (1) 
1

>  <i_i_glide_confnum>  (1) 
29

>  <i_i_glide_lignum>  (1) 
56

>  <i_i_glide_posenum>  (1) 
9

>  <i_i_glide_rotatable_bonds>  (1) 
10

>  <i_lp_mmshare_version>  (1) 
72125

>  <i_m_source_file_index>  (1) 
16

>  <i_f3d_flags>  (1) 
0

>  <num_sample>  (1) 
50

>  <b_lp_Chiralities_Consistent>  (1) 
1

>  <r_epik_Charging_Adjusted_Penalty>  (1) 
0.56727467886288852

>  <r_epik_Ionization_Penalty>  (1) 
0.44114962020939286

>  <r_epik_Ionization_Penalty_Charging>  (1) 
0.027117031585188044

>  <r_epik_Ionization_Penalty_Neutral>  (1) 
0.41403258862420483

>  <r_epik_State_Penalty>  (1) 
0.54015764727770044

>  <r_glide_ring_energy>  (1) 
0

>  <r_i_docking_score>  (1) 
-5.8326563657785195

>  <r_i_glide_ecoul>  (1) 
-12.724974151744146

>  <r_i_glide_eff_state_penalty>  (1) 
0.54015764727770044

>  <r_i_glide_einternal>  (1) 
4.9249074433392144

>  <r_i_glide_emodel>  (1) 
-41.892750513288703

>  <r_i_glide_emodel_strain>  (1) 
0.78392012820711798

>  <r_i_glide_energy>  (1) 
-29.112916346782871

>  <r_i_glide_erotb>  (1) 
1.004531890689508

>  <r_i_glide_esite>  (1) 
-0.099399130693392942

>  <r_i_glide_evdw>  (1) 
-16.387942195038725

>  <r_i_glide_gscore>  (1) 
-6.3728140130562201

>  <r_i_glide_gscore_strain>  (1) 
0

>  <r_i_glide_hbond>  (1) 
-0.16

>  <r_i_glide_ligand_efficiency>  (1) 
-0.27774554122754858

>  <r_i_glide_ligand_efficiency_ln>  (1) 
-1.4421125004468018

>  <r_i_glide_ligand_efficiency_sa>  (1) 
-0.76627888857474302

>  <r_i_glide_lipo>  (1) 
-2.3273364792016027

>  <r_i_glide_metal>  (1) 
-0

>  <r_i_glide_rewards>  (1) 
-2.0624670613371747

>  <r_lp_Energy>  (1) 
5.779852

>  <r_lp_tautomer_probability>  (1) 
0.99990000499974985

>  <s_epik_cmdline>  (1) 
J2VwaWtfcHl0aG9uJywgJy1waHQnLCAnMS4wJywgJy1waCcsICc3LjQnLCAnLXRuJywgJzgnLCAnLW1hJywgJzUwMCcsICctaW1hZScsICc8aW5maWxlLm1hZT4nLCAnLW9tYWUnLCAnPG91dGZpbGUubWFlPic=

>  <s_epik_input>  (1) 
W0NIMl0xW0NIMl1bQ0gyXVtDSF09W0NIXVtDQEhdMVtDQEBIXShbQ0hdPU8pW0NIMl1bTkhdW0NIMl1bQ0BASF0oQ2wpW0NAQEhdMltDSDJdW0NIMl1OMlAoW09IXSlbT0hd

>  <s_glide_docking_method>  (1) 
confgen

>  <s_i_glide_gridfile>  (1) 
gpcr_drd2_6luq_protein_autoprepared_prepared

>  <s_lp_Force_Field>  (1) 
S-OPLS

>  <s_lp_Variant>  (1) 
DiffSBDD_15-3

>  <s_m_source_file>  (1) 
generated_generic_title2_ligand_DiffSBDD_2026-06-23_prepared.sdf

>  <GenAI_Model>  (1) 
DiffSBDD

>  <Protein>  (1) 
generic_title2

$$$$
DiffSBDD_15
     RDKit          3D

  0  0  0  0  0  0  0  0  0  0999 V3000
M  V30 BEGIN CTAB
M  V30 COUNTS 47 48 0 0 1
M  V30 BEGIN ATOM
M  V30 1 C 11.136100 8.985469 -5.185042 0
M  V30 2 C 8.580120 5.738180 -10.022646 0
M  V30 3 Cl 9.652046 5.884750 -12.502002 0
M  V30 4 C 11.911933 8.986589 -4.088467 0
M  V30 5 C 11.536079 6.475462 -3.775891 0
M  V30 6 C 10.490135 7.782780 -7.372435 0 CFG=2
M  V30 7 N 6.794694 4.166001 -11.963140 0 CFG=2 CHG=1
M  V30 8 C 10.562746 7.721469 -5.819997 0 CFG=1
M  V30 9 O 6.538998 1.784461 -12.785028 0
M  V30 10 C 8.242219 6.189309 -11.460888 0 CFG=1
M  V30 11 P 7.131136 3.224054 -13.386826 0
M  V30 12 C 5.375409 4.326150 -11.662037 0
M  V30 13 C 5.636628 5.789243 -11.358014 0
M  V30 14 N 9.375410 6.793974 -9.374331 0 CHG=1
M  V30 15 O 12.664549 8.790228 -7.648147 0
M  V30 16 O 8.616438 2.790224 -12.785021 0
M  V30 17 C 9.741264 6.563242 -7.964318 0
M  V30 18 C 12.315298 7.731247 -3.337453 0
M  V30 19 C 11.841769 7.990227 -8.079113 0
M  V30 20 C 6.963647 5.618064 -12.085642 0 CFG=2
M  V30 21 C 11.253038 6.444613 -5.285240 0
M  V30 22 H 10.890605 9.922677 -5.663910 0
M  V30 23 H 7.683075 5.590223 -9.422293 0
M  V30 24 H 9.122640 4.791349 -10.023504 0
M  V30 25 H 12.284175 9.922710 -3.699476 0
M  V30 26 H 12.100048 5.590239 -3.484440 0
M  V30 27 H 10.591899 6.390228 -3.237744 0
M  V30 28 H 9.899827 8.668198 -7.611475 0
M  V30 29 H 9.527900 7.692716 -5.486381 0
M  V30 30 H 6.275250 1.232736 -13.509256 0
M  V30 31 H 8.121816 7.274402 -11.463274 0
M  V30 32 H 4.727232 4.176050 -12.527656 0
M  V30 33 H 5.059533 3.743064 -10.795484 0
M  V30 34 H 4.975409 6.502311 -11.845198 0
M  V30 35 H 5.715354 5.990220 -10.290652 0
M  V30 36 H 10.190241 6.996244 -9.934917 0
M  V30 37 H 8.584173 1.883718 -12.508799 0
M  V30 38 H 8.824240 6.382475 -7.399831 0
M  V30 39 H 10.346398 5.657433 -7.891155 0
M  V30 40 H 13.380569 7.585452 -3.503437 0
M  V30 41 H 12.185855 7.892869 -2.266605 0
M  V30 42 H 12.003869 7.386065 -8.971887 0
M  V30 43 H 6.839923 5.928084 -13.125825 0
M  V30 44 H 10.618644 5.590228 -5.493573 0
M  V30 45 H 12.175411 6.257678 -5.825077 0
M  V30 46 H 7.286836 3.807085 -11.159779 0
M  V30 47 H 8.741798 7.590933 -9.380080 0
M  V30 END ATOM
M  V30 BEGIN BOND
M  V30 1 2 4 1
M  V30 2 1 8 1
M  V30 3 1 8 6
M  V30 4 1 10 2
M  V30 5 1 10 3
M  V30 6 1 11 7
M  V30 7 1 11 9
M  V30 8 1 12 7
M  V30 9 1 13 12
M  V30 10 1 14 2
M  V30 11 1 16 11
M  V30 12 1 17 6
M  V30 13 1 17 14
M  V30 14 1 18 4
M  V30 15 1 18 5
M  V30 16 1 19 6
M  V30 17 2 19 15
M  V30 18 1 20 7
M  V30 19 1 20 10
M  V30 20 1 20 13
M  V30 21 1 21 5
M  V30 22 1 21 8
M  V30 23 1 22 1
M  V30 24 1 23 2
M  V30 25 1 24 2
M  V30 26 1 25 4
M  V30 27 1 26 5
M  V30 28 1 27 5
M  V30 29 1 6 28 CFG=1
M  V30 30 1 8 29 CFG=1
M  V30 31 1 30 9
M  V30 32 1 10 31 CFG=1
M  V30 33 1 32 12
M  V30 34 1 33 12
M  V30 35 1 34 13
M  V30 36 1 35 13
M  V30 37 1 36 14
M  V30 38 1 37 16
M  V30 39 1 38 17
M  V30 40 1 39 17
M  V30 41 1 40 18
M  V30 42 1 41 18
M  V30 43 1 42 19
M  V30 44 1 20 43 CFG=3
M  V30 45 1 44 21
M  V30 46 1 45 21
M  V30 47 1 7 46 CFG=1
M  V30 48 1 47 14
M  V30 END BOND
M  V30 END CTAB
M  END
>  <i_epik_Tot_Q>  (1) 
2

>  <i_epik_Tot_abs_Q>  (1) 
2

>  <i_i_glide_confnum>  (1) 
10

>  <i_i_glide_lignum>  (1) 
54

>  <i_i_glide_posenum>  (1) 
36

>  <i_i_glide_rotatable_bonds>  (1) 
10

>  <i_lp_mmshare_version>  (1) 
72125

>  <i_m_source_file_index>  (1) 
16

>  <i_f3d_flags>  (1) 
0

>  <num_sample>  (1) 
50

>  <b_lp_Chiralities_Consistent>  (1) 
1

>  <r_epik_Charging_Adjusted_Penalty>  (1) 
0.82033889234892232

>  <r_epik_Ionization_Penalty>  (1) 
0.44833786363099537

>  <r_epik_Ionization_Penalty_Charging>  (1) 
0.44828572222584073

>  <r_epik_Ionization_Penalty_Neutral>  (1) 
5.214140515465987e-05

>  <r_epik_State_Penalty>  (1) 
0.37205317012308153

>  <r_glide_ring_energy>  (1) 
0

>  <r_i_docking_score>  (1) 
-5.8171235615035393

>  <r_i_glide_ecoul>  (1) 
-8.7382523379458359

>  <r_i_glide_eff_state_penalty>  (1) 
0.37205317012308153

>  <r_i_glide_einternal>  (1) 
6.7203354238982653

>  <r_i_glide_emodel>  (1) 
-62.433171371445795

>  <r_i_glide_emodel_strain>  (1) 
0.6607093321974844

>  <r_i_glide_energy>  (1) 
-41.206773613585391

>  <r_i_glide_erotb>  (1) 
0.99921442309273578

>  <r_i_glide_esite>  (1) 
-0.10000000000000001

>  <r_i_glide_evdw>  (1) 
-32.468521275639553

>  <r_i_glide_gscore>  (1) 
-6.1891767316266204

>  <r_i_glide_gscore_strain>  (1) 
0

>  <r_i_glide_hbond>  (1) 
-0.15009400446655208

>  <r_i_glide_ligand_efficiency>  (1) 
-0.27700588388112091

>  <r_i_glide_ligand_efficiency_ln>  (1) 
-1.4382720459767995

>  <r_i_glide_ligand_efficiency_sa>  (1) 
-0.76423823003944602

>  <r_i_glide_lipo>  (1) 
-1.8282920813431824

>  <r_i_glide_metal>  (1) 
-0

>  <r_i_glide_rewards>  (1) 
-2.1758411544357701

>  <r_lp_Energy>  (1) 
18.968132999999998

>  <r_lp_tautomer_probability>  (1) 
0.99990000499974985

>  <s_epik_cmdline>  (1) 
J2VwaWtfcHl0aG9uJywgJy1waHQnLCAnMS4wJywgJy1waCcsICc3LjQnLCAnLXRuJywgJzgnLCAnLW1hJywgJzUwMCcsICctaW1hZScsICc8aW5maWxlLm1hZT4nLCAnLW9tYWUnLCAnPG91dGZpbGUubWFlPic=

>  <s_epik_input>  (1) 
W0NIMl0xW0NIMl1bQ0gyXVtDSF09W0NIXVtDQEhdMVtDQEBIXShbQ0hdPU8pW0NIMl1bTkhdW0NIMl1bQ0BASF0oQ2wpW0NAQEhdMltDSDJdW0NIMl1OMlAoW09IXSlbT0hd

>  <s_glide_docking_method>  (1) 
confgen

>  <s_i_glide_gridfile>  (1) 
gpcr_drd2_6luq_protein_autoprepared_prepared

>  <s_lp_Force_Field>  (1) 
S-OPLS

>  <s_lp_Variant>  (1) 
DiffSBDD_15-1

>  <s_m_source_file>  (1) 
generated_generic_title2_ligand_DiffSBDD_2026-06-23_prepared.sdf

>  <GenAI_Model>  (1) 
DiffSBDD

>  <Protein>  (1) 
generic_title2

$$$$
DiffSBDD_8
     RDKit          3D

  0  0  0  0  0  0  0  0  0  0999 V3000
M  V30 BEGIN CTAB
M  V30 COUNTS 70 73 0 0 1
M  V30 BEGIN ATOM
M  V30 1 N 11.603589 7.767135 -7.234466 0
M  V30 2 C 11.153001 9.939396 -4.085489 0
M  V30 3 C 8.974620 6.355047 -8.870876 0 CFG=1
M  V30 4 N 11.775591 8.178973 -2.655994 0
M  V30 5 O 11.475497 7.190239 -11.020678 0
M  V30 6 C 7.463700 7.174409 -13.045087 0
M  V30 7 F 11.358870 6.422277 -4.019790 0
M  V30 8 C 6.162587 6.387612 -13.300171 0
M  V30 9 N 7.883803 6.993606 -11.642632 0 CHG=1
M  V30 10 C 9.184703 7.566183 -11.253985 0 CFG=1
M  V30 11 C 11.865186 7.654324 -4.009313 0 CFG=1
M  V30 12 C 5.823665 5.589339 -19.081662 0
M  V30 13 C 9.492320 7.519820 -9.750513 0 CFG=2
M  V30 14 O 10.175344 5.493649 -11.985039 0
M  V30 15 O 12.919058 7.681360 -1.929752 0
M  V30 16 C 5.444809 6.650749 -14.637657 0
M  V30 17 C 11.626258 9.016574 -9.541512 0
M  V30 18 C 11.375442 6.400729 -6.755688 0
M  V30 19 C 12.012531 7.874794 -8.622641 0 CFG=2
M  V30 20 C 11.085876 8.629108 -4.925728 0 CFG=2
M  V30 21 C 11.527873 8.851713 -6.401142 0
M  V30 22 C 7.953932 5.260643 -9.184380 0
M  V30 23 C 10.406953 6.883577 -11.870091 0 CFG=2
M  V30 24 C 11.004753 7.656929 -9.757687 0 CFG=2
M  V30 25 O 6.568136 4.450106 -18.707553 0
M  V30 26 O 11.775444 9.987440 -6.785031 0
M  V30 27 C 6.274254 6.820853 -18.285829 0
M  V30 28 C 12.698979 6.309345 -1.586047 0
M  V30 29 C 12.026995 9.590237 -2.873332 0
M  V30 30 O 5.651082 6.901079 -17.010351 0
M  V30 31 C 6.245712 6.394246 -15.913215 0
M  V30 32 N 9.375524 5.022663 -9.263229 0 CHG=1
M  V30 33 O 7.316564 5.786860 -15.902074 0
M  V30 34 H 11.571873 10.790225 -4.614673 0
M  V30 35 H 10.185559 10.314196 -3.754507 0
M  V30 36 H 9.037707 6.539574 -7.805763 0
M  V30 37 H 8.243604 6.790204 -13.699123 0
M  V30 38 H 7.375420 8.237790 -13.263009 0
M  V30 39 H 5.449408 6.614612 -12.505725 0
M  V30 40 H 6.365777 5.319721 -13.213247 0
M  V30 41 H 7.206441 7.402813 -10.992359 0
M  V30 42 H 9.207580 8.611591 -11.566695 0
M  V30 43 H 12.915660 7.623133 -4.260790 0
M  V30 44 H 6.005031 5.762914 -20.141913 0
M  V30 45 H 4.755033 5.415881 -18.970815 0
M  V30 46 H 9.075390 8.423097 -9.300808 0
M  V30 47 H 10.827592 5.132356 -12.580107 0
M  V30 48 H 5.076741 7.677891 -14.664002 0
M  V30 49 H 4.579465 5.990079 -14.690239 0
M  V30 50 H 12.387117 9.348954 -10.247187 0
M  V30 51 H 10.975431 9.801264 -9.185021 0
M  V30 52 H 10.447188 6.294029 -6.195821 0
M  V30 53 H 11.322853 5.701590 -7.585046 0
M  V30 54 H 12.201515 6.033117 -6.155778 0
M  V30 55 H 13.046100 7.590228 -8.794742 0
M  V30 56 H 10.071037 8.278004 -5.038561 0
M  V30 57 H 7.549751 4.672786 -8.363420 0
M  V30 58 H 7.543385 5.045024 -10.164234 0
M  V30 59 H 10.641357 7.258194 -12.861082 0
M  V30 60 H 7.489081 4.647113 -18.782630 0
M  V30 61 H 7.361440 6.888622 -18.219655 0
M  V30 62 H 5.945911 7.703620 -18.834282 0
M  V30 63 H 13.375394 6.015874 -0.785089 0
M  V30 64 H 11.674523 6.094018 -1.273079 0
M  V30 65 H 12.940259 5.643075 -2.411509 0
M  V30 66 H 13.078389 9.741129 -3.122910 0
M  V30 67 H 11.793245 10.184561 -1.990439 0
M  V30 68 H 9.761109 4.956671 -10.200319 0
M  V30 69 H 7.924771 6.002630 -11.470587 0
M  V30 70 H 9.766642 4.453503 -8.526237 0
M  V30 END ATOM
M  V30 BEGIN BOND
M  V30 1 1 8 6
M  V30 2 1 9 6
M  V30 3 1 10 9
M  V30 4 1 11 4
M  V30 5 1 11 7
M  V30 6 1 13 3
M  V30 7 1 13 10
M  V30 8 1 15 4
M  V30 9 1 16 8
M  V30 10 1 18 1
M  V30 11 1 19 1
M  V30 12 1 19 17
M  V30 13 1 20 2
M  V30 14 1 20 11
M  V30 15 1 21 1
M  V30 16 1 21 20
M  V30 17 1 22 3
M  V30 18 1 23 5
M  V30 19 1 23 10
M  V30 20 1 23 14
M  V30 21 1 24 5 CFG=3
M  V30 22 1 24 13
M  V30 23 1 24 17
M  V30 24 1 24 19
M  V30 25 1 25 12
M  V30 26 2 26 21
M  V30 27 1 27 12
M  V30 28 1 28 15
M  V30 29 1 29 2
M  V30 30 1 29 4
M  V30 31 1 30 27
M  V30 32 1 31 16
M  V30 33 1 31 30
M  V30 34 1 32 3
M  V30 35 1 32 22
M  V30 36 2 33 31
M  V30 37 1 34 2
M  V30 38 1 35 2
M  V30 39 1 3 36 CFG=1
M  V30 40 1 37 6
M  V30 41 1 38 6
M  V30 42 1 39 8
M  V30 43 1 40 8
M  V30 44 1 41 9
M  V30 45 1 10 42 CFG=3
M  V30 46 1 11 43 CFG=3
M  V30 47 1 44 12
M  V30 48 1 45 12
M  V30 49 1 13 46 CFG=1
M  V30 50 1 47 14
M  V30 51 1 48 16
M  V30 52 1 49 16
M  V30 53 1 50 17
M  V30 54 1 51 17
M  V30 55 1 52 18
M  V30 56 1 53 18
M  V30 57 1 54 18
M  V30 58 1 19 55 CFG=3
M  V30 59 1 20 56 CFG=3
M  V30 60 1 57 22
M  V30 61 1 58 22
M  V30 62 1 23 59 CFG=3
M  V30 63 1 60 25
M  V30 64 1 61 27
M  V30 65 1 62 27
M  V30 66 1 63 28
M  V30 67 1 64 28
M  V30 68 1 65 28
M  V30 69 1 66 29
M  V30 70 1 67 29
M  V30 71 1 68 32
M  V30 72 1 69 9
M  V30 73 1 70 32
M  V30 END BOND
M  V30 END CTAB
M  END
>  <i_epik_Tot_Q>  (1) 
2

>  <i_epik_Tot_abs_Q>  (1) 
2

>  <i_i_glide_confnum>  (1) 
4825

>  <i_i_glide_lignum>  (1) 
43

>  <i_i_glide_posenum>  (1) 
21

>  <i_i_glide_rotatable_bonds>  (1) 
15

>  <i_lp_mmshare_version>  (1) 
72125

>  <i_m_source_file_index>  (1) 
9

>  <i_f3d_flags>  (1) 
0

>  <num_sample>  (1) 
50

>  <b_lp_Chiralities_Consistent>  (1) 
1

>  <r_epik_Charging_Adjusted_Penalty>  (1) 
2.8797985042560583

>  <r_epik_Ionization_Penalty>  (1) 
1.6442763990741283

>  <r_epik_Ionization_Penalty_Charging>  (1) 
1.6439676131770962

>  <r_epik_Ionization_Penalty_Neutral>  (1) 
0.00030878589703216643

>  <r_epik_State_Penalty>  (1) 
1.2358308910789622

>  <r_glide_ring_energy>  (1) 
0

>  <r_i_docking_score>  (1) 
-5.8142539619970179

>  <r_i_glide_ecoul>  (1) 
-11.468809520841457

>  <r_i_glide_eff_state_penalty>  (1) 
1.2358308910789622

>  <r_i_glide_einternal>  (1) 
34.829169479472469

>  <r_i_glide_emodel>  (1) 
-40.505629940013854

>  <r_i_glide_emodel_strain>  (1) 
5.9739410576380436

>  <r_i_glide_energy>  (1) 
-40.463122074358452

>  <r_i_glide_erotb>  (1) 
1.0700444368793263

>  <r_i_glide_esite>  (1) 
-0.1058089659209943

>  <r_i_glide_evdw>  (1) 
-28.994312553516991

>  <r_i_glide_gscore>  (1) 
-7.0500848530759797

>  <r_i_glide_gscore_strain>  (1) 
0.4934852644095109

>  <r_i_glide_hbond>  (1) 
-0.50674676992648726

>  <r_i_glide_ligand_efficiency>  (1) 
-0.17618951399990965

>  <r_i_glide_ligand_efficiency_ln>  (1) 
-1.2930599765522848

>  <r_i_glide_ligand_efficiency_sa>  (1) 
-0.56513391473999053

>  <r_i_glide_lipo>  (1) 
-2.1117012821018322

>  <r_i_glide_metal>  (1) 
-0

>  <r_i_glide_rewards>  (1) 
-2.7193204806134337

>  <r_lp_Energy>  (1) 
51.457698000000001

>  <s_epik_Chemistry_Notes>  (1) 
This compound has an ester and may undergo hydrolysis at high or low pH. This compound contains an acetal/aminal-like group ( X-CH(R)-Y where X, Y are N, S, or O) that may be acid/base labile, releasing an aldehyde. This compound has a N-S or N-O group and may undergo hydrolysis at high or low pH.

>  <s_epik_cmdline>  (1) 
J2VwaWtfcHl0aG9uJywgJy1waHQnLCAnMS4wJywgJy1waCcsICc3LjQnLCAnLXRuJywgJzgnLCAnLW1hJywgJzUwMCcsICctaW1hZScsICc8aW5maWxlLm1hZT4nLCAnLW9tYWUnLCAnPG91dGZpbGUubWFlPic=

>  <s_epik_input>  (1) 
W0NIM11PTjFbQ0BIXShGKVtDQEBIXShbQ0gyXVtDSDJdMSlDKD1PKU4oW0NIM10pW0NASF0yW0NIMl1DMjNPW0NAQEhdKFtPSF0pW0NASF0oW0NASF0zW0NASF00W0NIMl1bTkhdNClbTkhdW0NIMl1bQ0gyXVtDSDJdQyg9TylPW0NIMl1bQ0gyXVtPSF0=

>  <s_glide_docking_method>  (1) 
confgen

>  <s_i_glide_gridfile>  (1) 
gpcr_drd2_6luq_protein_autoprepared_prepared

>  <s_lp_Force_Field>  (1) 
S-OPLS

>  <s_lp_Variant>  (1) 
DiffSBDD_8-12

>  <s_m_source_file>  (1) 
generated_generic_title2_ligand_DiffSBDD_2026-06-23_prepared.sdf

>  <GenAI_Model>  (1) 
DiffSBDD

>  <Protein>  (1) 
generic_title2

$$$$
DiffSBDD_3
     RDKit          3D

  0  0  0  0  0  0  0  0  0  0999 V3000
M  V30 BEGIN CTAB
M  V30 COUNTS 27 27 0 0 1
M  V30 BEGIN ATOM
M  V30 1 C 8.069526 5.659461 -12.421891 0
M  V30 2 C 8.324998 4.934523 -13.596466 0
M  V30 3 C 6.655153 6.306260 -14.704929 0
M  V30 4 C 10.082559 6.824372 -5.915189 0
M  V30 5 C 10.266848 6.826929 -8.471383 0
M  V30 6 N 6.405038 7.006857 -13.573111 0
M  V30 7 C 10.984018 6.597999 -7.133184 0
M  V30 8 Cl 5.775440 6.708241 -16.133416 0
M  V30 9 C 7.606373 5.263463 -14.758294 0
M  V30 10 N 8.575410 5.990226 -10.089333 0 CHG=1
M  V30 11 C 9.270526 5.713374 -8.825369 0
M  V30 12 C 8.809079 5.338205 -11.184813 0
M  V30 13 C 7.101891 6.687889 -12.459596 0
M  V30 14 H 9.058366 4.140680 -13.609253 0
M  V30 15 H 10.632729 6.662770 -4.987819 0
M  V30 16 H 9.691175 7.841924 -5.898097 0
M  V30 17 H 9.232380 6.142778 -5.915033 0
M  V30 18 H 11.015359 6.892217 -9.261770 0
M  V30 19 H 9.756785 7.791666 -8.453961 0
M  V30 20 H 11.397327 5.590229 -7.100625 0
M  V30 21 H 11.832986 7.278573 -7.067437 0
M  V30 22 H 7.778885 4.726465 -15.679608 0
M  V30 23 H 8.491236 5.620610 -8.067742 0
M  V30 24 H 9.773943 4.748093 -8.904582 0
M  V30 25 H 9.552682 4.547815 -11.200991 0
M  V30 26 H 6.880285 7.270211 -11.585023 0
M  V30 27 H 7.852502 6.733549 -10.069865 0
M  V30 END ATOM
M  V30 BEGIN BOND
M  V30 1 1 2 1
M  V30 2 2 6 3
M  V30 3 1 7 4
M  V30 4 1 7 5
M  V30 5 1 8 3
M  V30 6 2 9 2
M  V30 7 1 9 3
M  V30 8 1 11 5
M  V30 9 1 11 10
M  V30 10 1 12 1
M  V30 11 2 12 10
M  V30 12 2 13 1
M  V30 13 1 13 6
M  V30 14 1 14 2
M  V30 15 1 15 4
M  V30 16 1 16 4
M  V30 17 1 17 4
M  V30 18 1 18 5
M  V30 19 1 19 5
M  V30 20 1 20 7
M  V30 21 1 21 7
M  V30 22 1 22 9
M  V30 23 1 23 11
M  V30 24 1 24 11
M  V30 25 1 25 12
M  V30 26 1 26 13
M  V30 27 1 27 10
M  V30 END BOND
M  V30 END CTAB
M  END
>  <i_epik_Tot_Q>  (1) 
1

>  <i_epik_Tot_abs_Q>  (1) 
1

>  <i_i_glide_confnum>  (1) 
4

>  <i_i_glide_lignum>  (1) 
25

>  <i_i_glide_posenum>  (1) 
109

>  <i_i_glide_rotatable_bonds>  (1) 
4

>  <i_lp_mmshare_version>  (1) 
72125

>  <i_m_source_file_index>  (1) 
4

>  <i_f3d_flags>  (1) 
0

>  <num_sample>  (1) 
50

>  <b_lp_Chiralities_Consistent>  (1) 
1

>  <r_epik_Charging_Adjusted_Penalty>  (1) 
0.029699158874294952

>  <r_epik_Ionization_Penalty>  (1) 
0.014849585528506534

>  <r_epik_Ionization_Penalty_Charging>  (1) 
0.014849579437147471

>  <r_epik_Ionization_Penalty_Neutral>  (1) 
6.091359062829099e-09

>  <r_epik_State_Penalty>  (1) 
0.01484957943714748

>  <r_glide_ring_energy>  (1) 
0

>  <r_i_docking_score>  (1) 
-5.8099594610339569

>  <r_i_glide_ecoul>  (1) 
-9.2225955664007593

>  <r_i_glide_eff_state_penalty>  (1) 
0.01484957943714748

>  <r_i_glide_einternal>  (1) 
1.7511879552109197

>  <r_i_glide_emodel>  (1) 
-46.072393433766528

>  <r_i_glide_emodel_strain>  (1) 
0.00023377595815610164

>  <r_i_glide_energy>  (1) 
-30.533901723836937

>  <r_i_glide_erotb>  (1) 
0.83262420793162661

>  <r_i_glide_esite>  (1) 
-0.093832611487901368

>  <r_i_glide_evdw>  (1) 
-21.311306157436178

>  <r_i_glide_gscore>  (1) 
-5.8248090404711039

>  <r_i_glide_gscore_strain>  (1) 
0

>  <r_i_glide_hbond>  (1) 
-0.20000000000000001

>  <r_i_glide_ligand_efficiency>  (1) 
-0.44691995854107358

>  <r_i_glide_ligand_efficiency_ln>  (1) 
-1.6297453002729345

>  <r_i_glide_ligand_efficiency_sa>  (1) 
-1.0508584011523494

>  <r_i_glide_lipo>  (1) 
-1.1283226288087418

>  <r_i_glide_metal>  (1) 
-0

>  <r_i_glide_rewards>  (1) 
-2.7863233652741641

>  <r_lp_Energy>  (1) 
19.410530999999999

>  <s_epik_Chemistry_Notes>  (1) 
This compound has an imine and may undergo hydrolysis.

>  <s_epik_cmdline>  (1) 
J2VwaWtfcHl0aG9uJywgJy1waHQnLCAnMS4wJywgJy1waCcsICc3LjQnLCAnLXRuJywgJzgnLCAnLW1hJywgJzUwMCcsICctaW1hZScsICc8aW5maWxlLm1hZT4nLCAnLW9tYWUnLCAnPG91dGZpbGUubWFlPic=

>  <s_epik_input>  (1) 
W2NIXTFuYyhDbClbY0hdW2NIXWMxXFtDSF09TlxbQ0gyXVtDSDJdW0NIMl1bQ0gzXQ==

>  <s_glide_docking_method>  (1) 
confgen

>  <s_i_glide_gridfile>  (1) 
gpcr_drd2_6luq_protein_autoprepared_prepared

>  <s_lp_Force_Field>  (1) 
S-OPLS

>  <s_lp_Variant>  (1) 
DiffSBDD_3-1

>  <s_m_source_file>  (1) 
generated_generic_title2_ligand_DiffSBDD_2026-06-23_prepared.sdf

>  <GenAI_Model>  (1) 
DiffSBDD

>  <Protein>  (1) 
generic_title2

$$$$
DiffSBDD_20
     RDKit          3D

  0  0  0  0  0  0  0  0  0  0999 V3000
M  V30 BEGIN CTAB
M  V30 COUNTS 72 74 0 0 1
M  V30 BEGIN ATOM
M  V30 1 C 5.421593 5.005096 -20.006813 0
M  V30 2 C 8.590869 7.265804 -12.784522 0
M  V30 3 C 6.853042 5.482252 -15.636525 0 CFG=1
M  V30 4 C 5.356037 6.032894 -19.156102 0
M  V30 5 C 5.811201 3.623686 -19.661162 0 CFG=1
M  V30 6 C 9.316219 8.390272 -6.786203 0
M  V30 7 C 9.380032 5.597052 -8.796492 0 CFG=1
M  V30 8 F 5.879345 2.891798 -20.772012 0
M  V30 9 C 7.773002 5.100714 -10.968336 0
M  V30 10 O 10.550880 6.438789 -6.338480 0
M  V30 11 C 6.718720 4.298593 -14.637440 0
M  V30 12 C 9.152174 5.233105 -10.280304 0 CFG=2
M  V30 13 C 12.353614 8.932194 -8.490754 0
M  V30 14 C 5.723681 6.024650 -17.731039 0
M  V30 15 C 6.600335 5.191129 -17.105700 0
M  V30 16 C 7.375301 4.114959 -17.757768 0
M  V30 17 C 10.220437 6.891811 -8.669136 0 CFG=2
M  V30 18 C 6.852676 7.835812 -14.673371 0
M  V30 19 N 6.678559 4.713588 -13.207526 0 CHG=1
M  V30 20 C 7.215743 7.787037 -13.164687 0
M  V30 21 C 12.104768 9.102696 -5.996530 0
M  V30 22 C 7.969229 4.801591 -12.495180 0 CFG=1
M  V30 23 O 9.666513 3.990180 -10.490766 0
M  V30 24 C 10.480675 7.502038 -7.268244 0 CFG=1
M  V30 25 S 5.058888 7.259123 -16.715553 0
M  V30 26 C 7.056566 3.457557 -18.880710 0
M  V30 27 C 11.883630 8.190629 -7.225040 0
M  V30 28 C 8.936148 5.812673 -13.147544 0
M  V30 29 C 5.977411 6.708190 -15.238719 0 CFG=1
M  V30 30 O 9.775337 7.911586 -9.545696 0
M  V30 31 N 8.175384 5.590210 -7.982320 0 CHG=1
M  V30 32 H 5.113590 5.161767 -21.031678 0
M  V30 33 H 8.669628 7.424117 -11.717096 0
M  V30 34 H 9.337019 7.957345 -13.138749 0
M  V30 35 H 7.883430 5.789823 -15.735752 0
M  V30 36 H 4.981379 6.965331 -19.553869 0
M  V30 37 H 4.995741 3.175715 -19.091921 0
M  V30 38 H 9.138413 9.219456 -7.464133 0
M  V30 39 H 9.505026 8.797648 -5.798949 0
M  V30 40 H 8.380462 7.843655 -6.707131 0
M  V30 41 H 9.991295 4.812028 -8.344148 0
M  V30 42 H 7.190823 4.303221 -10.505330 0
M  V30 43 H 7.185195 6.002269 -10.811506 0
M  V30 44 H 10.821355 6.784459 -5.500529 0
M  V30 45 H 5.775442 3.802567 -14.784996 0
M  V30 46 H 7.487107 3.543147 -14.805918 0
M  V30 47 H 9.834697 5.864886 -10.829321 0
M  V30 48 H 11.775392 9.837095 -8.677323 0
M  V30 49 H 12.337501 8.333359 -9.397935 0
M  V30 50 H 13.404434 9.190227 -8.371473 0
M  V30 51 H 8.294657 3.819508 -17.272605 0
M  V30 52 H 11.186082 6.572073 -9.057128 0
M  V30 53 H 6.440668 8.779502 -15.016769 0
M  V30 54 H 7.775412 7.839417 -15.185019 0
M  V30 55 H 6.207825 5.603638 -13.134724 0
M  V30 56 H 6.408538 7.369799 -12.563314 0
M  V30 57 H 7.375416 8.790236 -12.785077 0
M  V30 58 H 11.474799 9.991858 -6.042540 0
M  V30 59 H 13.134088 9.459269 -5.943191 0
M  V30 60 H 11.887377 8.587421 -5.060209 0
M  V30 61 H 8.407933 3.809620 -12.612923 0
M  V30 62 H 10.101001 3.959525 -11.331379 0
M  V30 63 H 7.729322 2.689300 -19.236229 0
M  V30 64 H 12.575576 7.355883 -7.185048 0
M  V30 65 H 9.072343 5.656517 -14.203875 0
M  V30 66 H 9.957601 5.605246 -12.832391 0
M  V30 67 H 5.204951 6.439358 -14.518799 0
M  V30 68 H 8.833646 8.033505 -9.433764 0
M  V30 69 H 7.553430 6.357877 -8.237754 0
M  V30 70 H 8.445732 5.726876 -7.018062 0
M  V30 71 H 6.126888 4.025725 -12.713508 0
M  V30 72 H 7.688194 4.712118 -8.079817 0
M  V30 END ATOM
M  V30 BEGIN BOND
M  V30 1 2 4 1
M  V30 2 1 5 1
M  V30 3 1 8 5
M  V30 4 1 11 3
M  V30 5 1 12 7
M  V30 6 1 12 9
M  V30 7 1 14 4
M  V30 8 1 15 3
M  V30 9 2 15 14
M  V30 10 1 16 15
M  V30 11 1 17 7
M  V30 12 1 19 11
M  V30 13 1 20 2
M  V30 14 1 20 18
M  V30 15 1 22 9
M  V30 16 1 22 19
M  V30 17 1 23 12
M  V30 18 1 24 6
M  V30 19 1 24 10 CFG=1
M  V30 20 1 24 17
M  V30 21 1 25 14
M  V30 22 1 26 5
M  V30 23 2 26 16
M  V30 24 1 27 13
M  V30 25 1 27 21
M  V30 26 1 27 24
M  V30 27 1 28 2
M  V30 28 1 28 22
M  V30 29 1 29 3
M  V30 30 1 29 18
M  V30 31 1 29 25
M  V30 32 1 30 17
M  V30 33 1 31 7
M  V30 34 1 32 1
M  V30 35 1 33 2
M  V30 36 1 34 2
M  V30 37 1 3 35 CFG=3
M  V30 38 1 36 4
M  V30 39 1 5 37 CFG=1
M  V30 40 1 38 6
M  V30 41 1 39 6
M  V30 42 1 40 6
M  V30 43 1 7 41 CFG=1
M  V30 44 1 42 9
M  V30 45 1 43 9
M  V30 46 1 44 10
M  V30 47 1 45 11
M  V30 48 1 46 11
M  V30 49 1 12 47 CFG=3
M  V30 50 1 48 13
M  V30 51 1 49 13
M  V30 52 1 50 13
M  V30 53 1 51 16
M  V30 54 1 17 52 CFG=3
M  V30 55 1 53 18
M  V30 56 1 54 18
M  V30 57 1 55 19
M  V30 58 1 56 20
M  V30 59 1 57 20
M  V30 60 1 58 21
M  V30 61 1 59 21
M  V30 62 1 60 21
M  V30 63 1 22 61 CFG=1
M  V30 64 1 62 23
M  V30 65 1 63 26
M  V30 66 1 64 27
M  V30 67 1 65 28
M  V30 68 1 66 28
M  V30 69 1 29 67 CFG=1
M  V30 70 1 68 30
M  V30 71 1 69 31
M  V30 72 1 70 31
M  V30 73 1 71 19
M  V30 74 1 72 31
M  V30 END BOND
M  V30 END CTAB
M  END
>  <i_epik_Tot_Q>  (1) 
2

>  <i_epik_Tot_abs_Q>  (1) 
2

>  <i_i_glide_confnum>  (1) 
70

>  <i_i_glide_lignum>  (1) 
64

>  <i_i_glide_posenum>  (1) 
342

>  <i_i_glide_rotatable_bonds>  (1) 
9

>  <i_lp_mmshare_version>  (1) 
72125

>  <i_m_source_file_index>  (1) 
21

>  <i_f3d_flags>  (1) 
0

>  <num_sample>  (1) 
50

>  <b_lp_Chiralities_Consistent>  (1) 
1

>  <r_epik_Charging_Adjusted_Penalty>  (1) 
0.28425092081310654

>  <r_epik_Ionization_Penalty>  (1) 
0.14293687999153612

>  <r_epik_Ionization_Penalty_Charging>  (1) 
0.14293530953308087

>  <r_epik_Ionization_Penalty_Neutral>  (1) 
1.5704584552406844e-06

>  <r_epik_State_Penalty>  (1) 
0.14131561128002565

>  <r_glide_ring_energy>  (1) 
0

>  <r_i_docking_score>  (1) 
-5.7957620386357576

>  <r_i_glide_ecoul>  (1) 
-8.5971273063810703

>  <r_i_glide_eff_state_penalty>  (1) 
0.14131561128002565

>  <r_i_glide_einternal>  (1) 
7.9324739300720779

>  <r_i_glide_emodel>  (1) 
-27.049978625516964

>  <r_i_glide_emodel_strain>  (1) 
4.5152990953982908

>  <r_i_glide_energy>  (1) 
-16.858634514008763

>  <r_i_glide_erotb>  (1) 
0.2698526194302297

>  <r_i_glide_esite>  (1) 
-0.10000000000000001

>  <r_i_glide_evdw>  (1) 
-8.2615072076276928

>  <r_i_glide_gscore>  (1) 
-5.9370776499157829

>  <r_i_glide_gscore_strain>  (1) 
0.12882477384957269

>  <r_i_glide_hbond>  (1) 
-0.50021730336282377

>  <r_i_glide_ligand_efficiency>  (1) 
-0.18696006576244378

>  <r_i_glide_ligand_efficiency_ln>  (1) 
-1.3071219584876395

>  <r_i_glide_ligand_efficiency_sa>  (1) 
-0.58731273335596357

>  <r_i_glide_lipo>  (1) 
-2.5139166007256311

>  <r_i_glide_metal>  (1) 
-0

>  <r_i_glide_rewards>  (1) 
-1.5189766827685856

>  <r_lp_Energy>  (1) 
51.405214999999998

>  <s_epik_cmdline>  (1) 
J2VwaWtfcHl0aG9uJywgJy1waHQnLCAnMS4wJywgJy1waCcsICc3LjQnLCAnLXRuJywgJzgnLCAnLW1hJywgJzUwMCcsICctaW1hZScsICc8aW5maWxlLm1hZT4nLCAnLW9tYWUnLCAnPG91dGZpbGUubWFlPic=

>  <s_epik_input>  (1) 
W0NIXTE9W0NIXVtDQEhdKEYpW0NIXT1bQ0hdQyg9QzFbQ0BIXTIzKVNbQ0BASF0zW0NIMl1bQ0gyXVtDSDJdW0NIMl1bQ0BIXShbTkhdW0NIMl0yKVtDSDJdW0NASF0oW09IXSlbQ0BIXShbTkgyXSlbQ0BASF0oW09IXSlbQ0BAXShbQ0gzXSkoW09IXSlbQ0hdKFtDSDNdKVtDSDNd

>  <s_glide_docking_method>  (1) 
confgen

>  <s_i_glide_gridfile>  (1) 
gpcr_drd2_6luq_protein_autoprepared_prepared

>  <s_lp_Force_Field>  (1) 
S-OPLS

>  <s_lp_Variant>  (1) 
DiffSBDD_20-1

>  <s_m_source_file>  (1) 
generated_generic_title2_ligand_DiffSBDD_2026-06-23_prepared.sdf

>  <GenAI_Model>  (1) 
DiffSBDD

>  <Protein>  (1) 
generic_title2

$$$$
DiffSBDD_2
     RDKit          3D

  0  0  0  0  0  0  0  0  0  0999 V3000
M  V30 BEGIN CTAB
M  V30 COUNTS 61 63 0 0 1
M  V30 BEGIN ATOM
M  V30 1 C 10.534026 7.318163 -8.957093 0 CFG=1
M  V30 2 C 9.046432 4.206764 -11.275386 0
M  V30 3 C 10.499214 7.506857 -10.483081 0
M  V30 4 C 7.208388 0.265385 -14.874812 0
M  V30 5 N 5.775560 6.139191 -15.288763 0
M  V30 6 C 8.286889 4.240448 -12.570517 0 CFG=2
M  V30 7 C 9.452140 6.488847 -6.899477 0
M  V30 8 C 6.842219 3.807612 -12.588641 0 CFG=2
M  V30 9 C 5.365673 7.990254 -16.802729 0
M  V30 10 C 6.274639 5.068523 -14.780546 0
M  V30 11 C 5.926672 6.592575 -16.592719 0
M  V30 12 C 7.651336 2.808538 -14.786569 0 CFG=1
M  V30 13 C 8.407469 5.140133 -10.236002 0
M  V30 14 C 9.207644 5.183406 -8.930774 0
M  V30 15 C 7.866344 2.967548 -13.289739 0 CFG=1
M  V30 16 C 8.673422 4.897256 -15.811906 0
M  V30 17 C 9.592476 7.867240 -6.244788 0
M  V30 18 C 10.756680 8.660547 -6.824621 0
M  V30 19 O 6.438387 5.987069 -17.534405 0
M  V30 20 C 6.629033 1.676910 -15.057156 0
M  V30 21 C 7.338795 4.164401 -15.498569 0 CFG=2
M  V30 22 C 10.587008 8.717320 -8.338201 0
M  V30 23 N 9.375409 6.554967 -8.385388 0 CFG=2 CHG=1
M  V30 24 C 5.827517 4.584785 -13.398628 0
M  V30 25 H 11.452470 6.790094 -8.700777 0
M  V30 26 H 9.101756 3.190233 -10.903992 0
M  V30 27 H 10.075673 4.487596 -11.491800 0
M  V30 28 H 11.350347 8.111490 -10.791733 0
M  V30 29 H 10.575413 6.574717 -11.033144 0
M  V30 30 H 9.595573 8.026051 -10.805894 0
M  V30 31 H 6.454287 -0.489842 -15.098187 0
M  V30 32 H 8.054249 0.090389 -15.540117 0
M  V30 33 H 7.543576 0.091697 -13.852725 0
M  V30 34 H 8.489429 5.147303 -13.131256 0
M  V30 35 H 8.558739 6.004513 -6.501245 0
M  V30 36 H 10.304361 5.870107 -6.615157 0
M  V30 37 H 6.436631 3.393975 -11.667759 0
M  V30 38 H 4.335068 8.039375 -16.449872 0
M  V30 39 H 5.375375 8.258316 -17.859519 0
M  V30 40 H 5.954530 8.725948 -16.253994 0
M  V30 41 H 8.575405 2.445550 -15.222662 0
M  V30 42 H 8.274816 6.131694 -10.665451 0
M  V30 43 H 7.393686 4.808516 -10.007775 0
M  V30 44 H 8.669157 4.558772 -8.215621 0
M  V30 45 H 10.175415 4.704225 -9.037445 0
M  V30 46 H 8.160442 2.046246 -12.790664 0
M  V30 47 H 8.554875 5.964976 -15.986893 0
M  V30 48 H 9.416392 4.790196 -15.023970 0
M  V30 49 H 9.128202 4.475821 -16.708553 0
M  V30 50 H 8.660006 8.424864 -6.351955 0
M  V30 51 H 9.775400 7.728359 -5.185026 0
M  V30 52 H 10.778535 9.661934 -6.392479 0
M  V30 53 H 11.706187 8.187895 -6.569760 0
M  V30 54 H 5.775909 1.770623 -14.385025 0
M  V30 55 H 6.245676 1.749151 -16.075260 0
M  V30 56 H 6.933817 3.882388 -16.466998 0
M  V30 57 H 9.639156 9.190227 -8.585135 0
M  V30 58 H 11.386022 9.315327 -8.778542 0
M  V30 59 H 5.516917 5.446819 -12.806963 0
M  V30 60 H 4.939948 3.965509 -13.525421 0
M  V30 61 H 8.517543 7.059686 -8.614071 0
M  V30 END ATOM
M  V30 BEGIN BOND
M  V30 1 1 3 1
M  V30 2 1 6 2
M  V30 3 1 8 6
M  V30 4 2 10 5
M  V30 5 1 11 5
M  V30 6 1 11 9
M  V30 7 1 13 2
M  V30 8 1 14 13
M  V30 9 1 15 6
M  V30 10 1 15 8
M  V30 11 1 15 12
M  V30 12 1 17 7
M  V30 13 1 18 17
M  V30 14 2 19 11
M  V30 15 1 20 4
M  V30 16 1 20 12
M  V30 17 1 21 10
M  V30 18 1 21 12
M  V30 19 1 21 16
M  V30 20 1 22 1
M  V30 21 1 22 18
M  V30 22 1 23 1
M  V30 23 1 23 7
M  V30 24 1 23 14
M  V30 25 1 24 8
M  V30 26 1 24 10
M  V30 27 1 1 25 CFG=3
M  V30 28 1 26 2
M  V30 29 1 27 2
M  V30 30 1 28 3
M  V30 31 1 29 3
M  V30 32 1 30 3
M  V30 33 1 31 4
M  V30 34 1 32 4
M  V30 35 1 33 4
M  V30 36 1 6 34 CFG=3
M  V30 37 1 35 7
M  V30 38 1 36 7
M  V30 39 1 8 37 CFG=1
M  V30 40 1 38 9
M  V30 41 1 39 9
M  V30 42 1 40 9
M  V30 43 1 12 41 CFG=3
M  V30 44 1 42 13
M  V30 45 1 43 13
M  V30 46 1 44 14
M  V30 47 1 45 14
M  V30 48 1 15 46 CFG=1
M  V30 49 1 47 16
M  V30 50 1 48 16
M  V30 51 1 49 16
M  V30 52 1 50 17
M  V30 53 1 51 17
M  V30 54 1 52 18
M  V30 55 1 53 18
M  V30 56 1 54 20
M  V30 57 1 55 20
M  V30 58 1 21 56 CFG=3
M  V30 59 1 57 22
M  V30 60 1 58 22
M  V30 61 1 59 24
M  V30 62 1 60 24
M  V30 63 1 23 61 CFG=1
M  V30 END BOND
M  V30 END CTAB
M  END
>  <i_epik_Tot_Q>  (1) 
1

>  <i_epik_Tot_abs_Q>  (1) 
1

>  <i_i_glide_confnum>  (1) 
25

>  <i_i_glide_lignum>  (1) 
24

>  <i_i_glide_posenum>  (1) 
70

>  <i_i_glide_rotatable_bonds>  (1) 
6

>  <i_lp_mmshare_version>  (1) 
72125

>  <i_m_source_file_index>  (1) 
3

>  <i_f3d_flags>  (1) 
0

>  <num_sample>  (1) 
50

>  <b_lp_Chiralities_Consistent>  (1) 
1

>  <r_epik_Charging_Adjusted_Penalty>  (1) 
0.0011657924221308697

>  <r_epik_Ionization_Penalty>  (1) 
0.0011657924221308697

>  <r_epik_Ionization_Penalty_Charging>  (1) 
0.0011657924221308697

>  <r_epik_Ionization_Penalty_Neutral>  (1) 
0

>  <r_epik_State_Penalty>  (1) 
-0

>  <r_glide_ring_energy>  (1) 
0

>  <r_i_docking_score>  (1) 
-5.7927196463563604

>  <r_i_glide_ecoul>  (1) 
-3.8359272914818634

>  <r_i_glide_eff_state_penalty>  (1) 
-0

>  <r_i_glide_einternal>  (1) 
9.0189077815072327

>  <r_i_glide_emodel>  (1) 
-41.736039769408244

>  <r_i_glide_emodel_strain>  (1) 
1.8337328295514936

>  <r_i_glide_energy>  (1) 
-33.734585710160651

>  <r_i_glide_erotb>  (1) 
0.84713914833173298

>  <r_i_glide_esite>  (1) 
-0.099402873344684173

>  <r_i_glide_evdw>  (1) 
-29.898658418678789

>  <r_i_glide_gscore>  (1) 
-5.7927196463563604

>  <r_i_glide_gscore_strain>  (1) 
0

>  <r_i_glide_hbond>  (1) 
-0.20000000000000001

>  <r_i_glide_ligand_efficiency>  (1) 
-0.24136331859818169

>  <r_i_glide_ligand_efficiency_ln>  (1) 
-1.3864636219571989

>  <r_i_glide_ligand_efficiency_sa>  (1) 
-0.6962122850723953

>  <r_i_glide_lipo>  (1) 
-1.7126346363757901

>  <r_i_glide_metal>  (1) 
-0

>  <r_i_glide_rewards>  (1) 
-2.557499270311399

>  <r_lp_Energy>  (1) 
47.634619999999998

>  <r_lp_tautomer_probability>  (1) 
1

>  <s_epik_Chemistry_Notes>  (1) 
This compound has an imine and may undergo hydrolysis.

>  <s_epik_cmdline>  (1) 
J2VwaWtfcHl0aG9uJywgJy1waHQnLCAnMS4wJywgJy1waCcsICc3LjQnLCAnLXRuJywgJzgnLCAnLW1hJywgJzUwMCcsICctaW1hZScsICc8aW5maWxlLm1hZT4nLCAnLW9tYWUnLCAnPG91dGZpbGUubWFlPic=

>  <s_epik_input>  (1) 
W0NIM11bQ0BIXTFbQ0gyXVtDSDJdW0NIMl1bQ0gyXU4xW0NIMl1bQ0gyXVtDSDJdW0NASF0yW0NAQEhdKFtDQEBIXTIzKVtDQEBIXShbQ0gyXVtDSDNdKVtDQEhdKFtDSDNdKS9DKFtDSDJdMyk9TlxDKD1PKVtDSDNd

>  <s_glide_docking_method>  (1) 
confgen

>  <s_i_glide_gridfile>  (1) 
gpcr_drd2_6luq_protein_autoprepared_prepared

>  <s_lp_Force_Field>  (1) 
S-OPLS

>  <s_lp_Variant>  (1) 
DiffSBDD_2-4

>  <s_m_source_file>  (1) 
generated_generic_title2_ligand_DiffSBDD_2026-06-23_prepared.sdf

>  <GenAI_Model>  (1) 
DiffSBDD

>  <Protein>  (1) 
generic_title2

$$$$
DiffSBDD_3
     RDKit          3D

  0  0  0  0  0  0  0  0  0  0999 V3000
M  V30 BEGIN CTAB
M  V30 COUNTS 27 27 0 0 1
M  V30 BEGIN ATOM
M  V30 1 C 10.398132 8.157492 -6.271356 0
M  V30 2 C 10.586374 6.907421 -5.644816 0
M  V30 3 C 11.943196 8.048755 -3.985011 0
M  V30 4 C 8.329202 4.256891 -11.386216 0
M  V30 5 C 9.426674 5.094179 -9.220433 0
M  V30 6 N 11.775287 9.246162 -4.591778 0
M  V30 7 C 9.019320 5.418080 -10.672497 0
M  V30 8 Cl 12.858904 7.990172 -2.532159 0
M  V30 9 C 11.375410 6.855146 -4.483989 0
M  V30 10 N 9.375410 7.419763 -8.383294 0 CHG=1
M  V30 11 C 10.239964 6.237934 -8.597826 0
M  V30 12 C 9.520713 8.329261 -7.457728 0
M  V30 13 C 11.001150 9.292772 -5.696019 0
M  V30 14 H 10.105724 6.015563 -6.011171 0
M  V30 15 H 8.079034 4.525942 -12.412681 0
M  V30 16 H 8.975410 3.378310 -11.422675 0
M  V30 17 H 7.401495 3.990227 -10.880260 0
M  V30 18 H 10.023575 4.182862 -9.202248 0
M  V30 19 H 8.543063 4.885318 -8.614813 0
M  V30 20 H 8.353486 6.281554 -10.692612 0
M  V30 21 H 9.900004 5.700014 -11.250120 0
M  V30 22 H 11.524254 5.919497 -3.965296 0
M  V30 23 H 10.975408 6.571327 -9.329764 0
M  V30 24 H 10.842178 5.921623 -7.764325 0
M  V30 25 H 8.975629 9.259966 -7.557546 0
M  V30 26 H 10.857147 10.269526 -6.133545 0
M  V30 27 H 8.660091 7.590221 -9.104784 0
M  V30 END ATOM
M  V30 BEGIN BOND
M  V30 1 1 2 1
M  V30 2 2 6 3
M  V30 3 1 7 4
M  V30 4 1 7 5
M  V30 5 1 8 3
M  V30 6 2 9 2
M  V30 7 1 9 3
M  V30 8 1 11 5
M  V30 9 1 11 10
M  V30 10 1 12 1
M  V30 11 2 12 10
M  V30 12 2 13 1
M  V30 13 1 13 6
M  V30 14 1 14 2
M  V30 15 1 15 4
M  V30 16 1 16 4
M  V30 17 1 17 4
M  V30 18 1 18 5
M  V30 19 1 19 5
M  V30 20 1 20 7
M  V30 21 1 21 7
M  V30 22 1 22 9
M  V30 23 1 23 11
M  V30 24 1 24 11
M  V30 25 1 25 12
M  V30 26 1 26 13
M  V30 27 1 27 10
M  V30 END BOND
M  V30 END CTAB
M  END
>  <i_epik_Tot_Q>  (1) 
1

>  <i_epik_Tot_abs_Q>  (1) 
1

>  <i_i_glide_confnum>  (1) 
1

>  <i_i_glide_lignum>  (1) 
26

>  <i_i_glide_posenum>  (1) 
293

>  <i_i_glide_rotatable_bonds>  (1) 
4

>  <i_lp_mmshare_version>  (1) 
72125

>  <i_m_source_file_index>  (1) 
4

>  <i_f3d_flags>  (1) 
0

>  <num_sample>  (1) 
50

>  <b_lp_Chiralities_Consistent>  (1) 
1

>  <r_epik_Charging_Adjusted_Penalty>  (1) 
0.029699158874294952

>  <r_epik_Ionization_Penalty>  (1) 
0.014849585528506534

>  <r_epik_Ionization_Penalty_Charging>  (1) 
0.014849579437147471

>  <r_epik_Ionization_Penalty_Neutral>  (1) 
6.091359062829099e-09

>  <r_epik_State_Penalty>  (1) 
0.01484957943714748

>  <r_glide_ring_energy>  (1) 
0

>  <r_i_docking_score>  (1) 
-5.7745969775477954

>  <r_i_glide_ecoul>  (1) 
-5.3932311895798479

>  <r_i_glide_eff_state_penalty>  (1) 
0.01484957943714748

>  <r_i_glide_einternal>  (1) 
1.9358141802132618

>  <r_i_glide_emodel>  (1) 
-38.071900148265797

>  <r_i_glide_emodel_strain>  (1) 
3.3553782894337516

>  <r_i_glide_energy>  (1) 
-28.012974402387982

>  <r_i_glide_erotb>  (1) 
0.83262420793162661

>  <r_i_glide_esite>  (1) 
-0.1575186644776122

>  <r_i_glide_evdw>  (1) 
-22.619743212808135

>  <r_i_glide_gscore>  (1) 
-5.7894465569849425

>  <r_i_glide_gscore_strain>  (1) 
0

>  <r_i_glide_hbond>  (1) 
-0.17645126193912666

>  <r_i_glide_ligand_efficiency>  (1) 
-0.44419976750367657

>  <r_i_glide_ligand_efficiency_ln>  (1) 
-1.6198258091552986

>  <r_i_glide_ligand_efficiency_sa>  (1) 
-1.0444623216088906

>  <r_i_glide_lipo>  (1) 
-1.7527248595960754

>  <r_i_glide_metal>  (1) 
-0

>  <r_i_glide_rewards>  (1) 
-2.5954041398263716

>  <r_lp_Energy>  (1) 
25.723572999999998

>  <s_epik_Chemistry_Notes>  (1) 
This compound has an imine and may undergo hydrolysis.

>  <s_epik_cmdline>  (1) 
J2VwaWtfcHl0aG9uJywgJy1waHQnLCAnMS4wJywgJy1waCcsICc3LjQnLCAnLXRuJywgJzgnLCAnLW1hJywgJzUwMCcsICctaW1hZScsICc8aW5maWxlLm1hZT4nLCAnLW9tYWUnLCAnPG91dGZpbGUubWFlPic=

>  <s_epik_input>  (1) 
W2NIXTFuYyhDbClbY0hdW2NIXWMxL1tDSF09TlxbQ0gyXVtDSDJdW0NIMl1bQ0gzXQ==

>  <s_glide_docking_method>  (1) 
confgen

>  <s_i_glide_gridfile>  (1) 
gpcr_drd2_6luq_protein_autoprepared_prepared

>  <s_lp_Force_Field>  (1) 
S-OPLS

>  <s_lp_Variant>  (1) 
DiffSBDD_3-2

>  <s_m_source_file>  (1) 
generated_generic_title2_ligand_DiffSBDD_2026-06-23_prepared.sdf

>  <GenAI_Model>  (1) 
DiffSBDD

>  <Protein>  (1) 
generic_title2

$$$$
DiffSBDD_3
     RDKit          3D

  0  0  0  0  0  0  0  0  0  0999 V3000
M  V30 BEGIN CTAB
M  V30 COUNTS 27 27 0 0 1
M  V30 BEGIN ATOM
M  V30 1 C 8.172719 5.674802 -12.104089 0
M  V30 2 C 6.988496 6.432763 -12.097470 0
M  V30 3 C 6.864699 6.103863 -14.497460 0
M  V30 4 C 10.976191 8.127732 -5.858011 0
M  V30 5 C 9.794262 7.058529 -7.855662 0
M  V30 6 N 8.000848 5.360783 -14.507275 0
M  V30 7 C 10.447452 6.831908 -6.484143 0
M  V30 8 Cl 6.050948 6.390223 -15.990932 0
M  V30 9 C 6.325535 6.651034 -13.314261 0
M  V30 10 N 8.575410 5.990223 -9.753056 0 CHG=1
M  V30 11 C 9.261350 5.757374 -8.472063 0
M  V30 12 C 8.924692 5.415504 -10.861796 0
M  V30 13 C 8.634908 5.156268 -13.328793 0
M  V30 14 H 6.592169 6.835952 -11.185025 0
M  V30 15 H 11.422983 7.931555 -4.882928 0
M  V30 16 H 11.737507 8.589452 -6.487424 0
M  V30 17 H 10.175409 8.853325 -5.715377 0
M  V30 18 H 10.515283 7.515478 -8.534593 0
M  V30 19 H 8.975401 7.772002 -7.749121 0
M  V30 20 H 9.721891 6.381564 -5.805468 0
M  V30 21 H 11.266215 6.117247 -6.579090 0
M  V30 22 H 5.415329 7.232349 -13.344687 0
M  V30 23 H 8.522732 5.300302 -7.812085 0
M  V30 24 H 10.065352 5.035445 -8.624750 0
M  V30 25 H 9.775410 4.742276 -10.885351 0
M  V30 26 H 9.540190 4.567095 -13.368407 0
M  V30 27 H 7.781378 6.664047 -9.744345 0
M  V30 END ATOM
M  V30 BEGIN BOND
M  V30 1 1 2 1
M  V30 2 2 6 3
M  V30 3 1 7 4
M  V30 4 1 7 5
M  V30 5 1 8 3
M  V30 6 2 9 2
M  V30 7 1 9 3
M  V30 8 1 11 5
M  V30 9 1 11 10
M  V30 10 1 12 1
M  V30 11 2 12 10
M  V30 12 2 13 1
M  V30 13 1 13 6
M  V30 14 1 14 2
M  V30 15 1 15 4
M  V30 16 1 16 4
M  V30 17 1 17 4
M  V30 18 1 18 5
M  V30 19 1 19 5
M  V30 20 1 20 7
M  V30 21 1 21 7
M  V30 22 1 22 9
M  V30 23 1 23 11
M  V30 24 1 24 11
M  V30 25 1 25 12
M  V30 26 1 26 13
M  V30 27 1 27 10
M  V30 END BOND
M  V30 END CTAB
M  END
>  <i_epik_Tot_Q>  (1) 
1

>  <i_epik_Tot_abs_Q>  (1) 
1

>  <i_i_glide_confnum>  (1) 
4

>  <i_i_glide_lignum>  (1) 
25

>  <i_i_glide_posenum>  (1) 
196

>  <i_i_glide_rotatable_bonds>  (1) 
4

>  <i_lp_mmshare_version>  (1) 
72125

>  <i_m_source_file_index>  (1) 
4

>  <i_f3d_flags>  (1) 
0

>  <num_sample>  (1) 
50

>  <b_lp_Chiralities_Consistent>  (1) 
1

>  <r_epik_Charging_Adjusted_Penalty>  (1) 
0.029699158874294952

>  <r_epik_Ionization_Penalty>  (1) 
0.014849585528506534

>  <r_epik_Ionization_Penalty_Charging>  (1) 
0.014849579437147471

>  <r_epik_Ionization_Penalty_Neutral>  (1) 
6.091359062829099e-09

>  <r_epik_State_Penalty>  (1) 
0.01484957943714748

>  <r_glide_ring_energy>  (1) 
0

>  <r_i_docking_score>  (1) 
-5.7593766251115222

>  <r_i_glide_ecoul>  (1) 
-10.350236631906045

>  <r_i_glide_eff_state_penalty>  (1) 
0.01484957943714748

>  <r_i_glide_einternal>  (1) 
0.55854761491690841

>  <r_i_glide_emodel>  (1) 
-46.495857298285671

>  <r_i_glide_emodel_strain>  (1) 
0

>  <r_i_glide_energy>  (1) 
-30.503354139769961

>  <r_i_glide_erotb>  (1) 
0.83262420793162661

>  <r_i_glide_esite>  (1) 
-0.10435077154627095

>  <r_i_glide_evdw>  (1) 
-20.153117507863918

>  <r_i_glide_gscore>  (1) 
-5.7742262045486692

>  <r_i_glide_gscore_strain>  (1) 
0

>  <r_i_glide_hbond>  (1) 
-0.18085245899527741

>  <r_i_glide_ligand_efficiency>  (1) 
-0.44302897116242479

>  <r_i_glide_ligand_efficiency_ln>  (1) 
-1.6155563649332041

>  <r_i_glide_ligand_efficiency_sa>  (1) 
-1.0417093875594488

>  <r_i_glide_lipo>  (1) 
-1.1191286582876085

>  <r_i_glide_metal>  (1) 
-0

>  <r_i_glide_rewards>  (1) 
-2.6423271534720358

>  <r_lp_Energy>  (1) 
19.410530999999999

>  <s_epik_Chemistry_Notes>  (1) 
This compound has an imine and may undergo hydrolysis.

>  <s_epik_cmdline>  (1) 
J2VwaWtfcHl0aG9uJywgJy1waHQnLCAnMS4wJywgJy1waCcsICc3LjQnLCAnLXRuJywgJzgnLCAnLW1hJywgJzUwMCcsICctaW1hZScsICc8aW5maWxlLm1hZT4nLCAnLW9tYWUnLCAnPG91dGZpbGUubWFlPic=

>  <s_epik_input>  (1) 
W2NIXTFuYyhDbClbY0hdW2NIXWMxXFtDSF09TlxbQ0gyXVtDSDJdW0NIMl1bQ0gzXQ==

>  <s_glide_docking_method>  (1) 
confgen

>  <s_i_glide_gridfile>  (1) 
gpcr_drd2_6luq_protein_autoprepared_prepared

>  <s_lp_Force_Field>  (1) 
S-OPLS

>  <s_lp_Variant>  (1) 
DiffSBDD_3-1

>  <s_m_source_file>  (1) 
generated_generic_title2_ligand_DiffSBDD_2026-06-23_prepared.sdf

>  <GenAI_Model>  (1) 
DiffSBDD

>  <Protein>  (1) 
generic_title2

$$$$
DiffSBDD_45
     RDKit          3D

  0  0  0  0  0  0  0  0  0  0999 V3000
M  V30 BEGIN CTAB
M  V30 COUNTS 54 58 0 0 1
M  V30 BEGIN ATOM
M  V30 1 C 7.104377 6.180354 -13.878000 0
M  V30 2 C 11.775644 8.151840 -4.334440 0 CFG=1
M  V30 3 C 9.432909 4.987291 -8.465356 0
M  V30 4 C 9.337704 5.561820 -9.744163 0
M  V30 5 C 10.752597 7.321452 -5.079471 0
M  V30 6 C 9.910564 8.153226 -6.076631 0
M  V30 7 C 8.941061 6.028285 -12.125636 0
M  V30 8 C 8.465489 5.570181 -13.504392 0 CFG=1
M  V30 9 C 12.633840 9.190257 -5.012578 0 CFG=1
M  V30 10 C 9.812728 7.785818 -10.680466 0
M  V30 11 N 10.077925 7.010329 -8.248957 0
M  V30 12 C 12.044171 8.398107 -7.469235 0
M  V30 13 O 5.702173 -0.009776 -14.418021 0
M  V30 14 C 9.391840 7.356219 -11.946924 0
M  V30 15 O 6.024485 4.039179 -13.809508 0
M  V30 16 C 8.459450 4.047979 -13.768787 0
M  V30 17 C 12.556304 9.510948 -6.504596 0
M  V30 18 F 8.175521 1.218934 -13.605999 0
M  V30 19 C 5.948335 5.359941 -13.293430 0
M  V30 20 C 10.511051 8.189913 -7.494045 0 CFG=2
M  V30 21 C 9.775280 6.896519 -9.607272 0
M  V30 22 O 11.500001 9.549516 -4.203334 0
M  V30 23 C 7.088793 1.899679 -13.970253 0 CFG=1
M  V30 24 C 5.863296 1.078760 -13.535611 0
M  V30 25 C 7.157446 3.310889 -13.351554 0 CFG=2
M  V30 26 C 8.924149 5.134903 -11.026064 0
M  V30 27 N 9.896086 5.827864 -7.585064 0
M  V30 28 H 7.003403 6.185831 -14.964229 0
M  V30 29 H 7.039677 7.222222 -13.561422 0
M  V30 30 H 12.195182 7.684553 -3.445575 0
M  V30 31 H 9.183942 3.990244 -8.158347 0
M  V30 32 H 10.110578 6.790217 -4.385023 0
M  V30 33 H 11.289736 6.512955 -5.571685 0
M  V30 34 H 9.775378 9.173672 -5.728261 0
M  V30 35 H 8.894184 7.759016 -6.120897 0
M  V30 36 H 9.202033 5.987685 -14.187092 0
M  V30 37 H 13.579560 9.447352 -4.538222 0
M  V30 38 H 10.148281 8.790230 -10.531620 0
M  V30 39 H 12.545312 7.455286 -7.254010 0
M  V30 40 H 12.359532 8.653793 -8.482190 0
M  V30 41 H 5.375577 -0.766946 -13.941542 0
M  V30 42 H 9.405730 8.041528 -12.779921 0
M  V30 43 H 9.336479 3.590185 -13.311070 0
M  V30 44 H 8.576007 3.910505 -14.845592 0
M  V30 45 H 11.990601 10.433240 -6.640007 0
M  V30 46 H 13.587006 9.722145 -6.784959 0
M  V30 47 H 4.993199 5.793105 -13.589909 0
M  V30 48 H 5.973827 5.351201 -12.201941 0
M  V30 49 H 10.061552 9.042825 -8.000552 0
M  V30 50 H 7.116281 1.979630 -15.058361 0
M  V30 51 H 4.951779 1.671664 -13.585042 0
M  V30 52 H 5.972020 0.723739 -12.509845 0
M  V30 53 H 7.081219 3.215901 -12.270547 0
M  V30 54 H 8.585970 4.123008 -11.156134 0
M  V30 END ATOM
M  V30 BEGIN BOND
M  V30 1 1 4 3
M  V30 2 1 5 2
M  V30 3 1 6 5
M  V30 4 1 8 1
M  V30 5 1 8 7
M  V30 6 1 9 2
M  V30 7 1 14 7
M  V30 8 2 14 10
M  V30 9 1 16 8
M  V30 10 1 17 9
M  V30 11 1 17 12
M  V30 12 1 19 1
M  V30 13 1 19 15
M  V30 14 1 20 6
M  V30 15 1 20 11
M  V30 16 1 20 12
M  V30 17 2 21 4
M  V30 18 1 21 10
M  V30 19 1 21 11
M  V30 20 1 22 2
M  V30 21 1 22 9
M  V30 22 1 23 18
M  V30 23 1 24 13
M  V30 24 1 24 23
M  V30 25 1 25 15
M  V30 26 1 25 16
M  V30 27 1 25 23
M  V30 28 1 26 4
M  V30 29 2 26 7
M  V30 30 2 27 3
M  V30 31 1 27 11
M  V30 32 1 28 1
M  V30 33 1 29 1
M  V30 34 1 2 30 CFG=1
M  V30 35 1 31 3
M  V30 36 1 32 5
M  V30 37 1 33 5
M  V30 38 1 34 6
M  V30 39 1 35 6
M  V30 40 1 8 36 CFG=3
M  V30 41 1 9 37 CFG=1
M  V30 42 1 38 10
M  V30 43 1 39 12
M  V30 44 1 40 12
M  V30 45 1 41 13
M  V30 46 1 42 14
M  V30 47 1 43 16
M  V30 48 1 44 16
M  V30 49 1 45 17
M  V30 50 1 46 17
M  V30 51 1 47 19
M  V30 52 1 48 19
M  V30 53 1 20 49 CFG=3
M  V30 54 1 23 50 CFG=3
M  V30 55 1 51 24
M  V30 56 1 52 24
M  V30 57 1 25 53 CFG=1
M  V30 58 1 54 26
M  V30 END BOND
M  V30 END CTAB
M  END
>  <i_epik_Tot_Q>  (1) 
0

>  <i_epik_Tot_abs_Q>  (1) 
0

>  <i_i_glide_confnum>  (1) 
10

>  <i_i_glide_lignum>  (1) 
122

>  <i_i_glide_posenum>  (1) 
220

>  <i_i_glide_rotatable_bonds>  (1) 
5

>  <i_lp_mmshare_version>  (1) 
72125

>  <i_m_source_file_index>  (1) 
46

>  <i_f3d_flags>  (1) 
0

>  <num_sample>  (1) 
50

>  <b_lp_Chiralities_Consistent>  (1) 
1

>  <r_epik_Charging_Adjusted_Penalty>  (1) 
0

>  <r_epik_Ionization_Penalty>  (1) 
1.2822463511274088e-05

>  <r_epik_Ionization_Penalty_Charging>  (1) 
0

>  <r_epik_Ionization_Penalty_Neutral>  (1) 
1.2822463511274088e-05

>  <r_epik_State_Penalty>  (1) 
-0

>  <r_glide_ring_energy>  (1) 
0.77227948923304535

>  <r_i_docking_score>  (1) 
-5.7581690770974916

>  <r_i_glide_ecoul>  (1) 
-0.61764400650191931

>  <r_i_glide_eff_state_penalty>  (1) 
-0

>  <r_i_glide_einternal>  (1) 
1.684592855321716

>  <r_i_glide_emodel>  (1) 
-39.341582534916775

>  <r_i_glide_emodel_strain>  (1) 
0.82749270518794305

>  <r_i_glide_energy>  (1) 
-35.190854183924827

>  <r_i_glide_erotb>  (1) 
0.55159765068717725

>  <r_i_glide_esite>  (1) 
-0.051988062854749328

>  <r_i_glide_evdw>  (1) 
-34.573210177422908

>  <r_i_glide_gscore>  (1) 
-5.7581690770974916

>  <r_i_glide_gscore_strain>  (1) 
0

>  <r_i_glide_hbond>  (1) 
-0.16

>  <r_i_glide_ligand_efficiency>  (1) 
-0.21326552137398117

>  <r_i_glide_ligand_efficiency_ln>  (1) 
-1.3404068303118122

>  <r_i_glide_ligand_efficiency_sa>  (1) 
-0.63979656412194363

>  <r_i_glide_lipo>  (1) 
-2.3665125809448591

>  <r_i_glide_metal>  (1) 
-0

>  <r_i_glide_rewards>  (1) 
-1.9099589741386267

>  <r_lp_Energy>  (1) 
32.347338000000001

>  <r_lp_tautomer_probability>  (1) 
1

>  <s_epik_cmdline>  (1) 
J2VwaWtfcHl0aG9uJywgJy1waHQnLCAnMS4wJywgJy1waCcsICc3LjQnLCAnLXRuJywgJzgnLCAnLW1hJywgJzUwMCcsICctaW1hZScsICc8aW5maWxlLm1hZT4nLCAnLW9tYWUnLCAnPG91dGZpbGUubWFlPic=

>  <s_epik_input>  (1) 
W09IXVtDSDJdW0NASF0oRilbQ0BASF0oW0NIMl0xKU9bQ0gyXVtDSDJdW0NASF0xYyhbY0hdMilbY0hdW2NIXWMoYzIzKW4obltjSF0zKVtDQEBIXShbQ0gyXVtDSDJdNClbQ0gyXVtDSDJdW0NAQEhdKE81KVtDQEhdNDU=

>  <s_glide_docking_method>  (1) 
confgen

>  <s_i_glide_gridfile>  (1) 
gpcr_drd2_6luq_protein_autoprepared_prepared

>  <s_lp_Force_Field>  (1) 
S-OPLS

>  <s_lp_Variant>  (1) 
DiffSBDD_45-1

>  <s_m_source_file>  (1) 
generated_generic_title2_ligand_DiffSBDD_2026-06-23_prepared.sdf

>  <GenAI_Model>  (1) 
DiffSBDD

>  <Protein>  (1) 
generic_title2

$$$$
DiffSBDD_15
     RDKit          3D

  0  0  0  0  0  0  0  0  0  0999 V3000
M  V30 BEGIN CTAB
M  V30 COUNTS 46 47 0 0 1
M  V30 BEGIN ATOM
M  V30 1 C 11.377575 8.908412 -4.913093 0
M  V30 2 C 9.652720 5.510568 -9.477622 0
M  V30 3 Cl 10.154565 6.385889 -11.985290 0
M  V30 4 C 12.307376 9.027489 -3.955291 0
M  V30 5 C 11.891422 6.643639 -3.199084 0
M  V30 6 C 10.380124 7.443702 -6.791034 0 CFG=2
M  V30 7 N 6.852371 5.258618 -12.114139 0 CFG=1 CHG=1
M  V30 8 C 10.721960 7.587073 -5.287907 0 CFG=1
M  V30 9 O 5.927234 7.581793 -11.984919 0
M  V30 10 C 8.932468 5.899523 -10.769392 0 CFG=1
M  V30 11 P 7.013439 6.778224 -12.965549 0
M  V30 12 C 6.948043 4.042723 -12.931163 0
M  V30 13 C 8.359516 3.829525 -12.399503 0
M  V30 14 N 8.975368 6.077848 -8.332342 0
M  V30 15 O 11.773818 8.903824 -8.098322 0
M  V30 16 O 5.775418 6.557767 -14.053912 0
M  V30 17 C 9.727258 6.074108 -7.094547 0
M  V30 18 C 12.815202 7.864696 -3.132217 0
M  V30 19 C 11.560057 7.756182 -7.714306 0
M  V30 20 C 7.980707 4.803974 -11.281499 0 CFG=2
M  V30 21 C 11.401265 6.375461 -4.632605 0
M  V30 22 H 11.059543 9.783285 -5.462139 0
M  V30 23 H 9.795183 4.433696 -9.384480 0
M  V30 24 H 10.611676 5.997159 -9.493666 0
M  V30 25 H 12.736796 9.990277 -3.743873 0
M  V30 26 H 12.406875 5.768009 -2.803788 0
M  V30 27 H 11.034870 6.790524 -2.541586 0
M  V30 28 H 9.631128 8.206274 -7.010708 0
M  V30 29 H 9.775384 7.593132 -4.791614 0
M  V30 30 H 6.302884 7.710969 -11.107972 0
M  V30 31 H 8.377981 6.803864 -10.567260 0
M  V30 32 H 6.250513 3.274181 -12.596419 0
M  V30 33 H 6.891849 4.185220 -14.010785 0
M  V30 34 H 8.577441 2.812666 -12.071512 0
M  V30 35 H 9.115760 4.192743 -13.095512 0
M  V30 36 H 8.012911 5.783642 -8.214252 0
M  V30 37 H 5.101267 7.178998 -13.818178 0
M  V30 38 H 9.013538 5.851094 -6.303679 0
M  V30 39 H 10.464964 5.272530 -7.108956 0
M  V30 40 H 13.775422 7.590122 -3.547081 0
M  V30 41 H 12.971291 8.176300 -2.098998 0
M  V30 42 H 12.174548 6.905688 -7.992843 0
M  V30 43 H 7.532488 4.256718 -10.448721 0
M  V30 44 H 10.658702 5.590337 -4.568736 0
M  V30 45 H 12.188043 5.990895 -5.271081 0
M  V30 46 H 5.996968 5.266723 -11.576796 0
M  V30 END ATOM
M  V30 BEGIN BOND
M  V30 1 2 4 1
M  V30 2 1 8 1
M  V30 3 1 8 6
M  V30 4 1 10 2
M  V30 5 1 10 3
M  V30 6 1 11 7
M  V30 7 1 11 9
M  V30 8 1 12 7
M  V30 9 1 13 12
M  V30 10 1 14 2
M  V30 11 1 16 11
M  V30 12 1 17 6
M  V30 13 1 17 14
M  V30 14 1 18 4
M  V30 15 1 18 5
M  V30 16 1 19 6
M  V30 17 2 19 15
M  V30 18 1 20 7
M  V30 19 1 20 10
M  V30 20 1 20 13
M  V30 21 1 21 5
M  V30 22 1 21 8
M  V30 23 1 22 1
M  V30 24 1 23 2
M  V30 25 1 24 2
M  V30 26 1 25 4
M  V30 27 1 26 5
M  V30 28 1 27 5
M  V30 29 1 6 28 CFG=3
M  V30 30 1 8 29 CFG=1
M  V30 31 1 30 9
M  V30 32 1 10 31 CFG=1
M  V30 33 1 32 12
M  V30 34 1 33 12
M  V30 35 1 34 13
M  V30 36 1 35 13
M  V30 37 1 36 14
M  V30 38 1 37 16
M  V30 39 1 38 17
M  V30 40 1 39 17
M  V30 41 1 40 18
M  V30 42 1 41 18
M  V30 43 1 42 19
M  V30 44 1 20 43 CFG=1
M  V30 45 1 44 21
M  V30 46 1 45 21
M  V30 47 1 7 46 CFG=1
M  V30 END BOND
M  V30 END CTAB
M  END
>  <i_epik_Tot_Q>  (1) 
1

>  <i_epik_Tot_abs_Q>  (1) 
1

>  <i_i_glide_confnum>  (1) 
528

>  <i_i_glide_lignum>  (1) 
57

>  <i_i_glide_posenum>  (1) 
377

>  <i_i_glide_rotatable_bonds>  (1) 
10

>  <i_lp_mmshare_version>  (1) 
72125

>  <i_m_source_file_index>  (1) 
16

>  <i_f3d_flags>  (1) 
0

>  <num_sample>  (1) 
50

>  <b_lp_Chiralities_Consistent>  (1) 
1

>  <r_epik_Charging_Adjusted_Penalty>  (1) 
0.56727467886288852

>  <r_epik_Ionization_Penalty>  (1) 
0.44114962020939286

>  <r_epik_Ionization_Penalty_Charging>  (1) 
0.027117031585188044

>  <r_epik_Ionization_Penalty_Neutral>  (1) 
0.41403258862420483

>  <r_epik_State_Penalty>  (1) 
0.54015764727770044

>  <r_glide_ring_energy>  (1) 
2.2593876707845975

>  <r_i_docking_score>  (1) 
-5.7563518986619435

>  <r_i_glide_ecoul>  (1) 
-8.0014014230211004

>  <r_i_glide_eff_state_penalty>  (1) 
0.54015764727770044

>  <r_i_glide_einternal>  (1) 
9.8285884427909149

>  <r_i_glide_emodel>  (1) 
-50.546904269527531

>  <r_i_glide_emodel_strain>  (1) 
1.8200626715584711

>  <r_i_glide_energy>  (1) 
-37.899628882133001

>  <r_i_glide_erotb>  (1) 
1.004531890689508

>  <r_i_glide_esite>  (1) 
-0.030954085825100244

>  <r_i_glide_evdw>  (1) 
-29.898227459111897

>  <r_i_glide_gscore>  (1) 
-6.2965095459396441

>  <r_i_glide_gscore_strain>  (1) 
0

>  <r_i_glide_hbond>  (1) 
-0.16

>  <r_i_glide_ligand_efficiency>  (1) 
-0.27411199517437829

>  <r_i_glide_ligand_efficiency_ln>  (1) 
-1.4232463751399222

>  <r_i_glide_ligand_efficiency_sa>  (1) 
-0.7562542105226574

>  <r_i_glide_lipo>  (1) 
-2.1961299679668573

>  <r_i_glide_metal>  (1) 
-0

>  <r_i_glide_rewards>  (1) 
-2.2188357964284342

>  <r_lp_Energy>  (1) 
9.1070440000000001

>  <r_lp_tautomer_probability>  (1) 
0.99990000499974985

>  <s_epik_cmdline>  (1) 
J2VwaWtfcHl0aG9uJywgJy1waHQnLCAnMS4wJywgJy1waCcsICc3LjQnLCAnLXRuJywgJzgnLCAnLW1hJywgJzUwMCcsICctaW1hZScsICc8aW5maWxlLm1hZT4nLCAnLW9tYWUnLCAnPG91dGZpbGUubWFlPic=

>  <s_epik_input>  (1) 
W0NIMl0xW0NIMl1bQ0gyXVtDSF09W0NIXVtDQEhdMVtDQEBIXShbQ0hdPU8pW0NIMl1bTkhdW0NIMl1bQ0BASF0oQ2wpW0NAQEhdMltDSDJdW0NIMl1OMlAoW09IXSlbT0hd

>  <s_glide_docking_method>  (1) 
confgen

>  <s_i_glide_gridfile>  (1) 
gpcr_drd2_6luq_protein_autoprepared_prepared

>  <s_lp_Force_Field>  (1) 
S-OPLS

>  <s_lp_Variant>  (1) 
DiffSBDD_15-4

>  <s_m_source_file>  (1) 
generated_generic_title2_ligand_DiffSBDD_2026-06-23_prepared.sdf

>  <GenAI_Model>  (1) 
DiffSBDD

>  <Protein>  (1) 
generic_title2

$$$$
DiffSBDD_24
     RDKit          3D

  0  0  0  0  0  0  0  0  0  0999 V3000
M  V30 BEGIN CTAB
M  V30 COUNTS 79 83 0 0 1
M  V30 BEGIN ATOM
M  V30 1 C 6.049557 0.459297 -13.587921 0 CFG=2
M  V30 2 C 8.397135 5.447812 -19.809293 0
M  V30 3 C 7.519540 0.883948 -13.441087 0
M  V30 4 C 9.079348 6.775971 -11.454632 0
M  V30 5 C 7.948046 -1.147647 -17.626633 0
M  V30 6 C 7.741725 4.790544 -9.962733 0
M  V30 7 C 8.832090 5.476671 -9.393381 0
M  V30 8 O 7.522159 5.230799 -14.179011 0
M  V30 9 C 6.756501 5.886671 -16.377959 0
M  V30 10 C 5.691921 7.565161 -14.797961 0
M  V30 11 C 11.436188 7.907364 -10.385027 0
M  V30 12 C 6.977983 5.935123 -17.768886 0
M  V30 13 C 7.615358 4.327809 -20.525898 0
M  V30 14 N 7.197467 1.977599 -19.949740 0
M  V30 15 O 9.231351 5.177539 -8.116216 0
M  V30 16 O 5.775416 -0.409773 -12.506743 0
M  V30 17 C 5.694921 -0.234500 -14.922997 0
M  V30 18 C 7.736320 5.320243 -15.529048 0
M  V30 19 C 7.315070 5.098091 -11.266669 0
M  V30 20 C 5.465077 6.427755 -15.800563 0
M  V30 21 O 5.803345 -0.102692 -17.406716 0
M  V30 22 C 9.152445 4.869640 -17.461692 0
M  V30 23 C 7.978921 6.093126 -12.013155 0
M  V30 24 C 9.033929 6.221509 -7.169183 0
M  V30 25 C 7.521465 0.571126 -19.672359 0 CFG=1
M  V30 26 C 8.933309 4.819601 -16.074486 0
M  V30 27 O 9.338844 2.678807 -20.219593 0
M  V30 28 C 8.129647 2.915525 -20.214025 0
M  V30 29 C 7.826773 2.202382 -14.147126 0
M  V30 30 C 7.508574 6.424512 -13.419196 0 CFG=2
M  V30 31 O 10.586328 7.124068 -9.567129 0
M  V30 32 O 8.454169 0.059682 -20.606227 0
M  V30 33 C 8.067832 0.284880 -18.275751 0 CFG=1
M  V30 34 O 8.975408 -1.609753 -16.785022 0
M  V30 35 O 7.146426 -2.123146 -18.256653 0
M  V30 36 C 8.172694 5.420836 -18.311333 0
M  V30 37 C 6.100383 7.032589 -13.415892 0
M  V30 38 C 6.089448 0.521055 -16.181492 0 CFG=2
M  V30 39 C 9.511891 6.467661 -10.137681 0
M  V30 40 C 7.214581 0.018626 -17.080861 0 CFG=2
M  V30 41 H 5.402347 1.326946 -13.455135 0
M  V30 42 H 8.078359 6.418589 -20.189703 0
M  V30 43 H 9.464063 5.375013 -20.027419 0
M  V30 44 H 7.735948 1.037066 -12.385023 0
M  V30 45 H 8.197744 0.096453 -13.772731 0
M  V30 46 H 9.583886 7.533430 -12.031839 0
M  V30 47 H 7.225214 4.033242 -9.392385 0
M  V30 48 H 4.767824 8.130717 -14.694314 0
M  V30 49 H 6.424574 8.275320 -15.185061 0
M  V30 50 H 12.294931 8.242499 -9.803607 0
M  V30 51 H 10.911341 8.790223 -10.737971 0
M  V30 52 H 11.810904 7.338758 -11.237094 0
M  V30 53 H 6.228225 6.357991 -18.421246 0
M  V30 54 H 7.701501 4.468339 -21.603789 0
M  V30 55 H 6.552517 4.404053 -20.291042 0
M  V30 56 H 6.222495 2.239395 -19.960489 0
M  V30 57 H 5.471955 -1.262786 -12.852337 0
M  V30 58 H 6.173531 -1.209780 -14.963211 0
M  V30 59 H 4.619164 -0.409858 -14.958383 0
M  V30 60 H 6.474189 4.572811 -11.695073 0
M  V30 61 H 4.821976 6.775201 -16.610083 0
M  V30 62 H 4.947250 5.600781 -15.319197 0
M  V30 63 H 10.068964 4.476113 -17.876040 0
M  V30 64 H 9.906102 6.294832 -6.520005 0
M  V30 65 H 8.174066 5.990215 -6.542291 0
M  V30 66 H 8.861658 7.203646 -7.611556 0
M  V30 67 H 6.601021 0.004011 -19.811059 0
M  V30 68 H 9.681761 4.390217 -15.425506 0
M  V30 69 H 8.587910 2.756965 -13.602412 0
M  V30 70 H 6.943020 2.837354 -14.185798 0
M  V30 71 H 8.175297 2.050100 -15.168021 0
M  V30 72 H 8.175411 7.160010 -13.859294 0
M  V30 73 H 9.105652 0.734674 -20.748934 0
M  V30 74 H 8.996142 0.813663 -18.066850 0
M  V30 75 H 8.569310 -2.149535 -16.110883 0
M  V30 76 H 6.245037 -1.924573 -18.040679 0
M  V30 77 H 6.070297 7.842631 -12.686411 0
M  V30 78 H 5.374552 6.300067 -13.064757 0
M  V30 79 H 5.900638 1.590188 -16.182947 0
M  V30 END ATOM
M  V30 BEGIN BOND
M  V30 1 1 3 1
M  V30 2 1 7 6
M  V30 3 1 12 9
M  V30 4 1 13 2
M  V30 5 1 15 7
M  V30 6 1 16 1
M  V30 7 1 17 1
M  V30 8 1 18 8
M  V30 9 2 18 9
M  V30 10 2 19 6
M  V30 11 1 20 9
M  V30 12 1 20 10
M  V30 13 2 23 4
M  V30 14 1 23 19
M  V30 15 1 24 15
M  V30 16 1 25 14
M  V30 17 1 26 18
M  V30 18 2 26 22
M  V30 19 1 28 13
M  V30 20 1 28 14
M  V30 21 2 28 27
M  V30 22 1 29 3
M  V30 23 1 30 8
M  V30 24 1 30 23
M  V30 25 1 31 11
M  V30 26 1 32 25
M  V30 27 1 33 5
M  V30 28 1 33 25
M  V30 29 1 34 5
M  V30 30 1 35 5
M  V30 31 1 36 2
M  V30 32 2 36 12
M  V30 33 1 36 22
M  V30 34 1 37 10
M  V30 35 1 37 30
M  V30 36 1 38 17
M  V30 37 1 38 21
M  V30 38 1 39 4
M  V30 39 2 39 7
M  V30 40 1 39 31
M  V30 41 1 40 5
M  V30 42 1 40 21 CFG=3
M  V30 43 1 40 33
M  V30 44 1 40 38
M  V30 45 1 1 41 CFG=1
M  V30 46 1 42 2
M  V30 47 1 43 2
M  V30 48 1 44 3
M  V30 49 1 45 3
M  V30 50 1 46 4
M  V30 51 1 47 6
M  V30 52 1 48 10
M  V30 53 1 49 10
M  V30 54 1 50 11
M  V30 55 1 51 11
M  V30 56 1 52 11
M  V30 57 1 53 12
M  V30 58 1 54 13
M  V30 59 1 55 13
M  V30 60 1 56 14
M  V30 61 1 57 16
M  V30 62 1 58 17
M  V30 63 1 59 17
M  V30 64 1 60 19
M  V30 65 1 61 20
M  V30 66 1 62 20
M  V30 67 1 63 22
M  V30 68 1 64 24
M  V30 69 1 65 24
M  V30 70 1 66 24
M  V30 71 1 25 67 CFG=1
M  V30 72 1 68 26
M  V30 73 1 69 29
M  V30 74 1 70 29
M  V30 75 1 71 29
M  V30 76 1 30 72 CFG=3
M  V30 77 1 73 32
M  V30 78 1 33 74 CFG=1
M  V30 79 1 75 34
M  V30 80 1 76 35
M  V30 81 1 77 37
M  V30 82 1 78 37
M  V30 83 1 38 79 CFG=3
M  V30 END BOND
M  V30 END CTAB
M  END
>  <i_epik_Tot_Q>  (1) 
0

>  <i_epik_Tot_abs_Q>  (1) 
0

>  <i_i_glide_confnum>  (1) 
23

>  <i_i_glide_lignum>  (1) 
71

>  <i_i_glide_posenum>  (1) 
98

>  <i_i_glide_rotatable_bonds>  (1) 
16

>  <i_lp_mmshare_version>  (1) 
72125

>  <i_m_source_file_index>  (1) 
25

>  <i_f3d_flags>  (1) 
0

>  <num_sample>  (1) 
50

>  <b_lp_Chiralities_Consistent>  (1) 
1

>  <r_epik_Charging_Adjusted_Penalty>  (1) 
0

>  <r_epik_Ionization_Penalty>  (1) 
7.7966095074424399e-05

>  <r_epik_Ionization_Penalty_Charging>  (1) 
0

>  <r_epik_Ionization_Penalty_Neutral>  (1) 
7.7966095074424399e-05

>  <r_epik_State_Penalty>  (1) 
-0

>  <r_glide_ring_energy>  (1) 
0

>  <r_i_docking_score>  (1) 
-5.7534161007521147

>  <r_i_glide_ecoul>  (1) 
-8.1935644789261666

>  <r_i_glide_eff_state_penalty>  (1) 
-0

>  <r_i_glide_einternal>  (1) 
11.572931687981434

>  <r_i_glide_emodel>  (1) 
-52.01470074437011

>  <r_i_glide_emodel_strain>  (1) 
3.2425534723761587

>  <r_i_glide_energy>  (1) 
-46.707255468300502

>  <r_i_glide_erotb>  (1) 
0.5242298981819471

>  <r_i_glide_esite>  (1) 
-0.022827308177877825

>  <r_i_glide_evdw>  (1) 
-38.513690989374332

>  <r_i_glide_gscore>  (1) 
-5.7534161007521147

>  <r_i_glide_gscore_strain>  (1) 
0

>  <r_i_glide_hbond>  (1) 
-0.44900284381560901

>  <r_i_glide_ligand_efficiency>  (1) 
-0.14383540251880286

>  <r_i_glide_ligand_efficiency_ln>  (1) 
-1.2270343388129064

>  <r_i_glide_ligand_efficiency_sa>  (1) 
-0.49191015717542746

>  <r_i_glide_lipo>  (1) 
-1.8976199370637441

>  <r_i_glide_metal>  (1) 
-0

>  <r_i_glide_rewards>  (1) 
-0.75347668856918926

>  <r_lp_Energy>  (1) 
27.684539999999998

>  <r_lp_tautomer_probability>  (1) 
1

>  <s_epik_Chemistry_Notes>  (1) 
This compound contains an acetal/aminal-like group ( X-CH(R)-Y where X, Y are N, S, or O) that may be acid/base labile, releasing an aldehyde.

>  <s_epik_cmdline>  (1) 
J2VwaWtfcHl0aG9uJywgJy1waHQnLCAnMS4wJywgJy1waCcsICc3LjQnLCAnLXRuJywgJzgnLCAnLW1hJywgJzUwMCcsICctaW1hZScsICc8aW5maWxlLm1hZT4nLCAnLW9tYWUnLCAnPG91dGZpbGUubWFlPic=

>  <s_epik_input>  (1) 
W0NIM11bQ0gyXVtDQEhdKFtPSF0pW0NIMl1bQ0BASF0xT1tDQF0xMkMoW09IXSkoW09IXSlbQ0BIXTJbQ0BIXShbT0hdKVtOSF1DKD1PKVtDSDJdW0NIMl1jKFtjSF0zKVtjSF1bY0hdYyhjMzQpT1tDQEBIXShbQ0gyXVtDSDJdW0NIMl00KWMoW2NIXWM1T1tDSDNdKVtjSF1bY0hdYzVPW0NIM10=

>  <s_glide_docking_method>  (1) 
confgen

>  <s_i_glide_gridfile>  (1) 
gpcr_drd2_6luq_protein_autoprepared_prepared

>  <s_lp_Force_Field>  (1) 
S-OPLS

>  <s_lp_Variant>  (1) 
DiffSBDD_24-1

>  <s_m_source_file>  (1) 
generated_generic_title2_ligand_DiffSBDD_2026-06-23_prepared.sdf

>  <GenAI_Model>  (1) 
DiffSBDD

>  <Protein>  (1) 
generic_title2

$$$$
DiffSBDD_8
     RDKit          3D

  0  0  0  0  0  0  0  0  0  0999 V3000
M  V30 BEGIN CTAB
M  V30 COUNTS 70 73 0 0 1
M  V30 BEGIN ATOM
M  V30 1 N 7.247409 3.400145 -14.817948 0
M  V30 2 C 10.190095 4.152273 -16.941739 0
M  V30 3 C 7.259671 6.673976 -12.441959 0 CFG=1
M  V30 4 N 8.720329 5.341360 -18.392304 0
M  V30 5 O 8.729608 3.760212 -12.393975 0
M  V30 6 C 9.621342 5.955283 -8.564782 0
M  V30 7 F 6.819505 4.101737 -18.122169 0
M  V30 8 C 10.508085 7.034538 -7.910620 0
M  V30 9 N 8.975450 6.381734 -9.831640 0 CHG=1
M  V30 10 C 8.452513 5.231627 -10.621251 0 CFG=1
M  V30 11 C 8.149573 4.029379 -18.135387 0 CFG=2
M  V30 12 C 11.897047 8.986744 -2.906449 0
M  V30 13 C 7.252496 5.446397 -11.547740 0 CFG=2
M  V30 14 O 10.175383 5.565110 -12.298090 0
M  V30 15 O 8.620481 5.532387 -19.814953 0
M  V30 16 C 9.791140 7.882043 -6.837491 0
M  V30 17 C 6.461781 3.056975 -12.385146 0
M  V30 18 C 7.008343 1.998873 -15.186474 0
M  V30 19 C 6.552692 3.876605 -13.657634 0 CFG=1
M  V30 20 C 8.763469 3.599851 -16.794568 0 CFG=2
M  V30 21 C 8.043773 4.215507 -15.560425 0
M  V30 22 C 5.969385 7.055608 -13.120064 0
M  V30 23 C 9.468631 4.588444 -11.562290 0 CFG=2
M  V30 24 C 7.392513 4.235854 -12.443943 0 CFG=2
M  V30 25 O 11.775428 7.931019 -1.981091 0
M  V30 26 O 8.212812 5.405240 -15.278861 0
M  V30 27 C 12.415106 8.390193 -4.213416 0
M  V30 28 C 8.186622 6.863121 -20.030097 0
M  V30 29 C 10.137401 5.138850 -18.118792 0
M  V30 30 O 11.375450 7.851754 -5.030780 0
M  V30 31 C 10.777421 8.640240 -5.937687 0
M  V30 32 N 6.485548 7.797696 -11.985026 0 CHG=1
M  V30 33 O 10.975765 9.847336 -6.057646 0
M  V30 34 H 10.553126 4.645792 -16.038997 0
M  V30 35 H 10.896498 3.349783 -17.156896 0
M  V30 36 H 8.191120 7.003271 -12.895234 0
M  V30 37 H 10.246625 5.090769 -8.782570 0
M  V30 38 H 8.861227 5.600854 -7.867024 0
M  V30 39 H 10.961427 7.676694 -8.667579 0
M  V30 40 H 11.339052 6.513906 -7.431167 0
M  V30 41 H 8.168446 6.979645 -9.585060 0
M  V30 42 H 8.144517 4.455152 -9.918021 0
M  V30 43 H 8.428704 3.327075 -18.923718 0
M  V30 44 H 10.975448 9.551295 -3.043263 0
M  V30 45 H 12.625293 9.685153 -2.501652 0
M  V30 46 H 6.312066 5.395463 -10.994762 0
M  V30 47 H 10.778209 5.103005 -12.874607 0
M  V30 48 H 9.192155 7.234629 -6.194463 0
M  V30 49 H 9.096804 8.582802 -7.302638 0
M  V30 50 H 6.896466 2.061501 -12.385672 0
M  V30 51 H 5.604251 3.190259 -11.736085 0
M  V30 52 H 6.711775 1.900114 -16.231742 0
M  V30 53 H 7.896586 1.392672 -15.004537 0
M  V30 54 H 6.196972 1.561107 -14.604007 0
M  V30 55 H 5.666922 4.471242 -13.865215 0
M  V30 56 H 8.834070 2.516553 -16.747713 0
M  V30 57 H 6.011843 7.602016 -14.058199 0
M  V30 58 H 5.028963 6.586780 -12.839840 0
M  V30 59 H 10.175401 3.990670 -11.009486 0
M  V30 60 H 11.225317 7.257929 -2.354232 0
M  V30 61 H 12.970919 9.150647 -4.765727 0
M  V30 62 H 13.129071 7.601074 -3.981863 0
M  V30 63 H 8.063111 7.036532 -21.099442 0
M  V30 64 H 7.227475 7.055600 -19.545721 0
M  V30 65 H 8.922382 7.578483 -19.660638 0
M  V30 66 H 10.634464 6.082841 -17.897248 0
M  V30 67 H 10.627351 4.694382 -18.987523 0
M  V30 68 H 6.175106 7.625239 -11.029463 0
M  V30 69 H 9.621784 6.897096 -10.410886 0
M  V30 70 H 6.957630 8.669486 -12.173742 0
M  V30 END ATOM
M  V30 BEGIN BOND
M  V30 1 1 8 6
M  V30 2 1 9 6
M  V30 3 1 10 9
M  V30 4 1 11 4
M  V30 5 1 11 7
M  V30 6 1 13 3
M  V30 7 1 13 10
M  V30 8 1 15 4
M  V30 9 1 16 8
M  V30 10 1 18 1
M  V30 11 1 19 1
M  V30 12 1 19 17
M  V30 13 1 20 2
M  V30 14 1 20 11
M  V30 15 1 21 1
M  V30 16 1 21 20
M  V30 17 1 22 3
M  V30 18 1 23 5
M  V30 19 1 23 10
M  V30 20 1 23 14
M  V30 21 1 24 5 CFG=3
M  V30 22 1 24 13
M  V30 23 1 24 17
M  V30 24 1 24 19
M  V30 25 1 25 12
M  V30 26 2 26 21
M  V30 27 1 27 12
M  V30 28 1 28 15
M  V30 29 1 29 2
M  V30 30 1 29 4
M  V30 31 1 30 27
M  V30 32 1 31 16
M  V30 33 1 31 30
M  V30 34 1 32 3
M  V30 35 1 32 22
M  V30 36 2 33 31
M  V30 37 1 34 2
M  V30 38 1 35 2
M  V30 39 1 3 36 CFG=3
M  V30 40 1 37 6
M  V30 41 1 38 6
M  V30 42 1 39 8
M  V30 43 1 40 8
M  V30 44 1 41 9
M  V30 45 1 10 42 CFG=1
M  V30 46 1 11 43 CFG=3
M  V30 47 1 44 12
M  V30 48 1 45 12
M  V30 49 1 13 46 CFG=1
M  V30 50 1 47 14
M  V30 51 1 48 16
M  V30 52 1 49 16
M  V30 53 1 50 17
M  V30 54 1 51 17
M  V30 55 1 52 18
M  V30 56 1 53 18
M  V30 57 1 54 18
M  V30 58 1 19 55 CFG=3
M  V30 59 1 20 56 CFG=1
M  V30 60 1 57 22
M  V30 61 1 58 22
M  V30 62 1 23 59 CFG=1
M  V30 63 1 60 25
M  V30 64 1 61 27
M  V30 65 1 62 27
M  V30 66 1 63 28
M  V30 67 1 64 28
M  V30 68 1 65 28
M  V30 69 1 66 29
M  V30 70 1 67 29
M  V30 71 1 68 32
M  V30 72 1 69 9
M  V30 73 1 70 32
M  V30 END BOND
M  V30 END CTAB
M  END
>  <i_epik_Tot_Q>  (1) 
2

>  <i_epik_Tot_abs_Q>  (1) 
2

>  <i_i_glide_confnum>  (1) 
452

>  <i_i_glide_lignum>  (1) 
40

>  <i_i_glide_posenum>  (1) 
356

>  <i_i_glide_rotatable_bonds>  (1) 
15

>  <i_lp_mmshare_version>  (1) 
72125

>  <i_m_source_file_index>  (1) 
9

>  <i_f3d_flags>  (1) 
0

>  <num_sample>  (1) 
50

>  <b_lp_Chiralities_Consistent>  (1) 
1

>  <r_epik_Charging_Adjusted_Penalty>  (1) 
2.8797985042560583

>  <r_epik_Ionization_Penalty>  (1) 
1.6442763990741283

>  <r_epik_Ionization_Penalty_Charging>  (1) 
1.6439676131770962

>  <r_epik_Ionization_Penalty_Neutral>  (1) 
0.00030878589703216643

>  <r_epik_State_Penalty>  (1) 
1.2358308910789622

>  <r_glide_ring_energy>  (1) 
0

>  <r_i_docking_score>  (1) 
-5.7525349630883387

>  <r_i_glide_ecoul>  (1) 
-15.286897014196144

>  <r_i_glide_eff_state_penalty>  (1) 
1.2358308910789622

>  <r_i_glide_einternal>  (1) 
18.252554378934775

>  <r_i_glide_emodel>  (1) 
-66.82233395963226

>  <r_i_glide_emodel_strain>  (1) 
1.7167516061209227

>  <r_i_glide_energy>  (1) 
-48.784613147878112

>  <r_i_glide_erotb>  (1) 
1.0700444368793263

>  <r_i_glide_esite>  (1) 
-0.20000000000000001

>  <r_i_glide_evdw>  (1) 
-33.497716133681969

>  <r_i_glide_gscore>  (1) 
-6.9883658541673013

>  <r_i_glide_gscore_strain>  (1) 
0

>  <r_i_glide_hbond>  (1) 
-0.65515604043152553

>  <r_i_glide_ligand_efficiency>  (1) 
-0.17431924130570722

>  <r_i_glide_ligand_efficiency_ln>  (1) 
-1.2793339907588683

>  <r_i_glide_ligand_efficiency_sa>  (1) 
-0.55913495086688247

>  <r_i_glide_lipo>  (1) 
-1.3982467061874646

>  <r_i_glide_metal>  (1) 
-0

>  <r_i_glide_rewards>  (1) 
-1.8370871856141169

>  <r_lp_Energy>  (1) 
49.698582999999999

>  <s_epik_Chemistry_Notes>  (1) 
This compound has an ester and may undergo hydrolysis at high or low pH. This compound contains an acetal/aminal-like group ( X-CH(R)-Y where X, Y are N, S, or O) that may be acid/base labile, releasing an aldehyde. This compound has a N-S or N-O group and may undergo hydrolysis at high or low pH.

>  <s_epik_cmdline>  (1) 
J2VwaWtfcHl0aG9uJywgJy1waHQnLCAnMS4wJywgJy1waCcsICc3LjQnLCAnLXRuJywgJzgnLCAnLW1hJywgJzUwMCcsICctaW1hZScsICc8aW5maWxlLm1hZT4nLCAnLW9tYWUnLCAnPG91dGZpbGUubWFlPic=

>  <s_epik_input>  (1) 
W0NIM11PTjFbQ0BIXShGKVtDQEBIXShbQ0gyXVtDSDJdMSlDKD1PKU4oW0NIM10pW0NASF0yW0NIMl1DMjNPW0NAQEhdKFtPSF0pW0NASF0oW0NASF0zW0NASF00W0NIMl1bTkhdNClbTkhdW0NIMl1bQ0gyXVtDSDJdQyg9TylPW0NIMl1bQ0gyXVtPSF0=

>  <s_glide_docking_method>  (1) 
confgen

>  <s_i_glide_gridfile>  (1) 
gpcr_drd2_6luq_protein_autoprepared_prepared

>  <s_lp_Force_Field>  (1) 
S-OPLS

>  <s_lp_Variant>  (1) 
DiffSBDD_8-9

>  <s_m_source_file>  (1) 
generated_generic_title2_ligand_DiffSBDD_2026-06-23_prepared.sdf

>  <GenAI_Model>  (1) 
DiffSBDD

>  <Protein>  (1) 
generic_title2

$$$$
DiffSBDD_11
     RDKit          3D

  0  0  0  0  0  0  0  0  0  0999 V3000
M  V30 BEGIN CTAB
M  V30 COUNTS 46 47 0 0 1
M  V30 BEGIN ATOM
M  V30 1 N 7.396575 2.700985 -14.208970 0
M  V30 2 O 11.598768 8.924207 -9.579651 0
M  V30 3 C 6.391785 0.936842 -13.633587 0
M  V30 4 C 11.309465 7.009479 -7.571912 0
M  V30 5 O 8.498563 4.557871 -15.050508 0
M  V30 6 N 6.893465 2.045743 -13.138033 0
M  V30 7 C 6.120664 -0.240018 -15.893181 0
M  V30 8 N 5.774792 -0.010478 -12.820295 0
M  V30 9 C 7.196939 1.971640 -15.387102 0
M  V30 10 C 8.041961 3.987149 -14.058094 0
M  V30 11 C 6.541731 0.814903 -15.042772 0
M  V30 12 C 10.394495 8.110912 -7.092473 0
M  V30 13 C 10.389795 8.201553 -9.687647 0 CFG=1
M  V30 14 C 10.443121 7.332486 -10.963173 0
M  V30 15 C 8.645107 5.828983 -7.185866 0
M  V30 16 C 8.140591 4.606332 -12.653234 0
M  V30 17 C 9.310706 6.297936 -11.088353 0
M  V30 18 C 7.639854 2.420445 -16.751034 0
M  V30 19 N 8.976448 6.494107 -8.462325 0 CHG=1
M  V30 20 N 5.777915 -1.098921 -16.588235 0
M  V30 21 C 10.119093 7.418786 -8.405979 0
M  V30 22 C 9.199145 5.719674 -12.510386 0
M  V30 23 H 11.573914 9.455356 -8.797164 0
M  V30 24 H 11.258641 6.050642 -7.056016 0
M  V30 25 H 12.298691 7.294942 -7.929741 0
M  V30 26 H 5.397421 -0.869289 -13.195131 0
M  V30 27 H 5.705106 0.122497 -11.821679 0
M  V30 28 H 10.771985 9.132779 -7.129754 0
M  V30 29 H 9.731935 7.888480 -6.256029 0
M  V30 30 H 9.601110 8.945320 -9.805209 0
M  V30 31 H 10.426189 7.982364 -11.838645 0
M  V30 32 H 11.404112 6.817408 -11.005633 0
M  V30 33 H 7.836917 5.113952 -7.340473 0
M  V30 34 H 9.505734 5.287271 -6.792076 0
M  V30 35 H 8.315048 6.549242 -6.437267 0
M  V30 36 H 8.375766 3.800606 -11.957025 0
M  V30 37 H 7.162515 4.990730 -12.361558 0
M  V30 38 H 9.471859 5.485107 -10.378944 0
M  V30 39 H 8.365555 6.760077 -10.810042 0
M  V30 40 H 7.381194 1.690584 -17.518044 0
M  V30 41 H 7.163980 3.361608 -17.026686 0
M  V30 42 H 8.721030 2.555855 -16.785931 0
M  V30 43 H 8.167684 7.006717 -8.785198 0
M  V30 44 H 8.985265 6.518763 -13.221840 0
M  V30 45 H 10.169253 5.316683 -12.803681 0
M  V30 46 H 9.190577 5.779101 -9.142717 0
M  V30 END ATOM
M  V30 BEGIN BOND
M  V30 1 1 6 1
M  V30 2 2 6 3
M  V30 3 1 8 3
M  V30 4 1 9 1
M  V30 5 1 10 1
M  V30 6 2 10 5
M  V30 7 1 11 3
M  V30 8 1 11 7
M  V30 9 2 11 9
M  V30 10 1 12 4
M  V30 11 1 13 2
M  V30 12 1 14 13
M  V30 13 1 16 10
M  V30 14 1 17 14
M  V30 15 1 18 9
M  V30 16 1 19 15
M  V30 17 3 20 7
M  V30 18 1 21 4
M  V30 19 1 21 12
M  V30 20 1 21 13
M  V30 21 1 21 19
M  V30 22 1 22 16
M  V30 23 1 22 17
M  V30 24 1 23 2
M  V30 25 1 24 4
M  V30 26 1 25 4
M  V30 27 1 26 8
M  V30 28 1 27 8
M  V30 29 1 28 12
M  V30 30 1 29 12
M  V30 31 1 13 30 CFG=3
M  V30 32 1 31 14
M  V30 33 1 32 14
M  V30 34 1 33 15
M  V30 35 1 34 15
M  V30 36 1 35 15
M  V30 37 1 36 16
M  V30 38 1 37 16
M  V30 39 1 38 17
M  V30 40 1 39 17
M  V30 41 1 40 18
M  V30 42 1 41 18
M  V30 43 1 42 18
M  V30 44 1 43 19
M  V30 45 1 44 22
M  V30 46 1 45 22
M  V30 47 1 46 19
M  V30 END BOND
M  V30 END CTAB
M  END
>  <i_epik_Tot_Q>  (1) 
1

>  <i_epik_Tot_abs_Q>  (1) 
1

>  <i_i_glide_confnum>  (1) 
255

>  <i_i_glide_lignum>  (1) 
46

>  <i_i_glide_posenum>  (1) 
372

>  <i_i_glide_rotatable_bonds>  (1) 
9

>  <i_lp_mmshare_version>  (1) 
72125

>  <i_m_source_file_index>  (1) 
12

>  <i_f3d_flags>  (1) 
0

>  <num_sample>  (1) 
50

>  <b_lp_Chiralities_Consistent>  (1) 
1

>  <r_epik_Charging_Adjusted_Penalty>  (1) 
0.78432572632575315

>  <r_epik_Ionization_Penalty>  (1) 
0.3972836053020487

>  <r_epik_Ionization_Penalty_Charging>  (1) 
0.39216286316287657

>  <r_epik_Ionization_Penalty_Neutral>  (1) 
0.0051207421391721471

>  <r_epik_State_Penalty>  (1) 
0.39216286316287657

>  <r_glide_ring_energy>  (1) 
0

>  <r_i_docking_score>  (1) 
-5.7518706605432737

>  <r_i_glide_ecoul>  (1) 
-7.9181103128819856

>  <r_i_glide_eff_state_penalty>  (1) 
0.39216286316287657

>  <r_i_glide_einternal>  (1) 
6.6282527605100334

>  <r_i_glide_emodel>  (1) 
-50.70022245081482

>  <r_i_glide_emodel_strain>  (1) 
2.003418069240837

>  <r_i_glide_energy>  (1) 
-36.004328646630746

>  <r_i_glide_erotb>  (1) 
0.96414532890940241

>  <r_i_glide_esite>  (1) 
-0.15051325307431065

>  <r_i_glide_evdw>  (1) 
-28.086218333748761

>  <r_i_glide_gscore>  (1) 
-6.1440335237061499

>  <r_i_glide_gscore_strain>  (1) 
0

>  <r_i_glide_hbond>  (1) 
-0.3683826604618079

>  <r_i_glide_ligand_efficiency>  (1) 
-0.26144866638833064

>  <r_i_glide_ligand_efficiency_ln>  (1) 
-1.405966994016792

>  <r_i_glide_ligand_efficiency_sa>  (1) 
-0.73258944616750166

>  <r_i_glide_lipo>  (1) 
-1.1285702007739622

>  <r_i_glide_metal>  (1) 
-0

>  <r_i_glide_rewards>  (1) 
-2.8686852746857356

>  <r_lp_Energy>  (1) 
18.601261000000001

>  <s_epik_cmdline>  (1) 
J2VwaWtfcHl0aG9uJywgJy1waHQnLCAnMS4wJywgJy1waCcsICc3LjQnLCAnLXRuJywgJzgnLCAnLW1hJywgJzUwMCcsICctaW1hZScsICc8aW5maWxlLm1hZT4nLCAnLW9tYWUnLCAnPG91dGZpbGUubWFlPic=

>  <s_epik_input>  (1) 
W0NIM11jMWMoQyNOKWMoW05IMl0pbm4xQyg9TylbQ0gyXVtDSDJdW0NIMl1bQ0gyXVtDQEhdKFtPSF0pQzIoW0NIMl1bQ0gyXTIpW05IXVtDSDNd

>  <s_glide_docking_method>  (1) 
confgen

>  <s_i_glide_gridfile>  (1) 
gpcr_drd2_6luq_protein_autoprepared_prepared

>  <s_lp_Force_Field>  (1) 
S-OPLS

>  <s_lp_Variant>  (1) 
DiffSBDD_11-1

>  <s_m_source_file>  (1) 
generated_generic_title2_ligand_DiffSBDD_2026-06-23_prepared.sdf

>  <GenAI_Model>  (1) 
DiffSBDD

>  <Protein>  (1) 
generic_title2

$$$$
DiffSBDD_40
     RDKit          3D

  0  0  0  0  0  0  0  0  0  0999 V3000
M  V30 BEGIN CTAB
M  V30 COUNTS 74 76 0 0 1
M  V30 BEGIN ATOM
M  V30 1 C 9.775717 7.121194 -8.708505 0
M  V30 2 O 15.975878 4.891523 -20.050090 0 CHG=-1
M  V30 3 C 12.578372 5.837693 -16.583266 0
M  V30 4 C 10.441287 7.415783 -9.838619 0
M  V30 5 C 10.605240 5.147985 -19.910989 0 CFG=2
M  V30 6 C 6.601634 5.676020 -17.074334 0
M  V30 7 C 6.936663 5.873052 -15.561696 0 CFG=2
M  V30 8 C 10.352827 3.625928 -20.031304 0
M  V30 9 C 11.484249 5.245988 -17.466279 0
M  V30 10 C 8.811344 5.588118 -11.353735 0
M  V30 11 C 11.166762 8.254299 -6.854443 0
M  V30 12 C 14.278810 5.393301 -18.447168 0 CFG=2
M  V30 13 F 10.974147 5.990860 -7.106372 0
M  V30 14 C 7.269542 4.546050 -14.823420 0
M  V30 15 C 11.781216 5.510256 -18.960250 0 CFG=1
M  V30 16 C 13.120875 4.840389 -19.315346 0
M  V30 17 C 6.484344 6.053075 -12.355008 0
M  V30 18 C 6.216842 7.150879 -13.395605 0
M  V30 19 C 12.576935 8.475186 -8.910138 0
M  V30 20 C 9.380515 5.951051 -19.480126 0
M  V30 21 C 7.656232 4.894381 -17.828248 0
M  V30 22 C 11.838225 7.879799 -9.892851 0
M  V30 23 F 10.942737 8.710219 -5.609929 0
M  V30 24 S 9.585153 7.234978 -11.381527 0
M  V30 25 O 16.174585 3.991480 -18.021747 0
M  V30 26 C 14.980392 6.044637 -16.055910 0
M  V30 27 C 12.167868 8.808645 -7.543101 0
M  V30 28 C 8.189284 4.738475 -13.629125 0
M  V30 29 C 15.590793 4.698702 -18.875126 0
M  V30 30 C 10.329723 7.129593 -7.330634 0 CFG=2
M  V30 31 C 7.848790 5.411778 -12.518386 0
M  V30 32 C 8.426079 5.441475 -18.736527 0
M  V30 33 C 13.971875 5.278345 -16.916910 0 CFG=1
M  V30 34 C 5.314513 7.879374 -15.613560 0
M  V30 35 C 5.821562 6.663666 -14.813635 0 CFG=1
M  V30 36 H 8.752748 6.791271 -8.785953 0
M  V30 37 H 12.576648 6.922655 -16.694611 0
M  V30 38 H 12.338952 5.648061 -15.538115 0
M  V30 39 H 10.857217 5.503460 -20.911836 0
M  V30 40 H 6.526447 6.649592 -17.563116 0
M  V30 41 H 5.636419 5.198797 -17.211424 0
M  V30 42 H 7.840423 6.474263 -15.532911 0
M  V30 43 H 9.501021 3.421757 -20.679407 0
M  V30 44 H 11.203626 3.108804 -20.472465 0
M  V30 45 H 10.151674 3.160865 -19.065803 0
M  V30 46 H 10.550084 5.704574 -17.147840 0
M  V30 47 H 11.387525 4.174582 -17.281897 0
M  V30 48 H 8.273020 5.424185 -10.419980 0
M  V30 49 H 9.598571 4.834917 -11.404615 0
M  V30 50 H 14.394334 6.453560 -18.687898 0
M  V30 51 H 6.358875 4.032886 -14.514861 0
M  V30 52 H 7.795724 3.845418 -15.464206 0
M  V30 53 H 11.928818 6.586233 -19.070253 0
M  V30 54 H 13.043730 3.763115 -19.159767 0
M  V30 55 H 13.333402 4.989150 -20.375549 0
M  V30 56 H 5.713014 5.285802 -12.408823 0
M  V30 57 H 6.411012 6.473194 -11.351014 0
M  V30 58 H 5.394634 7.747937 -12.991821 0
M  V30 59 H 7.085295 7.809467 -13.458615 0
M  V30 60 H 13.570467 8.789251 -9.194470 0
M  V30 61 H 9.340801 6.980332 -19.806957 0
M  V30 62 H 7.754331 3.849560 -17.578140 0
M  V30 63 H 12.325670 7.785329 -10.850882 0
M  V30 64 H 14.975318 7.081267 -16.385025 0
M  V30 65 H 14.702208 6.040385 -15.002518 0
M  V30 66 H 15.997716 5.661333 -16.125685 0
M  V30 67 H 12.735884 9.578684 -7.039449 0
M  V30 68 H 9.175726 4.302636 -13.705208 0
M  V30 69 H 9.466743 7.095713 -6.664702 0
M  V30 70 H 13.993238 4.228814 -16.617208 0
M  V30 71 H 6.122242 8.569969 -15.859918 0
M  V30 72 H 4.811407 7.590993 -16.536603 0
M  V30 73 H 4.574491 8.428443 -15.038596 0
M  V30 74 H 4.975482 5.989897 -14.695966 0
M  V30 END ATOM
M  V30 BEGIN BOND
M  V30 1 2 4 1
M  V30 2 1 7 6
M  V30 3 1 8 5
M  V30 4 1 9 3
M  V30 5 1 14 7
M  V30 6 1 15 5
M  V30 7 1 15 9
M  V30 8 1 16 12
M  V30 9 1 16 15
M  V30 10 1 18 17
M  V30 11 1 20 5
M  V30 12 1 21 6
M  V30 13 1 22 4
M  V30 14 2 22 19
M  V30 15 1 23 11
M  V30 16 1 24 4
M  V30 17 1 24 10
M  V30 18 2 27 11
M  V30 19 1 27 19
M  V30 20 1 28 14
M  V30 21 1 29 2
M  V30 22 1 29 12
M  V30 23 2 29 25
M  V30 24 1 30 1
M  V30 25 1 30 11
M  V30 26 1 30 13
M  V30 27 1 31 10
M  V30 28 1 31 17
M  V30 29 2 31 28
M  V30 30 2 32 20
M  V30 31 2 32 21
M  V30 32 1 33 3
M  V30 33 1 33 12
M  V30 34 1 33 26
M  V30 35 1 35 7
M  V30 36 1 35 18
M  V30 37 1 35 34
M  V30 38 1 36 1
M  V30 39 1 37 3
M  V30 40 1 38 3
M  V30 41 1 5 39 CFG=3
M  V30 42 1 40 6
M  V30 43 1 41 6
M  V30 44 1 7 42 CFG=3
M  V30 45 1 43 8
M  V30 46 1 44 8
M  V30 47 1 45 8
M  V30 48 1 46 9
M  V30 49 1 47 9
M  V30 50 1 48 10
M  V30 51 1 49 10
M  V30 52 1 12 50 CFG=3
M  V30 53 1 51 14
M  V30 54 1 52 14
M  V30 55 1 15 53 CFG=1
M  V30 56 1 54 16
M  V30 57 1 55 16
M  V30 58 1 56 17
M  V30 59 1 57 17
M  V30 60 1 58 18
M  V30 61 1 59 18
M  V30 62 1 60 19
M  V30 63 1 61 20
M  V30 64 1 62 21
M  V30 65 1 63 22
M  V30 66 1 64 26
M  V30 67 1 65 26
M  V30 68 1 66 26
M  V30 69 1 67 27
M  V30 70 1 68 28
M  V30 71 1 30 69 CFG=1
M  V30 72 1 33 70 CFG=1
M  V30 73 1 71 34
M  V30 74 1 72 34
M  V30 75 1 73 34
M  V30 76 1 35 74 CFG=1
M  V30 END BOND
M  V30 END CTAB
M  END
>  <i_epik_Tot_Q>  (1) 
-1

>  <i_epik_Tot_abs_Q>  (1) 
1

>  <i_i_glide_confnum>  (1) 
204

>  <i_i_glide_lignum>  (1) 
115

>  <i_i_glide_posenum>  (1) 
305

>  <i_i_glide_rotatable_bonds>  (1) 
8

>  <i_lp_mmshare_version>  (1) 
72125

>  <i_m_source_file_index>  (1) 
41

>  <i_f3d_flags>  (1) 
0

>  <num_sample>  (1) 
50

>  <b_lp_Chiralities_Consistent>  (1) 
1

>  <r_epik_Charging_Adjusted_Penalty>  (1) 
0.0014684053483694905

>  <r_epik_Ionization_Penalty>  (1) 
0.0014684053483694905

>  <r_epik_Ionization_Penalty_Charging>  (1) 
0.0014684053483694905

>  <r_epik_Ionization_Penalty_Neutral>  (1) 
0

>  <r_epik_State_Penalty>  (1) 
-0

>  <r_glide_ring_energy>  (1) 
0

>  <r_i_docking_score>  (1) 
-5.715199732778685

>  <r_i_glide_ecoul>  (1) 
-4.4421702148770557

>  <r_i_glide_eff_state_penalty>  (1) 
-0

>  <r_i_glide_einternal>  (1) 
8.8556868268341571

>  <r_i_glide_emodel>  (1) 
-40.843747654621161

>  <r_i_glide_emodel_strain>  (1) 
1.4261441071994767

>  <r_i_glide_energy>  (1) 
-36.751615661908545

>  <r_i_glide_erotb>  (1) 
0.56810967558155767

>  <r_i_glide_esite>  (1) 
-0.0035034806240839171

>  <r_i_glide_evdw>  (1) 
-32.309445447031486

>  <r_i_glide_gscore>  (1) 
-5.715199732778685

>  <r_i_glide_gscore_strain>  (1) 
0

>  <r_i_glide_hbond>  (1) 
-0.11392306745646684

>  <r_i_glide_ligand_efficiency>  (1) 
-0.16329142093653384

>  <r_i_glide_ligand_efficiency_ln>  (1) 
-1.2546131833689229

>  <r_i_glide_ligand_efficiency_sa>  (1) 
-0.53413706576831976

>  <r_i_glide_lipo>  (1) 
-2.4596651157905707

>  <r_i_glide_metal>  (1) 
-0

>  <r_i_glide_rewards>  (1) 
-1.4244199399059878

>  <r_lp_Energy>  (1) 
5.7710229999999996

>  <r_lp_tautomer_probability>  (1) 
1

>  <s_epik_cmdline>  (1) 
J2VwaWtfcHl0aG9uJywgJy1waHQnLCAnMS4wJywgJy1waCcsICc3LjQnLCAnLXRuJywgJzgnLCAnLW1hJywgJzUwMCcsICctaW1hZScsICc8aW5maWxlLm1hZT4nLCAnLW9tYWUnLCAnPG91dGZpbGUubWFlPic=

>  <s_epik_input>  (1) 
W0NIXTE9W0NIXVtDSF09QyhGKVtDQEhdKEYpW0NIXT1DMVNbQ0gyXUMoW0NIMl1bQ0gyXVtDQEhdMltDSDNdKT1bQ0hdW0NIMl1bQ0BIXTJbQ0gyXVtDSF09Qz1bQ0hdW0NASF0oW0NIM10pW0NAQEhdKFtDSDJdW0NIMl1bQ0BASF0zW0NIM10pW0NIMl1bQ0BASF0zQyg9TylbT0hd

>  <s_glide_docking_method>  (1) 
confgen

>  <s_i_glide_gridfile>  (1) 
gpcr_drd2_6luq_protein_autoprepared_prepared

>  <s_lp_Force_Field>  (1) 
S-OPLS

>  <s_lp_Variant>  (1) 
DiffSBDD_40-1

>  <s_m_source_file>  (1) 
generated_generic_title2_ligand_DiffSBDD_2026-06-23_prepared.sdf

>  <GenAI_Model>  (1) 
DiffSBDD

>  <Protein>  (1) 
generic_title2

$$$$
DiffSBDD_28
     RDKit          3D

  0  0  0  0  0  0  0  0  0  0999 V3000
M  V30 BEGIN CTAB
M  V30 COUNTS 79 86 0 0 1
M  V30 BEGIN ATOM
M  V30 1 F 11.511111 9.729257 -9.186963 0
M  V30 2 C 4.810910 6.999839 -18.055883 0 CFG=1
M  V30 3 C 5.914241 6.126772 -14.637898 0 CFG=2
M  V30 4 C 5.339835 4.625615 -19.506009 0 CFG=2
M  V30 5 C 7.582409 5.145533 -10.174017 0 CFG=1
M  V30 6 C 3.379870 6.705315 -17.570863 0
M  V30 7 C 7.528282 6.056520 -12.658859 0 CFG=2
M  V30 8 C 9.845454 7.577627 -8.247295 0 CFG=1
M  V30 9 C 5.965536 7.636671 -14.603801 0
M  V30 10 C 8.972887 5.726685 -9.893604 0 CFG=1
M  V30 11 C 5.341765 7.293221 -20.192311 0 CFG=1
M  V30 12 C 8.078989 5.286225 -15.036864 0
M  V30 13 C 5.259941 6.119591 -19.251432 0 CFG=1
M  V30 14 O 4.558448 7.150004 -21.357652 0
M  V30 15 C 11.873190 8.431063 -9.440564 0 CFG=1
M  V30 16 C 6.879903 5.323319 -11.511403 0 CFG=1
M  V30 17 O 7.540320 4.117444 -11.182966 0
M  V30 18 N 7.072344 5.474198 -13.972972 0 CFG=2 CHG=1
M  V30 19 O 5.627623 2.660140 -20.846188 0
M  V30 20 C 13.314461 8.388977 -9.658612 0
M  V30 21 O 6.494678 5.394472 -19.153411 0
M  V30 22 C 9.413774 6.641143 -11.059130 0
M  V30 23 C 4.796657 8.163137 -19.069609 0
M  V30 24 N 5.783374 7.090936 -16.923341 0
M  V30 25 C 5.308087 4.039650 -20.905240 0
M  V30 26 N 9.703600 7.703472 -6.784975 0 CHG=1
M  V30 27 C 9.060937 6.090135 -12.449449 0
M  V30 28 C 9.720627 6.323230 -6.292351 0
M  V30 29 C 8.926506 5.563331 -7.364952 0
M  V30 30 O 14.175177 7.659889 -9.185225 0
M  V30 31 C 7.315390 5.133397 -16.352905 0
M  V30 32 C 11.335675 7.343421 -8.558921 0
M  V30 33 O 12.575464 8.033007 -10.670564 0
M  V30 34 N 8.975319 6.414570 -8.561697 0 CFG=1 CHG=1
M  V30 35 C 5.413779 8.101007 -15.941930 0
M  V30 36 C 5.669547 2.048663 -22.128803 0
M  V30 37 C 5.976925 5.853666 -16.148850 0 CFG=1
M  V30 38 H 4.977341 5.765249 -14.206146 0
M  V30 39 H 4.977432 3.961713 -18.732678 0
M  V30 40 H 6.984866 4.880954 -9.303761 0
M  V30 41 H 2.744385 6.390690 -18.384288 0
M  V30 42 H 3.308929 5.960998 -16.783848 0
M  V30 43 H 2.908121 7.605022 -17.179378 0
M  V30 44 H 7.201550 7.089077 -12.548309 0
M  V30 45 H 9.440865 8.468628 -8.730805 0
M  V30 46 H 6.989534 8.003082 -14.517843 0
M  V30 47 H 5.368905 7.990229 -13.765036 0
M  V30 48 H 9.662128 4.880400 -9.845745 0
M  V30 49 H 6.360502 7.585182 -20.452173 0
M  V30 50 H 8.746928 4.445820 -14.833358 0
M  V30 51 H 8.666118 6.189757 -15.133658 0
M  V30 52 H 4.658868 7.946608 -21.856846 0
M  V30 53 H 5.791051 5.274900 -11.504075 0
M  V30 54 H 10.489338 6.776228 -11.049022 0
M  V30 55 H 8.972359 7.632783 -10.948331 0
M  V30 56 H 5.375348 9.037314 -18.809616 0
M  V30 57 H 3.779610 8.478351 -19.304902 0
M  V30 58 H 4.299407 4.161143 -21.306892 0
M  V30 59 H 6.004928 4.573345 -21.552364 0
M  V30 60 H 8.798828 8.104163 -6.568511 0
M  V30 61 H 9.511146 5.106690 -12.583817 0
M  V30 62 H 9.514703 6.745979 -13.183772 0
M  V30 63 H 9.367834 6.239167 -5.271186 0
M  V30 64 H 10.750071 5.962949 -6.271129 0
M  V30 65 H 7.883683 5.427249 -7.080910 0
M  V30 66 H 9.350724 4.589240 -7.594075 0
M  V30 67 H 7.133185 4.080185 -16.570938 0
M  V30 68 H 7.905066 5.548186 -17.169529 0
M  V30 69 H 11.954584 7.288516 -7.661163 0
M  V30 70 H 11.452930 6.391744 -9.055774 0
M  V30 71 H 5.789260 9.080921 -16.230500 0
M  V30 72 H 4.339164 8.193544 -15.825602 0
M  V30 73 H 5.892350 0.986714 -22.023666 0
M  V30 74 H 4.719298 2.142786 -22.655126 0
M  V30 75 H 6.449611 2.492808 -22.749487 0
M  V30 76 H 5.176531 5.190227 -16.386350 0
M  V30 77 H 6.775679 4.533023 -13.753300 0
M  V30 78 H 10.440393 8.260013 -6.374556 0
M  V30 79 H 8.054277 6.863745 -8.594251 0
M  V30 END ATOM
M  V30 BEGIN BOND
M  V30 1 1 2 6 CFG=1
M  V30 2 1 9 3
M  V30 3 1 10 5
M  V30 4 1 13 2
M  V30 5 1 13 4
M  V30 6 1 13 11
M  V30 7 1 14 11
M  V30 8 1 15 1 CFG=3
M  V30 9 1 16 5
M  V30 10 1 16 7
M  V30 11 1 17 5
M  V30 12 1 17 16
M  V30 13 1 18 3
M  V30 14 1 18 7
M  V30 15 1 18 12
M  V30 16 1 20 15
M  V30 17 1 21 4
M  V30 18 1 13 21 CFG=1
M  V30 19 1 22 10
M  V30 20 1 23 2
M  V30 21 1 23 11
M  V30 22 1 24 2
M  V30 23 1 25 4
M  V30 24 1 25 19
M  V30 25 1 26 8
M  V30 26 1 27 7
M  V30 27 1 27 22
M  V30 28 1 28 26
M  V30 29 1 29 28
M  V30 30 2 30 20
M  V30 31 1 31 12
M  V30 32 1 32 8
M  V30 33 1 32 15
M  V30 34 1 33 15
M  V30 35 1 33 20
M  V30 36 1 34 8
M  V30 37 1 34 10
M  V30 38 1 34 29
M  V30 39 1 35 9
M  V30 40 1 35 24
M  V30 41 1 36 19
M  V30 42 1 37 3
M  V30 43 1 37 24
M  V30 44 1 37 31
M  V30 45 1 3 38 CFG=1
M  V30 46 1 4 39 CFG=1
M  V30 47 1 5 40 CFG=1
M  V30 48 1 41 6
M  V30 49 1 42 6
M  V30 50 1 43 6
M  V30 51 1 7 44 CFG=3
M  V30 52 1 8 45 CFG=3
M  V30 53 1 46 9
M  V30 54 1 47 9
M  V30 55 1 10 48 CFG=1
M  V30 56 1 11 49 CFG=3
M  V30 57 1 50 12
M  V30 58 1 51 12
M  V30 59 1 52 14
M  V30 60 1 16 53 CFG=1
M  V30 61 1 54 22
M  V30 62 1 55 22
M  V30 63 1 56 23
M  V30 64 1 57 23
M  V30 65 1 58 25
M  V30 66 1 59 25
M  V30 67 1 60 26
M  V30 68 1 61 27
M  V30 69 1 62 27
M  V30 70 1 63 28
M  V30 71 1 64 28
M  V30 72 1 65 29
M  V30 73 1 66 29
M  V30 74 1 67 31
M  V30 75 1 68 31
M  V30 76 1 69 32
M  V30 77 1 70 32
M  V30 78 1 71 35
M  V30 79 1 72 35
M  V30 80 1 73 36
M  V30 81 1 74 36
M  V30 82 1 75 36
M  V30 83 1 37 76 CFG=3
M  V30 84 1 18 77 CFG=1
M  V30 85 1 78 26
M  V30 86 1 34 79 CFG=3
M  V30 END BOND
M  V30 END CTAB
M  END
>  <i_epik_Tot_Q>  (1) 
3

>  <i_epik_Tot_abs_Q>  (1) 
3

>  <i_i_glide_confnum>  (1) 
264

>  <i_i_glide_lignum>  (1) 
79

>  <i_i_glide_posenum>  (1) 
318

>  <i_i_glide_rotatable_bonds>  (1) 
8

>  <i_lp_mmshare_version>  (1) 
72125

>  <i_m_source_file_index>  (1) 
29

>  <i_f3d_flags>  (1) 
0

>  <num_sample>  (1) 
50

>  <b_lp_Chiralities_Consistent>  (1) 
1

>  <r_epik_Charging_Adjusted_Penalty>  (1) 
2.5241965566360229

>  <r_epik_Ionization_Penalty>  (1) 
2.0480993089750741

>  <r_epik_Ionization_Penalty_Charging>  (1) 
2.0477503768466887

>  <r_epik_Ionization_Penalty_Neutral>  (1) 
0.00034893212838530931

>  <r_epik_State_Penalty>  (1) 
0.4764461797893344

>  <r_glide_ring_energy>  (1) 
0.8191457475608499

>  <r_i_docking_score>  (1) 
-5.7034651709086255

>  <r_i_glide_ecoul>  (1) 
-11.906820508758193

>  <r_i_glide_eff_state_penalty>  (1) 
0.4764461797893344

>  <r_i_glide_einternal>  (1) 
15.137530321164242

>  <r_i_glide_emodel>  (1) 
-34.945705071809968

>  <r_i_glide_emodel_strain>  (1) 
5.9557331256160637

>  <r_i_glide_energy>  (1) 
-27.931729022427902

>  <r_i_glide_erotb>  (1) 
0.31289092967319998

>  <r_i_glide_esite>  (1) 
-0.26452699912636524

>  <r_i_glide_evdw>  (1) 
-16.024908513669711

>  <r_i_glide_gscore>  (1) 
-6.1799113506979602

>  <r_i_glide_gscore_strain>  (1) 
0.48893328140401593

>  <r_i_glide_hbond>  (1) 
-0.29421490668959976

>  <r_i_glide_ligand_efficiency>  (1) 
-0.15414770732185473

>  <r_i_glide_ligand_efficiency_ln>  (1) 
-1.2369478873758259

>  <r_i_glide_ligand_efficiency_sa>  (1) 
-0.51365435871900933

>  <r_i_glide_lipo>  (1) 
-2.6109930391089682

>  <r_i_glide_metal>  (1) 
-0

>  <r_i_glide_rewards>  (1) 
-1.2247321148530284

>  <r_lp_Energy>  (1) 
81.803054000000003

>  <s_epik_Chemistry_Notes>  (1) 
This compound has an ester and may undergo hydrolysis at high or low pH. This compound contains an acetal/aminal-like group ( X-CH(R)-Y where X, Y are N, S, or O) that may be acid/base labile, releasing an aldehyde.

>  <s_epik_cmdline>  (1) 
J2VwaWtfcHl0aG9uJywgJy1waHQnLCAnMS4wJywgJy1waCcsICc3LjQnLCAnLXRuJywgJzgnLCAnLW1hJywgJzUwMCcsICctaW1hZScsICc8aW5maWxlLm1hZT4nLCAnLW9tYWUnLCAnPG91dGZpbGUubWFlPic=

>  <s_epik_input>  (1) 
Tz1DKE8xKUMxKEYpW0NIMl1bQ0BASF0yW05IXVtDSDJdW0NIMl1OMltDQEBIXTNbQ0gyXVtDSDJdW0NASF0oW0NAQEhdKE80KVtDQEhdMzQpTjVbQ0gyXVtDSDJdW0NAQEhdKFtDQEhdNTYpTihbQ0gyXVtDSDJdNilbQ0BAXShbQ0gzXSkoW0NIMl1bQ0BASF03W09IXSlbQ0BAXTc4W0NASF0oTzgpW0NIMl1PW0NIM10=

>  <s_glide_docking_method>  (1) 
confgen

>  <s_i_glide_gridfile>  (1) 
gpcr_drd2_6luq_protein_autoprepared_prepared

>  <s_lp_Force_Field>  (1) 
S-OPLS

>  <s_lp_Variant>  (1) 
DiffSBDD_28-2

>  <s_m_source_file>  (1) 
generated_generic_title2_ligand_DiffSBDD_2026-06-23_prepared.sdf

>  <GenAI_Model>  (1) 
DiffSBDD

>  <Protein>  (1) 
generic_title2

$$$$
DiffSBDD_46
     RDKit          3D

  0  0  0  0  0  0  0  0  0  0999 V3000
M  V30 BEGIN CTAB
M  V30 COUNTS 57 60 0 0 1
M  V30 BEGIN ATOM
M  V30 1 O 10.704473 6.443100 -11.910163 0
M  V30 2 C 7.381820 5.522972 -10.777914 0
M  V30 3 C 12.292598 8.496128 -3.074892 0
M  V30 4 C 5.635585 6.322972 -17.203846 0
M  V30 5 C 9.275951 5.182467 -14.170291 0
M  V30 6 C 8.622577 5.021013 -15.406221 0
M  V30 7 N 10.512205 7.074528 -7.636236 0
M  V30 8 C 11.202797 8.035398 -9.824725 0
M  V30 9 C 9.481619 6.270368 -6.967075 0
M  V30 10 N 8.768505 6.086257 -10.703172 0
M  V30 11 C 10.922570 9.334786 -6.571057 0
M  V30 12 C 6.909885 6.606619 -14.703225 0
M  V30 13 C 8.748935 6.041194 -13.184987 0
M  V30 14 C 7.291646 4.126082 -11.398849 0
M  V30 15 C 12.175224 8.615143 -4.600060 0 CFG=1
M  V30 16 C 7.445368 5.733652 -15.677473 0
M  V30 17 C 9.338193 6.309346 -9.353193 0
M  V30 18 C 11.591292 7.401227 -5.348550 0
M  V30 19 C 7.556215 6.760180 -13.454994 0
M  V30 20 C 9.504233 6.226717 -11.873816 0
M  V30 21 C 6.804415 5.590491 -16.925480 0
M  V30 22 C 11.363546 9.777965 -5.159319 0
M  V30 23 C 8.678249 5.558384 -8.193892 0
M  V30 24 C 11.414366 7.901600 -6.811037 0 CFG=1
M  V30 25 C 5.103751 7.191322 -16.235038 0
M  V30 26 C 10.344166 7.093643 -8.983815 0
M  V30 27 C 5.739680 7.329223 -14.984453 0
M  V30 28 H 6.898144 5.418151 -9.821928 0
M  V30 29 H 6.661895 6.203222 -11.215270 0
M  V30 30 H 11.375645 8.204136 -2.583757 0
M  V30 31 H 13.037488 7.744504 -2.812894 0
M  V30 32 H 12.617102 9.440384 -2.638367 0
M  V30 33 H 5.145899 6.215252 -18.159892 0
M  V30 34 H 10.175430 4.638986 -13.971901 0
M  V30 35 H 9.034978 4.356412 -16.151341 0
M  V30 36 H 10.618986 8.501904 -10.615870 0
M  V30 37 H 11.602024 8.860860 -9.242880 0
M  V30 38 H 12.067788 7.518722 -10.240446 0
M  V30 39 H 9.946795 5.590209 -6.272581 0
M  V30 40 H 8.812054 6.925719 -6.408326 0
M  V30 41 H 11.375329 9.990148 -7.306810 0
M  V30 42 H 9.838043 9.381367 -6.675582 0
M  V30 43 H 7.132860 4.137198 -12.475734 0
M  V30 44 H 8.217402 3.590212 -11.200098 0
M  V30 45 H 6.448224 3.590075 -10.967040 0
M  V30 46 H 13.193213 8.818921 -4.903200 0
M  V30 47 H 10.629444 7.183000 -4.883088 0
M  V30 48 H 12.175364 6.483646 -5.271413 0
M  V30 49 H 7.156934 7.448074 -12.724543 0
M  V30 50 H 7.211814 4.923025 -17.670833 0
M  V30 51 H 11.951915 10.691460 -5.201001 0
M  V30 52 H 10.512729 9.994595 -4.524627 0
M  V30 53 H 7.618733 5.662980 -8.011840 0
M  V30 54 H 8.924651 4.498016 -8.259928 0
M  V30 55 H 12.397051 7.930182 -7.284476 0
M  V30 56 H 4.204029 7.751142 -16.447448 0
M  V30 57 H 5.324117 7.990077 -14.242320 0
M  V30 END ATOM
M  V30 BEGIN BOND
M  V30 1 2 6 5
M  V30 2 1 9 7
M  V30 3 1 10 2
M  V30 4 1 13 5
M  V30 5 1 14 2
M  V30 6 1 15 3
M  V30 7 1 16 6
M  V30 8 1 16 12
M  V30 9 1 17 10
M  V30 10 1 18 15
M  V30 11 1 19 12
M  V30 12 2 19 13
M  V30 13 2 20 1
M  V30 14 1 20 10
M  V30 15 1 20 13
M  V30 16 1 21 4
M  V30 17 2 21 16
M  V30 18 1 22 11
M  V30 19 1 22 15
M  V30 20 1 23 9
M  V30 21 1 23 17
M  V30 22 1 24 7
M  V30 23 1 24 11
M  V30 24 1 24 18
M  V30 25 2 25 4
M  V30 26 1 26 7
M  V30 27 1 26 8
M  V30 28 2 26 17
M  V30 29 2 27 12
M  V30 30 1 27 25
M  V30 31 1 28 2
M  V30 32 1 29 2
M  V30 33 1 30 3
M  V30 34 1 31 3
M  V30 35 1 32 3
M  V30 36 1 33 4
M  V30 37 1 34 5
M  V30 38 1 35 6
M  V30 39 1 36 8
M  V30 40 1 37 8
M  V30 41 1 38 8
M  V30 42 1 39 9
M  V30 43 1 40 9
M  V30 44 1 41 11
M  V30 45 1 42 11
M  V30 46 1 43 14
M  V30 47 1 44 14
M  V30 48 1 45 14
M  V30 49 1 15 46 CFG=3
M  V30 50 1 47 18
M  V30 51 1 48 18
M  V30 52 1 49 19
M  V30 53 1 50 21
M  V30 54 1 51 22
M  V30 55 1 52 22
M  V30 56 1 53 23
M  V30 57 1 54 23
M  V30 58 1 24 55 CFG=3
M  V30 59 1 56 25
M  V30 60 1 57 27
M  V30 END BOND
M  V30 END CTAB
M  END
>  <i_epik_Tot_Q>  (1) 
0

>  <i_epik_Tot_abs_Q>  (1) 
0

>  <i_i_glide_confnum>  (1) 
46

>  <i_i_glide_lignum>  (1) 
124

>  <i_i_glide_posenum>  (1) 
177

>  <i_i_glide_rotatable_bonds>  (1) 
5

>  <i_lp_mmshare_version>  (1) 
72125

>  <i_m_source_file_index>  (1) 
47

>  <i_f3d_flags>  (1) 
0

>  <num_sample>  (1) 
50

>  <b_lp_Chiralities_Consistent>  (1) 
1

>  <r_epik_Charging_Adjusted_Penalty>  (1) 
7.6326947449564099e-08

>  <r_epik_Ionization_Penalty>  (1) 
7.1791624653063315e-05

>  <r_epik_Ionization_Penalty_Charging>  (1) 
7.6326947449564099e-08

>  <r_epik_Ionization_Penalty_Neutral>  (1) 
7.1715297705613756e-05

>  <r_epik_State_Penalty>  (1) 
-0

>  <r_glide_ring_energy>  (1) 
0

>  <r_i_docking_score>  (1) 
-5.7019890023988467

>  <r_i_glide_ecoul>  (1) 
-1.8134390041016051

>  <r_i_glide_eff_state_penalty>  (1) 
-0

>  <r_i_glide_einternal>  (1) 
20.36059347542492

>  <r_i_glide_emodel>  (1) 
-25.559744788561076

>  <r_i_glide_emodel_strain>  (1) 
2.0052919257045971

>  <r_i_glide_energy>  (1) 
-28.842163795576838

>  <r_i_glide_erotb>  (1) 
0.58447327232945689

>  <r_i_glide_esite>  (1) 
-0.076274590105812945

>  <r_i_glide_evdw>  (1) 
-27.028724791475234

>  <r_i_glide_gscore>  (1) 
-5.7019890023988467

>  <r_i_glide_gscore_strain>  (1) 
0

>  <r_i_glide_hbond>  (1) 
0

>  <r_i_glide_ligand_efficiency>  (1) 
-0.21118477786662396

>  <r_i_glide_ligand_efficiency_ln>  (1) 
-1.3273290351228855

>  <r_i_glide_ligand_efficiency_sa>  (1) 
-0.63355433359987201

>  <r_i_glide_lipo>  (1) 
-3.1221699975312012

>  <r_i_glide_metal>  (1) 
-0

>  <r_i_glide_rewards>  (1) 
-1.4645655969022875

>  <r_lp_Energy>  (1) 
50.30068

>  <r_lp_tautomer_probability>  (1) 
1

>  <s_epik_Chemistry_Notes>  (1) 
This compound has an imine and may undergo hydrolysis.

>  <s_epik_cmdline>  (1) 
J2VwaWtfcHl0aG9uJywgJy1waHQnLCAnMS4wJywgJy1waCcsICc3LjQnLCAnLXRuJywgJzgnLCAnLW1hJywgJzUwMCcsICctaW1hZScsICc8aW5maWxlLm1hZT4nLCAnLW9tYWUnLCAnPG91dGZpbGUubWFlPic=

>  <s_epik_input>  (1) 
W2NIXTFbY0hdW2NIXVtjSF1jKGMxMilbY0hdW2NIXWMoW2NIXTIpQyg9TylOKFtDSDJdW0NIM10pQyg9QzNbQ0gzXSlbQ0gyXVtDSDJdTjNbQ0BASF0oW0NIMl1bQ0gyXTQpW0NIMl1bQ0BASF00W0NIM10=

>  <s_glide_docking_method>  (1) 
confgen

>  <s_i_glide_gridfile>  (1) 
gpcr_drd2_6luq_protein_autoprepared_prepared

>  <s_lp_Force_Field>  (1) 
S-OPLS

>  <s_lp_Variant>  (1) 
DiffSBDD_46-1

>  <s_m_source_file>  (1) 
generated_generic_title2_ligand_DiffSBDD_2026-06-23_prepared.sdf

>  <GenAI_Model>  (1) 
DiffSBDD

>  <Protein>  (1) 
generic_title2

$$$$
DiffSBDD_30
     RDKit          3D

  0  0  0  0  0  0  0  0  0  0999 V3000
M  V30 BEGIN CTAB
M  V30 COUNTS 44 44 0 0 1
M  V30 BEGIN ATOM
M  V30 1 C 10.161074 7.319050 -10.792789 0
M  V30 2 N 12.131770 9.469115 -3.410905 0 CHG=-1
M  V30 3 C 7.960622 2.416953 -13.251341 0
M  V30 4 O 10.550660 8.157782 -6.473144 0
M  V30 5 C 12.490823 8.675110 -2.267664 0
M  V30 6 C 7.456349 3.794431 -12.784414 0
M  V30 7 O 9.339382 5.153673 -13.480096 0
M  V30 8 F 6.628294 3.589018 -11.757974 0
M  V30 9 N 6.849019 1.532648 -13.556642 0
M  V30 10 C 11.775422 8.548224 -4.349988 0
M  V30 11 C 10.043482 7.568073 -9.272976 0 CFG=2
M  V30 12 C 12.179995 7.284414 -2.781051 0
M  V30 13 C 8.844286 7.304793 -11.601254 0
M  V30 14 C 8.591666 4.760947 -12.340388 0 CFG=1
M  V30 15 F 11.775145 8.981203 -1.195288 0
M  V30 16 F 13.775412 8.790228 -1.985027 0
M  V30 17 C 11.376370 9.055870 -5.733600 0
M  V30 18 O 12.299348 6.297805 -2.059077 0
M  V30 19 N 11.397242 7.251966 -7.215892 0
M  V30 20 F 6.742807 4.366197 -13.759221 0
M  V30 21 O 9.375410 8.790221 -9.112525 0
M  V30 22 C 11.409718 7.746966 -8.587030 0
M  V30 23 O 7.775395 5.590226 -10.259889 0
M  V30 24 N 11.775410 7.302565 -4.091649 0
M  V30 25 C 8.019687 5.991539 -11.590370 0 CFG=1
M  V30 26 H 10.800283 8.105137 -11.185025 0
M  V30 27 H 10.676929 6.390254 -10.994079 0
M  V30 28 H 8.575037 2.520894 -14.142432 0
M  V30 29 H 8.575428 1.959191 -12.474833 0
M  V30 30 H 10.085885 4.577636 -13.573014 0
M  V30 31 H 7.182513 0.595284 -13.732592 0
M  V30 32 H 6.237129 1.476422 -12.755411 0
M  V30 33 H 9.474767 6.773106 -8.790760 0
M  V30 34 H 8.205080 8.125983 -11.278312 0
M  V30 35 H 9.077729 7.551106 -12.636779 0
M  V30 36 H 9.284084 4.238475 -11.678687 0
M  V30 37 H 12.267663 9.353880 -6.289040 0
M  V30 38 H 10.795165 9.968096 -5.597140 0
M  V30 39 H 10.923999 6.359898 -7.164556 0
M  V30 40 H 8.437362 8.590751 -9.185230 0
M  V30 41 H 12.161870 7.181849 -9.131956 0
M  V30 42 H 11.747525 8.783892 -8.620714 0
M  V30 43 H 7.375233 6.334686 -9.807529 0
M  V30 44 H 7.055172 6.235011 -12.036680 0
M  V30 END ATOM
M  V30 BEGIN BOND
M  V30 1 1 5 2
M  V30 2 1 6 3
M  V30 3 1 8 6
M  V30 4 1 9 3
M  V30 5 1 10 2
M  V30 6 1 11 1
M  V30 7 1 12 5
M  V30 8 1 13 1
M  V30 9 1 14 6
M  V30 10 1 14 7
M  V30 11 1 15 5
M  V30 12 1 16 5
M  V30 13 1 17 4
M  V30 14 1 17 10
M  V30 15 2 18 12
M  V30 16 1 19 4
M  V30 17 1 20 6
M  V30 18 1 21 11
M  V30 19 1 22 11
M  V30 20 1 22 19
M  V30 21 2 24 10
M  V30 22 1 24 12
M  V30 23 1 25 13
M  V30 24 1 25 14
M  V30 25 1 25 23
M  V30 26 1 26 1
M  V30 27 1 27 1
M  V30 28 1 28 3
M  V30 29 1 29 3
M  V30 30 1 30 7
M  V30 31 1 31 9
M  V30 32 1 32 9
M  V30 33 1 11 33 CFG=1
M  V30 34 1 34 13
M  V30 35 1 35 13
M  V30 36 1 14 36 CFG=1
M  V30 37 1 37 17
M  V30 38 1 38 17
M  V30 39 1 39 19
M  V30 40 1 40 21
M  V30 41 1 41 22
M  V30 42 1 42 22
M  V30 43 1 43 23
M  V30 44 1 25 44 CFG=3
M  V30 END BOND
M  V30 END CTAB
M  END
>  <i_epik_Tot_Q>  (1) 
-1

>  <i_epik_Tot_abs_Q>  (1) 
1

>  <i_i_glide_confnum>  (1) 
127

>  <i_i_glide_lignum>  (1) 
89

>  <i_i_glide_posenum>  (1) 
102

>  <i_i_glide_rotatable_bonds>  (1) 
14

>  <i_lp_mmshare_version>  (1) 
72125

>  <i_m_source_file_index>  (1) 
31

>  <i_f3d_flags>  (1) 
0

>  <num_sample>  (1) 
50

>  <b_lp_Chiralities_Consistent>  (1) 
1

>  <r_epik_Charging_Adjusted_Penalty>  (1) 
0.29689953438897132

>  <r_epik_Ionization_Penalty>  (1) 
0.29704553669164502

>  <r_epik_Ionization_Penalty_Charging>  (1) 
1.7526919545429853e-05

>  <r_epik_Ionization_Penalty_Neutral>  (1) 
0.29702800977209959

>  <r_epik_State_Penalty>  (1) 
0.29688200746942589

>  <r_glide_ring_energy>  (1) 
0

>  <r_i_docking_score>  (1) 
-5.699688597969585

>  <r_i_glide_ecoul>  (1) 
-11.348248443858864

>  <r_i_glide_eff_state_penalty>  (1) 
0.29688200746942589

>  <r_i_glide_einternal>  (1) 
14.538454807554757

>  <r_i_glide_emodel>  (1) 
-48.57998491103082

>  <r_i_glide_emodel_strain>  (1) 
1.2599598045731568

>  <r_i_glide_energy>  (1) 
-40.629757823659602

>  <r_i_glide_erotb>  (1) 
1.2361090002768802

>  <r_i_glide_esite>  (1) 
0

>  <r_i_glide_evdw>  (1) 
-29.281509379800735

>  <r_i_glide_gscore>  (1) 
-5.9965706054390111

>  <r_i_glide_gscore_strain>  (1) 
0

>  <r_i_glide_hbond>  (1) 
-0.48025171253439797

>  <r_i_glide_ligand_efficiency>  (1) 
-0.2279875439187834

>  <r_i_glide_ligand_efficiency_ln>  (1) 
-1.350997003602884

>  <r_i_glide_ligand_efficiency_sa>  (1) 
-0.66663962251010755

>  <r_i_glide_lipo>  (1) 
-1.2924022631879548

>  <r_i_glide_metal>  (1) 
-0

>  <r_i_glide_rewards>  (1) 
-2.293712894424671

>  <r_lp_Energy>  (1) 
24.598537

>  <s_epik_Chemistry_Notes>  (1) 
This compound has an imine and may undergo hydrolysis. This compound has a N-S or N-O group and may undergo hydrolysis at high or low pH.

>  <s_epik_cmdline>  (1) 
J2VwaWtfcHl0aG9uJywgJy1waHQnLCAnMS4wJywgJy1waCcsICc3LjQnLCAnLXRuJywgJzgnLCAnLW1hJywgJzUwMCcsICctaW1hZScsICc8aW5maWxlLm1hZT4nLCAnLW9tYWUnLCAnPG91dGZpbGUubWFlPic=

>  <s_epik_input>  (1) 
W05IMl1bQ0gyXUMoRikoRilbQ0BASF0oW09IXSlbQ0BASF0oW09IXSlbQ0gyXVtDSDJdW0NASF0oW09IXSlbQ0gyXVtOSF1PW0NIMl1DKD1OQzEoRilGKVtOSF1DMT1P

>  <s_glide_docking_method>  (1) 
confgen

>  <s_i_glide_gridfile>  (1) 
gpcr_drd2_6luq_protein_autoprepared_prepared

>  <s_lp_Force_Field>  (1) 
S-OPLS

>  <s_lp_Variant>  (1) 
DiffSBDD_30-1

>  <s_m_source_file>  (1) 
generated_generic_title2_ligand_DiffSBDD_2026-06-23_prepared.sdf

>  <GenAI_Model>  (1) 
DiffSBDD

>  <Protein>  (1) 
generic_title2

$$$$
DiffSBDD_15
     RDKit          3D

  0  0  0  0  0  0  0  0  0  0999 V3000
M  V30 BEGIN CTAB
M  V30 COUNTS 46 47 0 0 1
M  V30 BEGIN ATOM
M  V30 1 C 11.280979 6.614829 -5.395754 0
M  V30 2 C 8.905755 4.737818 -9.981280 0
M  V30 3 Cl 8.574264 3.481955 -12.385086 0
M  V30 4 C 11.668507 6.877514 -4.132611 0
M  V30 5 C 12.254386 9.275765 -4.783810 0
M  V30 6 C 10.082474 7.432665 -7.539970 0 CFG=2
M  V30 7 N 7.796344 6.858423 -11.723782 0 CFG=2 CHG=1
M  V30 8 C 11.233864 7.656881 -6.506573 0 CFG=1
M  V30 9 O 5.375430 7.695852 -11.585034 0
M  V30 10 C 9.296019 4.836802 -11.487522 0 CFG=1
M  V30 11 P 6.240150 6.545130 -12.438987 0
M  V30 12 C 8.429845 8.116504 -12.116803 0
M  V30 13 C 9.762087 7.382211 -12.021994 0
M  V30 14 N 8.975425 5.979590 -9.223514 0
M  V30 15 O 11.240521 8.787492 -9.161273 0
M  V30 16 O 5.782543 5.361313 -11.356147 0
M  V30 17 C 10.026207 6.030984 -8.210347 0
M  V30 18 C 12.106102 8.251490 -3.646036 0
M  V30 19 C 10.162467 8.491653 -8.643321 0
M  V30 20 C 8.945960 6.118951 -12.250099 0 CFG=2
M  V30 21 C 11.209687 9.083651 -5.889682 0
M  V30 22 H 10.989534 5.611863 -5.660599 0
M  V30 23 H 7.875938 4.389618 -9.902168 0
M  V30 24 H 9.529545 3.990603 -9.495829 0
M  V30 25 H 11.676511 6.081534 -3.402017 0
M  V30 26 H 12.173503 10.287458 -4.386015 0
M  V30 27 H 13.251798 9.204490 -5.216156 0
M  V30 28 H 9.134232 7.591249 -7.023919 0
M  V30 29 H 12.175375 7.533030 -7.041874 0
M  V30 30 H 5.839808 7.875656 -10.762176 0
M  V30 31 H 10.365133 4.673315 -11.585844 0
M  V30 32 H 8.172043 8.425745 -13.130809 0
M  V30 33 H 8.295202 8.921166 -11.393758 0
M  V30 34 H 10.503698 7.590441 -12.785032 0
M  V30 35 H 10.226964 7.405949 -11.044753 0
M  V30 36 H 8.081312 6.199656 -8.785137 0
M  V30 37 H 5.022082 5.670491 -10.885344 0
M  V30 38 H 9.830918 5.251001 -7.476347 0
M  V30 39 H 10.976420 5.811339 -8.682874 0
M  V30 40 H 11.375401 8.613611 -2.923149 0
M  V30 41 H 13.049225 8.159565 -3.107466 0
M  V30 42 H 9.214265 8.949879 -8.924294 0
M  V30 43 H 8.850086 5.955280 -13.326686 0
M  V30 44 H 11.383303 9.846982 -6.647586 0
M  V30 45 H 10.218799 9.283820 -5.483873 0
M  V30 46 H 7.771457 6.818395 -10.705790 0
M  V30 END ATOM
M  V30 BEGIN BOND
M  V30 1 2 4 1
M  V30 2 1 8 1
M  V30 3 1 8 6
M  V30 4 1 10 2
M  V30 5 1 10 3
M  V30 6 1 11 7
M  V30 7 1 11 9
M  V30 8 1 12 7
M  V30 9 1 13 12
M  V30 10 1 14 2
M  V30 11 1 16 11
M  V30 12 1 17 6
M  V30 13 1 17 14
M  V30 14 1 18 4
M  V30 15 1 18 5
M  V30 16 1 19 6
M  V30 17 2 19 15
M  V30 18 1 20 7
M  V30 19 1 20 10
M  V30 20 1 20 13
M  V30 21 1 21 5
M  V30 22 1 21 8
M  V30 23 1 22 1
M  V30 24 1 23 2
M  V30 25 1 24 2
M  V30 26 1 25 4
M  V30 27 1 26 5
M  V30 28 1 27 5
M  V30 29 1 6 28 CFG=1
M  V30 30 1 8 29 CFG=3
M  V30 31 1 30 9
M  V30 32 1 10 31 CFG=1
M  V30 33 1 32 12
M  V30 34 1 33 12
M  V30 35 1 34 13
M  V30 36 1 35 13
M  V30 37 1 36 14
M  V30 38 1 37 16
M  V30 39 1 38 17
M  V30 40 1 39 17
M  V30 41 1 40 18
M  V30 42 1 41 18
M  V30 43 1 42 19
M  V30 44 1 20 43 CFG=3
M  V30 45 1 44 21
M  V30 46 1 45 21
M  V30 47 1 7 46 CFG=1
M  V30 END BOND
M  V30 END CTAB
M  END
>  <i_epik_Tot_Q>  (1) 
1

>  <i_epik_Tot_abs_Q>  (1) 
1

>  <i_i_glide_confnum>  (1) 
379

>  <i_i_glide_lignum>  (1) 
56

>  <i_i_glide_posenum>  (1) 
190

>  <i_i_glide_rotatable_bonds>  (1) 
10

>  <i_lp_mmshare_version>  (1) 
72125

>  <i_m_source_file_index>  (1) 
16

>  <i_f3d_flags>  (1) 
0

>  <num_sample>  (1) 
50

>  <b_lp_Chiralities_Consistent>  (1) 
1

>  <r_epik_Charging_Adjusted_Penalty>  (1) 
0.56727467886288852

>  <r_epik_Ionization_Penalty>  (1) 
0.44114962020939286

>  <r_epik_Ionization_Penalty_Charging>  (1) 
0.027117031585188044

>  <r_epik_Ionization_Penalty_Neutral>  (1) 
0.41403258862420483

>  <r_epik_State_Penalty>  (1) 
0.54015764727770044

>  <r_glide_ring_energy>  (1) 
0

>  <r_i_docking_score>  (1) 
-5.6954350398858269

>  <r_i_glide_ecoul>  (1) 
-9.7019573147892011

>  <r_i_glide_eff_state_penalty>  (1) 
0.54015764727770044

>  <r_i_glide_einternal>  (1) 
14.266518934937055

>  <r_i_glide_emodel>  (1) 
-43.831015409003712

>  <r_i_glide_emodel_strain>  (1) 
3.3153615119391695

>  <r_i_glide_energy>  (1) 
-38.598509447443064

>  <r_i_glide_erotb>  (1) 
1.004531890689508

>  <r_i_glide_esite>  (1) 
-0.20871516749114041

>  <r_i_glide_evdw>  (1) 
-28.896552132653866

>  <r_i_glide_gscore>  (1) 
-6.2355926871635274

>  <r_i_glide_gscore_strain>  (1) 
0

>  <r_i_glide_hbond>  (1) 
-0.35301276595180425

>  <r_i_glide_ligand_efficiency>  (1) 
-0.27121119237551555

>  <r_i_glide_ligand_efficiency_ln>  (1) 
-1.408184804901631

>  <r_i_glide_ligand_efficiency_sa>  (1) 
-0.74825111554996104

>  <r_i_glide_lipo>  (1) 
-2.2599797266687092

>  <r_i_glide_metal>  (1) 
-0

>  <r_i_glide_rewards>  (1) 
-1.5182957138903082

>  <r_lp_Energy>  (1) 
5.779852

>  <r_lp_tautomer_probability>  (1) 
0.99990000499974985

>  <s_epik_cmdline>  (1) 
J2VwaWtfcHl0aG9uJywgJy1waHQnLCAnMS4wJywgJy1waCcsICc3LjQnLCAnLXRuJywgJzgnLCAnLW1hJywgJzUwMCcsICctaW1hZScsICc8aW5maWxlLm1hZT4nLCAnLW9tYWUnLCAnPG91dGZpbGUubWFlPic=

>  <s_epik_input>  (1) 
W0NIMl0xW0NIMl1bQ0gyXVtDSF09W0NIXVtDQEhdMVtDQEBIXShbQ0hdPU8pW0NIMl1bTkhdW0NIMl1bQ0BASF0oQ2wpW0NAQEhdMltDSDJdW0NIMl1OMlAoW09IXSlbT0hd

>  <s_glide_docking_method>  (1) 
confgen

>  <s_i_glide_gridfile>  (1) 
gpcr_drd2_6luq_protein_autoprepared_prepared

>  <s_lp_Force_Field>  (1) 
S-OPLS

>  <s_lp_Variant>  (1) 
DiffSBDD_15-3

>  <s_m_source_file>  (1) 
generated_generic_title2_ligand_DiffSBDD_2026-06-23_prepared.sdf

>  <GenAI_Model>  (1) 
DiffSBDD

>  <Protein>  (1) 
generic_title2

$$$$
DiffSBDD_3
     RDKit          3D

  0  0  0  0  0  0  0  0  0  0999 V3000
M  V30 BEGIN CTAB
M  V30 COUNTS 27 27 0 0 1
M  V30 BEGIN ATOM
M  V30 1 C 10.544617 8.026593 -6.367468 0
M  V30 2 C 10.690492 6.797973 -5.678220 0
M  V30 3 C 11.891183 8.008642 -3.951876 0
M  V30 4 C 7.565662 5.541360 -11.316562 0
M  V30 5 C 9.378407 5.039998 -9.568522 0
M  V30 6 N 11.775399 9.180928 -4.615589 0
M  V30 7 C 7.873385 5.011204 -9.910429 0
M  V30 8 Cl 12.671234 8.006186 -2.419514 0
M  V30 9 C 11.375428 6.796524 -4.453621 0
M  V30 10 N 9.375412 7.192238 -8.404166 0 CHG=1
M  V30 11 C 9.705284 5.770092 -8.256196 0
M  V30 12 C 9.775577 8.182712 -7.648521 0
M  V30 13 C 11.104543 9.182248 -5.785666 0
M  V30 14 H 10.271847 5.891031 -6.036746 0
M  V30 15 H 6.494078 5.511898 -11.513393 0
M  V30 16 H 7.889518 6.576144 -11.430341 0
M  V30 17 H 8.063489 4.946338 -12.081061 0
M  V30 18 H 9.918762 5.522670 -10.380801 0
M  V30 19 H 9.770819 4.022978 -9.517641 0
M  V30 20 H 7.490078 3.995498 -9.824678 0
M  V30 21 H 7.301457 5.590201 -9.186514 0
M  V30 22 H 11.485522 5.881163 -3.890614 0
M  V30 23 H 10.765379 5.666732 -8.024316 0
M  V30 24 H 9.063686 5.351200 -7.481773 0
M  V30 25 H 9.525853 9.190228 -7.958468 0
M  V30 26 H 10.999705 10.141565 -6.270507 0
M  V30 27 H 8.750864 7.422180 -9.185361 0
M  V30 END ATOM
M  V30 BEGIN BOND
M  V30 1 1 2 1
M  V30 2 2 6 3
M  V30 3 1 7 4
M  V30 4 1 7 5
M  V30 5 1 8 3
M  V30 6 2 9 2
M  V30 7 1 9 3
M  V30 8 1 11 5
M  V30 9 1 11 10
M  V30 10 1 12 1
M  V30 11 2 12 10
M  V30 12 2 13 1
M  V30 13 1 13 6
M  V30 14 1 14 2
M  V30 15 1 15 4
M  V30 16 1 16 4
M  V30 17 1 17 4
M  V30 18 1 18 5
M  V30 19 1 19 5
M  V30 20 1 20 7
M  V30 21 1 21 7
M  V30 22 1 22 9
M  V30 23 1 23 11
M  V30 24 1 24 11
M  V30 25 1 25 12
M  V30 26 1 26 13
M  V30 27 1 27 10
M  V30 END BOND
M  V30 END CTAB
M  END
>  <i_epik_Tot_Q>  (1) 
1

>  <i_epik_Tot_abs_Q>  (1) 
1

>  <i_i_glide_confnum>  (1) 
2

>  <i_i_glide_lignum>  (1) 
26

>  <i_i_glide_posenum>  (1) 
294

>  <i_i_glide_rotatable_bonds>  (1) 
4

>  <i_lp_mmshare_version>  (1) 
72125

>  <i_m_source_file_index>  (1) 
4

>  <i_f3d_flags>  (1) 
0

>  <num_sample>  (1) 
50

>  <b_lp_Chiralities_Consistent>  (1) 
1

>  <r_epik_Charging_Adjusted_Penalty>  (1) 
0.029699158874294952

>  <r_epik_Ionization_Penalty>  (1) 
0.014849585528506534

>  <r_epik_Ionization_Penalty_Charging>  (1) 
0.014849579437147471

>  <r_epik_Ionization_Penalty_Neutral>  (1) 
6.091359062829099e-09

>  <r_epik_State_Penalty>  (1) 
0.01484957943714748

>  <r_glide_ring_energy>  (1) 
0

>  <r_i_docking_score>  (1) 
-5.6922417123100963

>  <r_i_glide_ecoul>  (1) 
-4.8161410882951428

>  <r_i_glide_eff_state_penalty>  (1) 
0.01484957943714748

>  <r_i_glide_einternal>  (1) 
8.033223728372695

>  <r_i_glide_emodel>  (1) 
-37.05159504744978

>  <r_i_glide_emodel_strain>  (1) 
2.3722762193441902

>  <r_i_glide_energy>  (1) 
-29.262859922607372

>  <r_i_glide_erotb>  (1) 
0.83262420793162661

>  <r_i_glide_esite>  (1) 
-0.14765263581138072

>  <r_i_glide_evdw>  (1) 
-24.446718834312229

>  <r_i_glide_gscore>  (1) 
-5.7070912917472434

>  <r_i_glide_gscore_strain>  (1) 
0

>  <r_i_glide_hbond>  (1) 
-0.14373258366577069

>  <r_i_glide_ligand_efficiency>  (1) 
-0.43786474710077666

>  <r_i_glide_ligand_efficiency_ln>  (1) 
-1.5967244248213732

>  <r_i_glide_ligand_efficiency_sa>  (1) 
-1.0295665683881332

>  <r_i_glide_lipo>  (1) 
-1.6895297428069276

>  <r_i_glide_metal>  (1) 
-0

>  <r_i_glide_rewards>  (1) 
-2.6140434324349084

>  <r_lp_Energy>  (1) 
25.723572999999998

>  <s_epik_Chemistry_Notes>  (1) 
This compound has an imine and may undergo hydrolysis.

>  <s_epik_cmdline>  (1) 
J2VwaWtfcHl0aG9uJywgJy1waHQnLCAnMS4wJywgJy1waCcsICc3LjQnLCAnLXRuJywgJzgnLCAnLW1hJywgJzUwMCcsICctaW1hZScsICc8aW5maWxlLm1hZT4nLCAnLW9tYWUnLCAnPG91dGZpbGUubWFlPic=

>  <s_epik_input>  (1) 
W2NIXTFuYyhDbClbY0hdW2NIXWMxL1tDSF09TlxbQ0gyXVtDSDJdW0NIMl1bQ0gzXQ==

>  <s_glide_docking_method>  (1) 
confgen

>  <s_i_glide_gridfile>  (1) 
gpcr_drd2_6luq_protein_autoprepared_prepared

>  <s_lp_Force_Field>  (1) 
S-OPLS

>  <s_lp_Variant>  (1) 
DiffSBDD_3-2

>  <s_m_source_file>  (1) 
generated_generic_title2_ligand_DiffSBDD_2026-06-23_prepared.sdf

>  <GenAI_Model>  (1) 
DiffSBDD

>  <Protein>  (1) 
generic_title2

$$$$
DiffSBDD_30
     RDKit          3D

  0  0  0  0  0  0  0  0  0  0999 V3000
M  V30 BEGIN CTAB
M  V30 COUNTS 44 44 0 0 1
M  V30 BEGIN ATOM
M  V30 1 C 9.182713 7.890891 -11.411439 0
M  V30 2 N 11.321365 8.964038 -5.257310 0 CHG=-1
M  V30 3 C 7.886805 3.547255 -12.760358 0
M  V30 4 O 10.162386 7.801745 -7.529800 0
M  V30 5 C 12.126610 9.164075 -4.084868 0
M  V30 6 C 6.641285 4.258988 -13.331210 0
M  V30 7 O 5.864295 5.137773 -11.211919 0
M  V30 8 F 5.609277 3.410611 -13.340115 0
M  V30 9 N 7.954434 2.160588 -13.185110 0
M  V30 10 C 11.030963 7.627100 -5.230118 0
M  V30 11 C 10.500869 7.658862 -10.649985 0 CFG=2
M  V30 12 C 12.175406 7.753190 -3.528347 0
M  V30 13 C 8.417099 6.584745 -11.724666 0
M  V30 14 C 6.170111 5.509688 -12.545374 0 CFG=1
M  V30 15 F 11.524169 9.990226 -3.228444 0
M  V30 16 F 13.347485 9.590213 -4.408909 0
M  V30 17 C 10.145768 7.052405 -6.323339 0
M  V30 18 O 12.777740 7.498145 -2.487846 0
M  V30 19 N 9.434740 7.008502 -8.478257 0
M  V30 20 F 6.884160 4.605100 -14.596273 0
M  V30 21 O 11.450007 7.190234 -11.585168 0
M  V30 22 C 10.404752 6.642294 -9.492357 0
M  V30 23 O 6.375331 7.805702 -11.985028 0
M  V30 24 N 11.478720 6.868362 -4.315611 0
M  V30 25 C 7.116498 6.741752 -12.537560 0 CFG=1
M  V30 26 H 8.575494 8.550115 -10.793689 0
M  V30 27 H 9.371965 8.446744 -12.330149 0
M  V30 28 H 8.803333 4.035907 -13.085231 0
M  V30 29 H 7.871801 3.590304 -11.671452 0
M  V30 30 H 5.685415 5.928460 -10.722236 0
M  V30 31 H 8.648195 1.677575 -12.627818 0
M  V30 32 H 7.068627 1.715551 -12.987822 0
M  V30 33 H 10.870114 8.610093 -10.265018 0
M  V30 34 H 9.095387 5.923635 -12.255163 0
M  V30 35 H 8.173081 6.090658 -10.785049 0
M  V30 36 H 5.233365 5.829720 -13.004098 0
M  V30 37 H 9.120097 6.987692 -5.962606 0
M  V30 38 H 10.478997 6.029786 -6.514795 0
M  V30 39 H 8.675296 7.589861 -8.833155 0
M  V30 40 H 11.087152 6.442904 -12.036943 0
M  V30 41 H 10.125346 5.661091 -9.871567 0
M  V30 42 H 11.375394 6.507826 -9.016866 0
M  V30 43 H 6.575316 7.858489 -11.042276 0
M  V30 44 H 7.358403 7.017850 -13.564391 0
M  V30 END ATOM
M  V30 BEGIN BOND
M  V30 1 1 5 2
M  V30 2 1 6 3
M  V30 3 1 8 6
M  V30 4 1 9 3
M  V30 5 1 10 2
M  V30 6 1 11 1
M  V30 7 1 12 5
M  V30 8 1 13 1
M  V30 9 1 14 6
M  V30 10 1 14 7
M  V30 11 1 15 5
M  V30 12 1 16 5
M  V30 13 1 17 4
M  V30 14 1 17 10
M  V30 15 2 18 12
M  V30 16 1 19 4
M  V30 17 1 20 6
M  V30 18 1 21 11
M  V30 19 1 22 11
M  V30 20 1 22 19
M  V30 21 2 24 10
M  V30 22 1 24 12
M  V30 23 1 25 13
M  V30 24 1 25 14
M  V30 25 1 25 23
M  V30 26 1 26 1
M  V30 27 1 27 1
M  V30 28 1 28 3
M  V30 29 1 29 3
M  V30 30 1 30 7
M  V30 31 1 31 9
M  V30 32 1 32 9
M  V30 33 1 11 33 CFG=1
M  V30 34 1 34 13
M  V30 35 1 35 13
M  V30 36 1 14 36 CFG=3
M  V30 37 1 37 17
M  V30 38 1 38 17
M  V30 39 1 39 19
M  V30 40 1 40 21
M  V30 41 1 41 22
M  V30 42 1 42 22
M  V30 43 1 43 23
M  V30 44 1 25 44 CFG=3
M  V30 END BOND
M  V30 END CTAB
M  END
>  <i_epik_Tot_Q>  (1) 
-1

>  <i_epik_Tot_abs_Q>  (1) 
1

>  <i_i_glide_confnum>  (1) 
447

>  <i_i_glide_lignum>  (1) 
89

>  <i_i_glide_posenum>  (1) 
56

>  <i_i_glide_rotatable_bonds>  (1) 
14

>  <i_lp_mmshare_version>  (1) 
72125

>  <i_m_source_file_index>  (1) 
31

>  <i_f3d_flags>  (1) 
0

>  <num_sample>  (1) 
50

>  <b_lp_Chiralities_Consistent>  (1) 
1

>  <r_epik_Charging_Adjusted_Penalty>  (1) 
0.29689953438897132

>  <r_epik_Ionization_Penalty>  (1) 
0.29704553669164502

>  <r_epik_Ionization_Penalty_Charging>  (1) 
1.7526919545429853e-05

>  <r_epik_Ionization_Penalty_Neutral>  (1) 
0.29702800977209959

>  <r_epik_State_Penalty>  (1) 
0.29688200746942589

>  <r_glide_ring_energy>  (1) 
0

>  <r_i_docking_score>  (1) 
-5.6917233814363879

>  <r_i_glide_ecoul>  (1) 
-12.979233916298501

>  <r_i_glide_eff_state_penalty>  (1) 
0.29688200746942589

>  <r_i_glide_einternal>  (1) 
11.389859151035051

>  <r_i_glide_emodel>  (1) 
-49.750468146812352

>  <r_i_glide_emodel_strain>  (1) 
2.1641693441486112

>  <r_i_glide_energy>  (1) 
-41.152042299262689

>  <r_i_glide_erotb>  (1) 
1.2361090002768802

>  <r_i_glide_esite>  (1) 
-0.13031478933106491

>  <r_i_glide_evdw>  (1) 
-28.172808382964185

>  <r_i_glide_gscore>  (1) 
-5.988605388905814

>  <r_i_glide_gscore_strain>  (1) 
0

>  <r_i_glide_hbond>  (1) 
-0.3200848199611751

>  <r_i_glide_ligand_efficiency>  (1) 
-0.22766893525745552

>  <r_i_glide_ligand_efficiency_ln>  (1) 
-1.3491090085862385

>  <r_i_glide_ligand_efficiency_sa>  (1) 
-0.66570800513283657

>  <r_i_glide_lipo>  (1) 
-0.87387460817087692

>  <r_i_glide_metal>  (1) 
-0

>  <r_i_glide_rewards>  (1) 
-2.5449146651265928

>  <r_lp_Energy>  (1) 
24.598537

>  <s_epik_Chemistry_Notes>  (1) 
This compound has an imine and may undergo hydrolysis. This compound has a N-S or N-O group and may undergo hydrolysis at high or low pH.

>  <s_epik_cmdline>  (1) 
J2VwaWtfcHl0aG9uJywgJy1waHQnLCAnMS4wJywgJy1waCcsICc3LjQnLCAnLXRuJywgJzgnLCAnLW1hJywgJzUwMCcsICctaW1hZScsICc8aW5maWxlLm1hZT4nLCAnLW9tYWUnLCAnPG91dGZpbGUubWFlPic=

>  <s_epik_input>  (1) 
W05IMl1bQ0gyXUMoRikoRilbQ0BASF0oW09IXSlbQ0BASF0oW09IXSlbQ0gyXVtDSDJdW0NASF0oW09IXSlbQ0gyXVtOSF1PW0NIMl1DKD1OQzEoRilGKVtOSF1DMT1P

>  <s_glide_docking_method>  (1) 
confgen

>  <s_i_glide_gridfile>  (1) 
gpcr_drd2_6luq_protein_autoprepared_prepared

>  <s_lp_Force_Field>  (1) 
S-OPLS

>  <s_lp_Variant>  (1) 
DiffSBDD_30-1

>  <s_m_source_file>  (1) 
generated_generic_title2_ligand_DiffSBDD_2026-06-23_prepared.sdf

>  <GenAI_Model>  (1) 
DiffSBDD

>  <Protein>  (1) 
generic_title2

$$$$
DiffSBDD_43
     RDKit          3D

  0  0  0  0  0  0  0  0  0  0999 V3000
M  V30 BEGIN CTAB
M  V30 COUNTS 78 82 0 0 1
M  V30 BEGIN ATOM
M  V30 1 N 8.463407 4.685484 -12.821742 0
M  V30 2 C 7.135607 4.447982 -13.454981 0 CFG=1
M  V30 3 C 12.714101 8.880494 -4.519907 0
M  V30 4 C 7.364797 2.587913 -15.820050 0 CFG=1
M  V30 5 C 10.268477 7.924193 -8.653590 0 CFG=2
M  V30 6 Cl 11.775322 6.316623 -6.402940 0
M  V30 7 C 6.915325 1.270589 -18.002558 0
M  V30 8 C 13.469347 9.130244 -7.068026 0
M  V30 9 N 7.871742 3.938270 -15.794785 0
M  V30 10 C 10.116706 6.506639 -9.271722 0
M  V30 11 C 7.881243 1.731896 -16.915626 0
M  V30 12 O 8.946163 5.990192 -13.193587 0
M  V30 13 C 11.310512 8.601466 -5.079976 0 CFG=1
M  V30 14 C 8.679862 4.809722 -8.187212 0
M  V30 15 C 9.237849 2.106294 -17.417825 0
M  V30 16 C 10.575446 9.915929 -5.033873 0
M  V30 17 C 12.027877 8.971637 -7.463051 0 CFG=1
M  V30 18 O 12.648181 7.590261 -9.310491 0
M  V30 19 C 11.851754 9.534383 -9.924253 0
M  V30 20 C 8.717198 4.562527 -11.372311 0
M  V30 21 C 11.707595 8.493990 -8.843216 0 CFG=1
M  V30 22 C 13.582362 9.591374 -5.607355 0
M  V30 23 C 7.106581 4.873139 -14.961645 0
M  V30 24 C 11.262335 8.017303 -6.530507 0 CFG=1
M  V30 25 C 9.031885 4.327536 -16.399046 0
M  V30 26 N 8.762980 5.914886 -9.162853 0 CFG=2 CHG=1
M  V30 27 O 10.029820 7.918052 -7.253224 0
M  V30 28 C 6.798753 2.927691 -13.373854 0
M  V30 29 C 7.455852 0.269620 -17.025211 0
M  V30 30 O 9.375379 8.790163 -9.286610 0
M  V30 31 N 9.673796 3.372282 -17.150788 0
M  V30 32 C 7.532805 2.029506 -14.394764 0
M  V30 33 O 9.925071 1.317113 -18.063047 0
M  V30 34 C 6.016386 5.240891 -12.743118 0
M  V30 35 C 8.089113 5.657415 -10.464215 0
M  V30 36 O 9.485466 5.462704 -16.277361 0
M  V30 37 H 12.629243 9.546982 -3.661630 0
M  V30 38 H 13.158699 8.000355 -4.034370 0
M  V30 39 H 6.296173 2.634919 -15.976550 0
M  V30 40 H 5.864631 1.540514 -17.906944 0
M  V30 41 H 7.277491 1.208740 -19.028303 0
M  V30 42 H 14.171058 9.590206 -7.754128 0
M  V30 43 H 13.770309 8.137293 -7.211905 0
M  V30 44 H 10.831532 5.841973 -8.795362 0
M  V30 45 H 10.394332 6.589909 -10.322621 0
M  V30 46 H 9.547749 5.778627 -13.896354 0
M  V30 47 H 10.828732 7.873645 -4.428285 0
M  V30 48 H 9.391087 4.014938 -8.419854 0
M  V30 49 H 8.915981 5.192226 -7.193711 0
M  V30 50 H 7.681157 4.377427 -8.157507 0
M  V30 51 H 11.028510 10.753088 -5.557455 0
M  V30 52 H 9.714119 9.590115 -5.585082 0
M  V30 53 H 10.324362 10.283862 -4.035337 0
M  V30 54 H 11.588286 9.963010 -7.397462 0
M  V30 55 H 13.486661 8.026633 -9.329215 0
M  V30 56 H 11.497576 10.510669 -9.584931 0
M  V30 57 H 12.878231 9.590429 -10.281451 0
M  V30 58 H 11.304331 9.179708 -10.784702 0
M  V30 59 H 8.410169 3.590214 -11.018914 0
M  V30 60 H 9.802866 4.594399 -11.265105 0
M  V30 61 H 13.144575 10.561715 -5.752918 0
M  V30 62 H 14.616903 9.710236 -5.280942 0
M  V30 63 H 6.079626 4.831494 -15.323727 0
M  V30 64 H 7.374084 5.920280 -15.111083 0
M  V30 65 H 6.965762 2.533761 -12.381326 0
M  V30 66 H 5.729707 2.800405 -13.543831 0
M  V30 67 H 8.171196 -0.458623 -17.403122 0
M  V30 68 H 6.748964 -0.130583 -16.299769 0
M  V30 69 H 8.479053 8.449878 -9.203831 0
M  V30 70 H 10.559144 3.636631 -17.552240 0
M  V30 71 H 7.128889 1.018884 -14.324535 0
M  V30 72 H 8.575580 1.953145 -14.115551 0
M  V30 73 H 5.094018 5.234729 -13.328164 0
M  V30 74 H 5.761214 4.795388 -11.782072 0
M  V30 75 H 6.285161 6.288238 -12.595807 0
M  V30 76 H 8.067932 6.615228 -10.984338 0
M  V30 77 H 7.053616 5.426207 -10.225878 0
M  V30 78 H 8.166371 6.645278 -8.779107 0
M  V30 END ATOM
M  V30 BEGIN BOND
M  V30 1 1 2 1 CFG=1
M  V30 2 1 9 4
M  V30 3 1 10 5
M  V30 4 1 11 4
M  V30 5 1 11 7
M  V30 6 1 12 1
M  V30 7 1 13 3
M  V30 8 1 15 11
M  V30 9 1 16 13
M  V30 10 1 17 8
M  V30 11 1 20 1
M  V30 12 1 21 5
M  V30 13 1 21 17
M  V30 14 1 21 18 CFG=3
M  V30 15 1 21 19
M  V30 16 1 22 3
M  V30 17 1 22 8
M  V30 18 1 23 2
M  V30 19 1 23 9
M  V30 20 1 24 6 CFG=1
M  V30 21 1 24 13
M  V30 22 1 24 17
M  V30 23 1 25 9
M  V30 24 1 26 10
M  V30 25 1 26 14
M  V30 26 1 27 5
M  V30 27 1 27 24
M  V30 28 1 28 2
M  V30 29 1 29 7
M  V30 30 1 29 11
M  V30 31 1 5 30 CFG=3
M  V30 32 1 31 15
M  V30 33 1 31 25
M  V30 34 1 32 4
M  V30 35 1 32 28
M  V30 36 2 33 15
M  V30 37 1 34 2
M  V30 38 1 35 20
M  V30 39 1 35 26
M  V30 40 2 36 25
M  V30 41 1 37 3
M  V30 42 1 38 3
M  V30 43 1 4 39 CFG=3
M  V30 44 1 40 7
M  V30 45 1 41 7
M  V30 46 1 42 8
M  V30 47 1 43 8
M  V30 48 1 44 10
M  V30 49 1 45 10
M  V30 50 1 46 12
M  V30 51 1 13 47 CFG=1
M  V30 52 1 48 14
M  V30 53 1 49 14
M  V30 54 1 50 14
M  V30 55 1 51 16
M  V30 56 1 52 16
M  V30 57 1 53 16
M  V30 58 1 17 54 CFG=3
M  V30 59 1 55 18
M  V30 60 1 56 19
M  V30 61 1 57 19
M  V30 62 1 58 19
M  V30 63 1 59 20
M  V30 64 1 60 20
M  V30 65 1 61 22
M  V30 66 1 62 22
M  V30 67 1 63 23
M  V30 68 1 64 23
M  V30 69 1 65 28
M  V30 70 1 66 28
M  V30 71 1 67 29
M  V30 72 1 68 29
M  V30 73 1 69 30
M  V30 74 1 70 31
M  V30 75 1 71 32
M  V30 76 1 72 32
M  V30 77 1 73 34
M  V30 78 1 74 34
M  V30 79 1 75 34
M  V30 80 1 76 35
M  V30 81 1 77 35
M  V30 82 1 26 78 CFG=1
M  V30 END BOND
M  V30 END CTAB
M  END
>  <i_epik_Tot_Q>  (1) 
1

>  <i_epik_Tot_abs_Q>  (1) 
1

>  <i_i_glide_confnum>  (1) 
74

>  <i_i_glide_lignum>  (1) 
118

>  <i_i_glide_posenum>  (1) 
274

>  <i_i_glide_rotatable_bonds>  (1) 
9

>  <i_lp_mmshare_version>  (1) 
72125

>  <i_m_source_file_index>  (1) 
44

>  <i_f3d_flags>  (1) 
0

>  <num_sample>  (1) 
50

>  <b_lp_Chiralities_Consistent>  (1) 
1

>  <r_epik_Charging_Adjusted_Penalty>  (1) 
0.34224393187987273

>  <r_epik_Ionization_Penalty>  (1) 
0.17191807241559104

>  <r_epik_Ionization_Penalty_Charging>  (1) 
0.17112196593993639

>  <r_epik_Ionization_Penalty_Neutral>  (1) 
0.00079610647565464391

>  <r_epik_State_Penalty>  (1) 
0.17112196593993634

>  <r_glide_ring_energy>  (1) 
0

>  <r_i_docking_score>  (1) 
-5.6890176011059914

>  <r_i_glide_ecoul>  (1) 
-9.6668495221525177

>  <r_i_glide_eff_state_penalty>  (1) 
0.17112196593993634

>  <r_i_glide_einternal>  (1) 
7.7287356846287292

>  <r_i_glide_emodel>  (1) 
-6.5577517858923962

>  <r_i_glide_emodel_strain>  (1) 
3.6051247653208094

>  <r_i_glide_energy>  (1) 
-4.8126699795451184

>  <r_i_glide_erotb>  (1) 
0.30808009806851577

>  <r_i_glide_esite>  (1) 
-0.1413090703808601

>  <r_i_glide_evdw>  (1) 
4.8541795426073993

>  <r_i_glide_gscore>  (1) 
-5.8601395670459278

>  <r_i_glide_gscore_strain>  (1) 
0

>  <r_i_glide_hbond>  (1) 
-0.31477147728524169

>  <r_i_glide_ligand_efficiency>  (1) 
-0.15802826669738865

>  <r_i_glide_ligand_efficiency_ln>  (1) 
-1.2411899410679106

>  <r_i_glide_ligand_efficiency_sa>  (1) 
-0.52179783990369499

>  <r_i_glide_lipo>  (1) 
-2.7915667274013845

>  <r_i_glide_metal>  (1) 
-0

>  <r_i_glide_rewards>  (1) 
-1.7132539388544492

>  <r_lp_Energy>  (1) 
41.055799999999998

>  <r_lp_tautomer_probability>  (1) 
0.99999999996150013

>  <s_epik_Chemistry_Notes>  (1) 
This compound has a N-S or N-O group and may undergo hydrolysis at high or low pH.

>  <s_epik_cmdline>  (1) 
J2VwaWtfcHl0aG9uJywgJy1waHQnLCAnMS4wJywgJy1waCcsICc3LjQnLCAnLXRuJywgJzgnLCAnLW1hJywgJzUwMCcsICctaW1hZScsICc8aW5maWxlLm1hZT4nLCAnLW9tYWUnLCAnPG91dGZpbGUubWFlPic=

>  <s_epik_input>  (1) 
W0NIMl0xW0NIMl1DMTJbQ0BASF0zTihDKD1PKVtOSF1DMj1PKVtDSDJdW0NAQF0oW0NIM10pKFtDSDJdW0NIMl0zKU4oW09IXSlbQ0gyXVtDSDJdTihbQ0gzXSlbQ0gyXVtDQF0oTzQpKFtPSF0pW0NAQF0oW09IXSkoW0NIM10pW0NAQEhdKFtDQF00NUNsKVtDSDJdW0NIMl1bQ0gyXVtDQEhdNVtDSDNd

>  <s_glide_docking_method>  (1) 
confgen

>  <s_i_glide_gridfile>  (1) 
gpcr_drd2_6luq_protein_autoprepared_prepared

>  <s_lp_Force_Field>  (1) 
S-OPLS

>  <s_lp_Variant>  (1) 
DiffSBDD_43-2

>  <s_m_source_file>  (1) 
generated_generic_title2_ligand_DiffSBDD_2026-06-23_prepared.sdf

>  <GenAI_Model>  (1) 
DiffSBDD

>  <Protein>  (1) 
generic_title2

$$$$
DiffSBDD_46
     RDKit          3D

  0  0  0  0  0  0  0  0  0  0999 V3000
M  V30 BEGIN CTAB
M  V30 COUNTS 57 60 0 0 1
M  V30 BEGIN ATOM
M  V30 1 O 7.937007 4.792700 -9.914062 0
M  V30 2 C 10.025676 7.455012 -11.253667 0
M  V30 3 C 12.332513 8.064479 -2.265092 0
M  V30 4 C 6.630116 5.672060 -16.931422 0
M  V30 5 C 9.374687 4.901200 -12.973177 0
M  V30 6 C 9.192907 4.813844 -14.366290 0
M  V30 7 N 10.632754 7.514535 -6.941901 0
M  V30 8 C 11.331649 8.778639 -8.946678 0
M  V30 9 C 9.862463 6.348761 -6.460581 0
M  V30 10 N 9.466358 6.520861 -10.246177 0
M  V30 11 C 11.201410 9.561210 -5.510222 0
M  V30 12 C 6.965804 5.786535 -14.133108 0
M  V30 13 C 8.354170 5.430179 -12.155131 0
M  V30 14 C 9.003679 8.569515 -11.573092 0
M  V30 15 C 12.489254 8.370546 -3.763385 0 CFG=1
M  V30 16 C 7.995333 5.262547 -14.949967 0
M  V30 17 C 9.790720 6.707364 -8.818089 0
M  V30 18 C 11.775380 7.404764 -4.701674 0
M  V30 19 C 7.139806 5.853102 -12.734165 0
M  V30 20 C 8.559467 5.540030 -10.665643 0
M  V30 21 C 7.821887 5.198195 -16.348249 0
M  V30 22 C 11.975950 9.744441 -4.200770 0
M  V30 23 C 9.200472 5.730731 -7.812747 0
M  V30 24 C 11.580944 8.180386 -6.030096 0 CFG=1
M  V30 25 C 5.609685 6.201585 -16.118144 0
M  V30 26 C 10.562298 7.640504 -8.276495 0
M  V30 27 C 5.775046 6.251342 -14.719433 0
M  V30 28 H 11.018345 7.808841 -11.054042 0
M  V30 29 H 10.278457 6.980964 -12.191706 0
M  V30 30 H 11.303566 8.152590 -1.924894 0
M  V30 31 H 12.659784 7.048616 -2.041867 0
M  V30 32 H 12.931158 8.750224 -1.663994 0
M  V30 33 H 6.499206 5.631234 -18.002721 0
M  V30 34 H 10.296808 4.566985 -12.528753 0
M  V30 35 H 9.981231 4.414313 -14.987951 0
M  V30 36 H 12.205203 8.411068 -9.485136 0
M  V30 37 H 10.691283 9.376671 -9.584175 0
M  V30 38 H 11.727640 9.496280 -8.235673 0
M  V30 39 H 10.526210 5.606266 -6.021619 0
M  V30 40 H 9.113512 6.634220 -5.722370 0
M  V30 41 H 11.387683 10.365553 -6.220055 0
M  V30 42 H 10.164952 9.584785 -5.266109 0
M  V30 43 H 9.371818 9.190364 -12.384830 0
M  V30 44 H 8.042933 8.178542 -11.901905 0
M  V30 45 H 8.785053 9.189488 -10.703703 0
M  V30 46 H 13.548619 8.322656 -3.985115 0
M  V30 47 H 10.805544 7.182897 -4.267637 0
M  V30 48 H 12.261969 6.437169 -4.802732 0
M  V30 49 H 6.355852 6.256900 -12.107545 0
M  V30 50 H 8.605717 4.795984 -16.973970 0
M  V30 51 H 12.826230 10.390129 -4.383265 0
M  V30 52 H 11.344609 10.204540 -3.439400 0
M  V30 53 H 8.126614 5.819223 -7.742187 0
M  V30 54 H 9.514771 4.701045 -7.984421 0
M  V30 55 H 12.517821 8.368483 -6.556623 0
M  V30 56 H 4.697179 6.566575 -16.566876 0
M  V30 57 H 4.989337 6.653755 -14.098235 0
M  V30 END ATOM
M  V30 BEGIN BOND
M  V30 1 2 6 5
M  V30 2 1 9 7
M  V30 3 1 10 2
M  V30 4 1 13 5
M  V30 5 1 14 2
M  V30 6 1 15 3
M  V30 7 1 16 6
M  V30 8 1 16 12
M  V30 9 1 17 10
M  V30 10 1 18 15
M  V30 11 1 19 12
M  V30 12 2 19 13
M  V30 13 2 20 1
M  V30 14 1 20 10
M  V30 15 1 20 13
M  V30 16 1 21 4
M  V30 17 2 21 16
M  V30 18 1 22 11
M  V30 19 1 22 15
M  V30 20 1 23 9
M  V30 21 1 23 17
M  V30 22 1 24 7
M  V30 23 1 24 11
M  V30 24 1 24 18
M  V30 25 2 25 4
M  V30 26 1 26 7
M  V30 27 1 26 8
M  V30 28 2 26 17
M  V30 29 2 27 12
M  V30 30 1 27 25
M  V30 31 1 28 2
M  V30 32 1 29 2
M  V30 33 1 30 3
M  V30 34 1 31 3
M  V30 35 1 32 3
M  V30 36 1 33 4
M  V30 37 1 34 5
M  V30 38 1 35 6
M  V30 39 1 36 8
M  V30 40 1 37 8
M  V30 41 1 38 8
M  V30 42 1 39 9
M  V30 43 1 40 9
M  V30 44 1 41 11
M  V30 45 1 42 11
M  V30 46 1 43 14
M  V30 47 1 44 14
M  V30 48 1 45 14
M  V30 49 1 15 46 CFG=3
M  V30 50 1 47 18
M  V30 51 1 48 18
M  V30 52 1 49 19
M  V30 53 1 50 21
M  V30 54 1 51 22
M  V30 55 1 52 22
M  V30 56 1 53 23
M  V30 57 1 54 23
M  V30 58 1 24 55 CFG=3
M  V30 59 1 56 25
M  V30 60 1 57 27
M  V30 END BOND
M  V30 END CTAB
M  END
>  <i_epik_Tot_Q>  (1) 
0

>  <i_epik_Tot_abs_Q>  (1) 
0

>  <i_i_glide_confnum>  (1) 
30

>  <i_i_glide_lignum>  (1) 
124

>  <i_i_glide_posenum>  (1) 
68

>  <i_i_glide_rotatable_bonds>  (1) 
5

>  <i_lp_mmshare_version>  (1) 
72125

>  <i_m_source_file_index>  (1) 
47

>  <i_f3d_flags>  (1) 
0

>  <num_sample>  (1) 
50

>  <b_lp_Chiralities_Consistent>  (1) 
1

>  <r_epik_Charging_Adjusted_Penalty>  (1) 
7.6326947449564099e-08

>  <r_epik_Ionization_Penalty>  (1) 
7.1791624653063315e-05

>  <r_epik_Ionization_Penalty_Charging>  (1) 
7.6326947449564099e-08

>  <r_epik_Ionization_Penalty_Neutral>  (1) 
7.1715297705613756e-05

>  <r_epik_State_Penalty>  (1) 
-0

>  <r_glide_ring_energy>  (1) 
0

>  <r_i_docking_score>  (1) 
-5.6875067738697593

>  <r_i_glide_ecoul>  (1) 
-0.32739334131319203

>  <r_i_glide_eff_state_penalty>  (1) 
-0

>  <r_i_glide_einternal>  (1) 
26.896013426965467

>  <r_i_glide_emodel>  (1) 
-26.147404923998728

>  <r_i_glide_emodel_strain>  (1) 
2.2480876156800207

>  <r_i_glide_energy>  (1) 
-32.962942361804629

>  <r_i_glide_erotb>  (1) 
0.58447327232945689

>  <r_i_glide_esite>  (1) 
-0.14968079063494685

>  <r_i_glide_evdw>  (1) 
-32.635549020491439

>  <r_i_glide_gscore>  (1) 
-5.6875067738697593

>  <r_i_glide_gscore_strain>  (1) 
0

>  <r_i_glide_hbond>  (1) 
0

>  <r_i_glide_ligand_efficiency>  (1) 
-0.2106483990322133

>  <r_i_glide_ligand_efficiency_ln>  (1) 
-1.3239578110795112

>  <r_i_glide_ligand_efficiency_sa>  (1) 
-0.6319451970966401

>  <r_i_glide_lipo>  (1) 
-2.7413686224585079

>  <r_i_glide_metal>  (1) 
-0

>  <r_i_glide_rewards>  (1) 
-1.7000441808842106

>  <r_lp_Energy>  (1) 
50.30068

>  <r_lp_tautomer_probability>  (1) 
1

>  <s_epik_Chemistry_Notes>  (1) 
This compound has an imine and may undergo hydrolysis.

>  <s_epik_cmdline>  (1) 
J2VwaWtfcHl0aG9uJywgJy1waHQnLCAnMS4wJywgJy1waCcsICc3LjQnLCAnLXRuJywgJzgnLCAnLW1hJywgJzUwMCcsICctaW1hZScsICc8aW5maWxlLm1hZT4nLCAnLW9tYWUnLCAnPG91dGZpbGUubWFlPic=

>  <s_epik_input>  (1) 
W2NIXTFbY0hdW2NIXVtjSF1jKGMxMilbY0hdW2NIXWMoW2NIXTIpQyg9TylOKFtDSDJdW0NIM10pQyg9QzNbQ0gzXSlbQ0gyXVtDSDJdTjNbQ0BASF0oW0NIMl1bQ0gyXTQpW0NIMl1bQ0BASF00W0NIM10=

>  <s_glide_docking_method>  (1) 
confgen

>  <s_i_glide_gridfile>  (1) 
gpcr_drd2_6luq_protein_autoprepared_prepared

>  <s_lp_Force_Field>  (1) 
S-OPLS

>  <s_lp_Variant>  (1) 
DiffSBDD_46-1

>  <s_m_source_file>  (1) 
generated_generic_title2_ligand_DiffSBDD_2026-06-23_prepared.sdf

>  <GenAI_Model>  (1) 
DiffSBDD

>  <Protein>  (1) 
generic_title2

$$$$
DiffSBDD_45
     RDKit          3D

  0  0  0  0  0  0  0  0  0  0999 V3000
M  V30 BEGIN CTAB
M  V30 COUNTS 54 58 0 0 1
M  V30 BEGIN ATOM
M  V30 1 C 11.680474 7.996237 -10.072506 0
M  V30 2 C 5.404337 5.947473 -18.155548 0 CFG=1
M  V30 3 C 8.178169 3.801563 -12.784542 0
M  V30 4 C 8.605672 5.005337 -12.172040 0
M  V30 5 C 6.876677 5.825930 -17.832433 0
M  V30 6 C 7.136313 5.117856 -16.490923 0
M  V30 7 C 9.625218 6.732570 -10.738462 0
M  V30 8 C 10.530100 7.101049 -9.565759 0 CFG=2
M  V30 9 C 4.474007 6.746274 -17.292346 0 CFG=1
M  V30 10 C 8.323123 7.399888 -12.682570 0
M  V30 11 N 7.487960 5.394187 -14.036940 0
M  V30 12 C 5.441179 6.448997 -14.976077 0
M  V30 13 O 11.057199 9.990490 -4.069542 0
M  V30 14 C 9.079076 7.747467 -11.558408 0
M  V30 15 O 11.911438 8.968450 -7.904072 0
M  V30 16 C 9.872247 7.747691 -8.342289 0
M  V30 17 C 4.973228 7.450532 -16.051228 0
M  V30 18 F 10.574187 7.452901 -5.182287 0
M  V30 19 C 12.654265 8.410688 -8.970878 0
M  V30 20 C 6.883583 5.980454 -15.224970 0 CFG=2
M  V30 21 C 8.117593 6.049678 -12.983278 0
M  V30 22 O 4.944719 7.249148 -18.550898 0
M  V30 23 C 10.552491 8.535682 -5.955354 0 CFG=1
M  V30 24 C 11.503225 9.583759 -5.340489 0
M  V30 25 C 11.006083 8.036189 -7.330248 0 CFG=2
M  V30 26 C 9.366943 5.367546 -11.031890 0
M  V30 27 N 7.497204 4.024709 -13.883645 0
M  V30 28 H 11.269724 8.920130 -10.462288 0
M  V30 29 H 12.204608 7.513918 -10.895524 0
M  V30 30 H 4.975561 5.125388 -18.724013 0
M  V30 31 H 8.357320 2.784438 -12.467265 0
M  V30 32 H 7.338301 6.811889 -17.842678 0
M  V30 33 H 7.349605 5.266066 -18.639369 0
M  V30 34 H 8.186382 4.821615 -16.487141 0
M  V30 35 H 6.578171 4.187033 -16.440906 0
M  V30 36 H 10.963866 6.177399 -9.184975 0
M  V30 37 H 3.429833 6.440071 -17.281249 0
M  V30 38 H 7.921681 8.167481 -13.325537 0
M  V30 39 H 4.775144 5.591193 -14.888339 0
M  V30 40 H 5.402064 6.956244 -14.010466 0
M  V30 41 H 11.123134 9.249268 -3.486378 0
M  V30 42 H 9.260303 8.787928 -11.332773 0
M  V30 43 H 9.127409 7.075844 -7.912871 0
M  V30 44 H 9.354450 8.667875 -8.615233 0
M  V30 45 H 5.778780 8.135930 -16.318286 0
M  V30 46 H 4.175811 8.089700 -15.676320 0
M  V30 47 H 13.338292 9.164986 -9.346565 0
M  V30 48 H 13.271405 7.590075 -8.619424 0
M  V30 49 H 7.450966 6.892369 -15.380684 0
M  V30 50 H 9.526109 8.899746 -5.988163 0
M  V30 51 H 11.548572 10.475369 -5.966590 0
M  V30 52 H 12.517638 9.192461 -5.256468 0
M  V30 53 H 11.566260 7.113543 -7.155310 0
M  V30 54 H 9.775119 4.594660 -10.398774 0
M  V30 END ATOM
M  V30 BEGIN BOND
M  V30 1 1 4 3
M  V30 2 1 5 2
M  V30 3 1 6 5
M  V30 4 1 8 1
M  V30 5 1 8 7
M  V30 6 1 9 2
M  V30 7 1 14 7
M  V30 8 2 14 10
M  V30 9 1 16 8
M  V30 10 1 17 9
M  V30 11 1 17 12
M  V30 12 1 19 1
M  V30 13 1 19 15
M  V30 14 1 20 6
M  V30 15 1 20 11
M  V30 16 1 20 12
M  V30 17 2 21 4
M  V30 18 1 21 10
M  V30 19 1 21 11
M  V30 20 1 22 2
M  V30 21 1 22 9
M  V30 22 1 23 18
M  V30 23 1 24 13
M  V30 24 1 24 23
M  V30 25 1 25 15
M  V30 26 1 25 16
M  V30 27 1 25 23
M  V30 28 1 26 4
M  V30 29 2 26 7
M  V30 30 2 27 3
M  V30 31 1 27 11
M  V30 32 1 28 1
M  V30 33 1 29 1
M  V30 34 1 2 30 CFG=3
M  V30 35 1 31 3
M  V30 36 1 32 5
M  V30 37 1 33 5
M  V30 38 1 34 6
M  V30 39 1 35 6
M  V30 40 1 8 36 CFG=1
M  V30 41 1 9 37 CFG=3
M  V30 42 1 38 10
M  V30 43 1 39 12
M  V30 44 1 40 12
M  V30 45 1 41 13
M  V30 46 1 42 14
M  V30 47 1 43 16
M  V30 48 1 44 16
M  V30 49 1 45 17
M  V30 50 1 46 17
M  V30 51 1 47 19
M  V30 52 1 48 19
M  V30 53 1 20 49 CFG=3
M  V30 54 1 23 50 CFG=3
M  V30 55 1 51 24
M  V30 56 1 52 24
M  V30 57 1 25 53 CFG=1
M  V30 58 1 54 26
M  V30 END BOND
M  V30 END CTAB
M  END
>  <i_epik_Tot_Q>  (1) 
0

>  <i_epik_Tot_abs_Q>  (1) 
0

>  <i_i_glide_confnum>  (1) 
6

>  <i_i_glide_lignum>  (1) 
123

>  <i_i_glide_posenum>  (1) 
274

>  <i_i_glide_rotatable_bonds>  (1) 
5

>  <i_lp_mmshare_version>  (1) 
72125

>  <i_m_source_file_index>  (1) 
46

>  <i_f3d_flags>  (1) 
0

>  <num_sample>  (1) 
50

>  <b_lp_Chiralities_Consistent>  (1) 
1

>  <r_epik_Charging_Adjusted_Penalty>  (1) 
0

>  <r_epik_Ionization_Penalty>  (1) 
1.2822463511274088e-05

>  <r_epik_Ionization_Penalty_Charging>  (1) 
0

>  <r_epik_Ionization_Penalty_Neutral>  (1) 
1.2822463511274088e-05

>  <r_epik_State_Penalty>  (1) 
-0

>  <r_glide_ring_energy>  (1) 
0

>  <r_i_docking_score>  (1) 
-5.6848931579474486

>  <r_i_glide_ecoul>  (1) 
0.26575729753035826

>  <r_i_glide_eff_state_penalty>  (1) 
-0

>  <r_i_glide_einternal>  (1) 
2.9405949917394079

>  <r_i_glide_emodel>  (1) 
-33.456880752075911

>  <r_i_glide_emodel_strain>  (1) 
2.9455365455387792

>  <r_i_glide_energy>  (1) 
-31.631457048484851

>  <r_i_glide_erotb>  (1) 
0.55159765068717725

>  <r_i_glide_esite>  (1) 
0

>  <r_i_glide_evdw>  (1) 
-31.897214346015208

>  <r_i_glide_gscore>  (1) 
-5.6848931579474486

>  <r_i_glide_gscore_strain>  (1) 
0

>  <r_i_glide_hbond>  (1) 
0

>  <r_i_glide_ligand_efficiency>  (1) 
-0.2105515984424981

>  <r_i_glide_ligand_efficiency_ln>  (1) 
-1.3233494043816234

>  <r_i_glide_ligand_efficiency_sa>  (1) 
-0.63165479532749447

>  <r_i_glide_lipo>  (1) 
-2.6809850308056911

>  <r_i_glide_metal>  (1) 
-0

>  <r_i_glide_rewards>  (1) 
-2.0005086551577271

>  <r_lp_Energy>  (1) 
29.727612999999998

>  <r_lp_tautomer_probability>  (1) 
1

>  <s_epik_cmdline>  (1) 
J2VwaWtfcHl0aG9uJywgJy1waHQnLCAnMS4wJywgJy1waCcsICc3LjQnLCAnLXRuJywgJzgnLCAnLW1hJywgJzUwMCcsICctaW1hZScsICc8aW5maWxlLm1hZT4nLCAnLW9tYWUnLCAnPG91dGZpbGUubWFlPic=

>  <s_epik_input>  (1) 
W09IXVtDSDJdW0NASF0oRilbQ0BASF0oW0NIMl0xKU9bQ0gyXVtDSDJdW0NASF0xYyhbY0hdMilbY0hdW2NIXWMoYzIzKW4obltjSF0zKVtDQEBIXShbQ0gyXVtDSDJdNClbQ0gyXVtDSDJdW0NAQEhdKE81KVtDQEhdNDU=

>  <s_glide_docking_method>  (1) 
confgen

>  <s_i_glide_gridfile>  (1) 
gpcr_drd2_6luq_protein_autoprepared_prepared

>  <s_lp_Force_Field>  (1) 
S-OPLS

>  <s_lp_Variant>  (1) 
DiffSBDD_45-2

>  <s_m_source_file>  (1) 
generated_generic_title2_ligand_DiffSBDD_2026-06-23_prepared.sdf

>  <GenAI_Model>  (1) 
DiffSBDD

>  <Protein>  (1) 
generic_title2

$$$$
DiffSBDD_29
     RDKit          3D

  0  0  0  0  0  0  0  0  0  0999 V3000
M  V30 BEGIN CTAB
M  V30 COUNTS 70 74 0 0 1
M  V30 BEGIN ATOM
M  V30 1 C 7.723943 4.256669 -14.061194 0 CFG=2
M  V30 2 F 6.702391 4.200915 -21.451917 0
M  V30 3 C 11.613590 7.283672 -7.537155 0
M  V30 4 C 5.774738 7.190239 -14.354912 0
M  V30 5 C 9.315372 6.007444 -9.977038 0 CFG=1
M  V30 6 C 7.836852 3.912046 -15.572847 0
M  V30 7 F 9.163083 5.816937 -20.959256 0
M  V30 8 O 8.204418 4.649173 -8.385046 0
M  V30 9 C 6.568806 5.911967 -16.209089 0
M  V30 10 C 6.168858 6.943220 -17.262324 0 CFG=1
M  V30 11 C 11.802762 7.651662 -9.015092 0
M  V30 12 C 7.741410 6.393090 -19.232148 0
M  V30 13 C 6.960865 6.007518 -22.840654 0
M  V30 14 C 7.295275 4.687034 -16.550965 0
M  V30 15 C 6.738189 5.533123 -21.395349 0 CFG=1
M  V30 16 C 5.334683 5.977419 -20.855240 0
M  V30 17 N 6.610227 5.166615 -13.980886 0
M  V30 18 C 10.591741 6.183048 -7.218896 0
M  V30 19 C 6.424302 6.554603 -18.665443 0
M  V30 20 C 9.699864 7.416120 -10.513787 0
M  V30 21 C 7.911132 5.933805 -20.484240 0
M  V30 22 C 10.593414 8.332812 -9.658351 0
M  V30 23 C 9.007131 4.917149 -13.520838 0
M  V30 24 C 9.133986 6.581155 -7.500139 0
M  V30 25 N 8.575409 5.990225 -8.712728 0
M  V30 26 O 6.393727 5.853645 -12.620083 0
M  V30 27 C 5.369023 6.366009 -19.387911 0
M  V30 28 C 5.818605 7.052636 -13.063930 0
M  V30 29 C 9.375409 3.141170 -11.785926 0
M  V30 30 O 4.178815 6.551237 -18.792701 0
M  V30 31 C 6.310714 6.100656 -14.909835 0
M  V30 32 C 9.371284 4.628405 -12.056218 0 CFG=2
M  V30 33 N 8.539423 5.312770 -11.029769 0 CHG=1
M  V30 34 C 4.575607 6.979771 -17.445846 0
M  V30 35 H 7.436701 3.337611 -13.561817 0
M  V30 36 H 11.388625 8.180008 -6.957649 0
M  V30 37 H 12.575405 6.930428 -7.185025 0
M  V30 38 H 5.385656 8.045763 -14.884744 0
M  V30 39 H 10.175403 5.390927 -9.791097 0
M  V30 40 H 8.379873 3.015566 -15.832247 0
M  V30 41 H 7.268784 4.739024 -8.247222 0
M  V30 42 H 6.570302 7.923704 -17.017329 0
M  V30 43 H 12.644256 8.344532 -9.066767 0
M  V30 44 H 12.110483 6.790233 -9.599335 0
M  V30 45 H 8.607846 6.646209 -18.639355 0
M  V30 46 H 7.017914 7.095979 -22.896615 0
M  V30 47 H 7.887522 5.606124 -23.252377 0
M  V30 48 H 6.149144 5.681138 -23.491657 0
M  V30 49 H 7.421708 4.401261 -17.582914 0
M  V30 50 H 4.589667 5.197830 -21.015509 0
M  V30 51 H 4.983988 6.852950 -21.401995 0
M  V30 52 H 10.671815 5.990217 -6.148929 0
M  V30 53 H 10.860049 5.239273 -7.693906 0
M  V30 54 H 8.797985 7.966599 -10.785079 0
M  V30 55 H 10.229165 7.276427 -11.456544 0
M  V30 56 H 10.009293 8.885863 -8.923991 0
M  V30 57 H 10.990926 9.100518 -10.317373 0
M  V30 58 H 8.990992 5.990414 -13.701087 0
M  V30 59 H 9.837614 4.553242 -14.124304 0
M  V30 60 H 9.020632 7.661463 -7.530829 0
M  V30 61 H 8.508168 6.277804 -6.658627 0
M  V30 62 H 5.486593 7.727314 -12.286731 0
M  V30 63 H 10.125448 2.631595 -12.385025 0
M  V30 64 H 9.649904 2.969449 -10.752959 0
M  V30 65 H 8.431814 2.650205 -11.985019 0
M  V30 66 H 10.399934 4.977526 -11.960221 0
M  V30 67 H 7.992998 4.610923 -10.552187 0
M  V30 68 H 4.067501 6.346518 -16.716718 0
M  V30 69 H 4.204265 7.990168 -17.283875 0
M  V30 70 H 7.891015 5.963620 -11.455695 0
M  V30 END ATOM
M  V30 BEGIN BOND
M  V30 1 1 6 1
M  V30 2 1 10 9
M  V30 3 1 11 3
M  V30 4 2 14 6
M  V30 5 1 14 9
M  V30 6 1 15 2 CFG=3
M  V30 7 1 15 13
M  V30 8 1 16 15
M  V30 9 1 17 1
M  V30 10 1 18 3
M  V30 11 1 19 10
M  V30 12 1 19 12
M  V30 13 1 20 5
M  V30 14 1 21 7
M  V30 15 2 21 12
M  V30 16 1 21 15
M  V30 17 1 22 11
M  V30 18 1 22 20
M  V30 19 1 23 1
M  V30 20 1 24 18
M  V30 21 1 25 5
M  V30 22 1 25 8
M  V30 23 1 25 24
M  V30 24 1 26 17
M  V30 25 1 27 16
M  V30 26 2 27 19
M  V30 27 2 28 4
M  V30 28 1 28 26
M  V30 29 1 30 27
M  V30 30 1 31 4
M  V30 31 2 31 9
M  V30 32 1 31 17
M  V30 33 1 32 23
M  V30 34 1 32 29
M  V30 35 1 33 5
M  V30 36 1 33 32
M  V30 37 1 34 10
M  V30 38 1 34 30
M  V30 39 1 1 35 CFG=1
M  V30 40 1 36 3
M  V30 41 1 37 3
M  V30 42 1 38 4
M  V30 43 1 5 39 CFG=1
M  V30 44 1 40 6
M  V30 45 1 41 8
M  V30 46 1 10 42 CFG=1
M  V30 47 1 43 11
M  V30 48 1 44 11
M  V30 49 1 45 12
M  V30 50 1 46 13
M  V30 51 1 47 13
M  V30 52 1 48 13
M  V30 53 1 49 14
M  V30 54 1 50 16
M  V30 55 1 51 16
M  V30 56 1 52 18
M  V30 57 1 53 18
M  V30 58 1 54 20
M  V30 59 1 55 20
M  V30 60 1 56 22
M  V30 61 1 57 22
M  V30 62 1 58 23
M  V30 63 1 59 23
M  V30 64 1 60 24
M  V30 65 1 61 24
M  V30 66 1 62 28
M  V30 67 1 63 29
M  V30 68 1 64 29
M  V30 69 1 65 29
M  V30 70 1 32 66 CFG=3
M  V30 71 1 67 33
M  V30 72 1 68 34
M  V30 73 1 69 34
M  V30 74 1 70 33
M  V30 END BOND
M  V30 END CTAB
M  END
>  <i_epik_Tot_Q>  (1) 
1

>  <i_epik_Tot_abs_Q>  (1) 
1

>  <i_i_glide_confnum>  (1) 
504

>  <i_i_glide_lignum>  (1) 
88

>  <i_i_glide_posenum>  (1) 
322

>  <i_i_glide_rotatable_bonds>  (1) 
6

>  <i_lp_mmshare_version>  (1) 
72125

>  <i_m_source_file_index>  (1) 
30

>  <i_f3d_flags>  (1) 
0

>  <num_sample>  (1) 
50

>  <b_lp_Chiralities_Consistent>  (1) 
1

>  <r_epik_Charging_Adjusted_Penalty>  (1) 
0.00017158895476856407

>  <r_epik_Ionization_Penalty>  (1) 
0.00032717489199656771

>  <r_epik_Ionization_Penalty_Charging>  (1) 
0.00017158895476856407

>  <r_epik_Ionization_Penalty_Neutral>  (1) 
0.00015558593722800364

>  <r_epik_State_Penalty>  (1) 
-0

>  <r_glide_ring_energy>  (1) 
0.75942799361423019

>  <r_i_docking_score>  (1) 
-5.6839083405355657

>  <r_i_glide_ecoul>  (1) 
-3.7000588785052964

>  <r_i_glide_eff_state_penalty>  (1) 
-0

>  <r_i_glide_einternal>  (1) 
10.706917753696811

>  <r_i_glide_emodel>  (1) 
-33.507180356747995

>  <r_i_glide_emodel_strain>  (1) 
0.97634869595125906

>  <r_i_glide_energy>  (1) 
-28.018632695101616

>  <r_i_glide_erotb>  (1) 
0.44578028893005395

>  <r_i_glide_esite>  (1) 
-0.23362980304073169

>  <r_i_glide_evdw>  (1) 
-24.31857381659632

>  <r_i_glide_gscore>  (1) 
-5.6839083405355657

>  <r_i_glide_gscore_strain>  (1) 
0

>  <r_i_glide_hbond>  (1) 
-0.27254398581693245

>  <r_i_glide_ligand_efficiency>  (1) 
-0.16717377472163428

>  <r_i_glide_ligand_efficiency_ln>  (1) 
-1.2557347806530645

>  <r_i_glide_ligand_efficiency_sa>  (1) 
-0.54157813345230998

>  <r_i_glide_lipo>  (1) 
-2.6123439091983656

>  <r_i_glide_metal>  (1) 
-0

>  <r_i_glide_rewards>  (1) 
-1.2402334088039788

>  <r_lp_Energy>  (1) 
36.679803

>  <r_lp_tautomer_probability>  (1) 
1

>  <s_epik_Chemistry_Notes>  (1) 
This compound contains an acetal/aminal-like group ( X-CH(R)-Y where X, Y are N, S, or O) that may be acid/base labile, releasing an aldehyde. This compound has a N-S or N-O group and may undergo hydrolysis at high or low pH.

>  <s_epik_cmdline>  (1) 
J2VwaWtfcHl0aG9uJywgJy1waHQnLCAnMS4wJywgJy1waCcsICc3LjQnLCAnLXRuJywgJzgnLCAnLW1hJywgJzUwMCcsICctaW1hZScsICc8aW5maWxlLm1hZT4nLCAnLW9tYWUnLCAnPG91dGZpbGUubWFlPic=

>  <s_epik_input>  (1) 
RkMoPVtDSF0xKVtDQF0oRikoW0NIM10pW0NIMl1DKD1DMTIpT1tDSDJdW0NASF0yQyg9QyhOMzQpW0NIXT1bQ0hdTzQpW0NIXT1bQ0hdW0NASF0zW0NIMl1bQ0BIXShbQ0gzXSlbTkhdW0NASF01W0NIMl1bQ0gyXVtDSDJdW0NIMl1bQ0gyXVtDSDJdTjVbT0hd

>  <s_glide_docking_method>  (1) 
confgen

>  <s_i_glide_gridfile>  (1) 
gpcr_drd2_6luq_protein_autoprepared_prepared

>  <s_lp_Force_Field>  (1) 
S-OPLS

>  <s_lp_Variant>  (1) 
DiffSBDD_29-1

>  <s_m_source_file>  (1) 
generated_generic_title2_ligand_DiffSBDD_2026-06-23_prepared.sdf

>  <GenAI_Model>  (1) 
DiffSBDD

>  <Protein>  (1) 
generic_title2

$$$$
DiffSBDD_2
     RDKit          3D

  0  0  0  0  0  0  0  0  0  0999 V3000
M  V30 BEGIN CTAB
M  V30 COUNTS 61 63 0 0 1
M  V30 BEGIN ATOM
M  V30 1 C 11.923255 9.135930 -5.887804 0 CFG=1
M  V30 2 C 10.237838 6.494903 -9.591174 0
M  V30 3 C 11.594231 10.592131 -6.173011 0
M  V30 4 C 5.775405 7.096925 -14.368149 0
M  V30 5 N 8.072377 2.639088 -13.098853 0
M  V30 6 C 9.220975 5.919512 -10.553182 0 CFG=2
M  V30 7 C 11.196016 6.784392 -6.165943 0
M  V30 8 C 9.676224 5.844559 -11.996503 0 CFG=2
M  V30 9 C 7.217174 0.384758 -13.371334 0
M  V30 10 C 8.151547 3.885112 -12.787476 0
M  V30 11 C 6.929078 1.875944 -13.242029 0
M  V30 12 C 7.206139 6.323782 -12.351279 0 CFG=1
M  V30 13 C 9.790177 7.695464 -8.762685 0
M  V30 14 C 11.009267 8.326071 -8.060690 0
M  V30 15 C 8.509444 6.699134 -11.656210 0 CFG=1
M  V30 16 C 6.189250 4.358164 -11.092199 0
M  V30 17 C 11.049100 6.615253 -4.653970 0
M  V30 18 C 11.992649 7.527966 -3.871418 0
M  V30 19 O 5.775410 2.281961 -13.274954 0
M  V30 20 C 7.175912 6.975945 -13.755597 0
M  V30 21 C 6.923546 4.783367 -12.393586 0 CFG=2
M  V30 22 C 11.890151 8.973457 -4.349534 0
M  V30 23 N 10.979568 8.198143 -6.579242 0 CFG=2 CHG=1
M  V30 24 C 9.501650 4.582630 -12.797134 0
M  V30 25 H 12.927359 8.975430 -6.274645 0
M  V30 26 H 10.571196 5.696448 -8.928273 0
M  V30 27 H 11.112596 6.794078 -10.165841 0
M  V30 28 H 12.175409 11.267594 -5.585023 0
M  V30 29 H 11.775410 10.907079 -7.185052 0
M  V30 30 H 10.575410 10.790229 -5.909194 0
M  V30 31 H 5.805953 7.687619 -15.284151 0
M  V30 32 H 5.352738 6.126310 -14.623020 0
M  V30 33 H 5.092125 7.590254 -13.677370 0
M  V30 34 H 8.740027 5.033615 -10.155885 0
M  V30 35 H 10.462260 6.137048 -6.645984 0
M  V30 36 H 12.175208 6.433646 -6.496700 0
M  V30 37 H 10.580870 6.386644 -12.266428 0
M  V30 38 H 7.853509 0.188399 -14.234701 0
M  V30 39 H 6.292942 -0.180487 -13.495862 0
M  V30 40 H 7.720277 0.018817 -12.476992 0
M  V30 41 H 6.414834 6.800951 -11.769889 0
M  V30 42 H 9.356788 8.439922 -9.431055 0
M  V30 43 H 8.996685 7.422980 -8.064422 0
M  V30 44 H 11.952652 7.918496 -8.429062 0
M  V30 45 H 11.033022 9.359114 -8.380425 0
M  V30 46 H 8.681944 7.773047 -11.627701 0
M  V30 47 H 6.014934 3.288858 -11.010798 0
M  V30 48 H 6.698031 4.662753 -10.182238 0
M  V30 49 H 5.207297 4.830556 -11.051906 0
M  V30 50 H 10.013680 6.790220 -4.385042 0
M  V30 51 H 11.254119 5.590230 -4.374527 0
M  V30 52 H 11.775502 7.466109 -2.803981 0
M  V30 53 H 13.014605 7.190229 -3.985016 0
M  V30 54 H 7.585669 7.984600 -13.690359 0
M  V30 55 H 7.829609 6.435229 -14.440519 0
M  V30 56 H 6.190109 4.656407 -13.185895 0
M  V30 57 H 10.975412 9.408464 -3.955275 0
M  V30 58 H 12.697305 9.554149 -3.899564 0
M  V30 59 H 10.223048 3.865720 -12.411251 0
M  V30 60 H 9.775358 4.788422 -13.832585 0
M  V30 61 H 10.044507 8.447549 -6.287225 0
M  V30 END ATOM
M  V30 BEGIN BOND
M  V30 1 1 3 1
M  V30 2 1 6 2
M  V30 3 1 8 6
M  V30 4 2 10 5
M  V30 5 1 11 5
M  V30 6 1 11 9
M  V30 7 1 13 2
M  V30 8 1 14 13
M  V30 9 1 15 6
M  V30 10 1 15 8
M  V30 11 1 15 12
M  V30 12 1 17 7
M  V30 13 1 18 17
M  V30 14 2 19 11
M  V30 15 1 20 4
M  V30 16 1 20 12
M  V30 17 1 21 10
M  V30 18 1 21 12
M  V30 19 1 21 16
M  V30 20 1 22 1
M  V30 21 1 22 18
M  V30 22 1 23 1
M  V30 23 1 23 7
M  V30 24 1 23 14
M  V30 25 1 24 8
M  V30 26 1 24 10
M  V30 27 1 1 25 CFG=3
M  V30 28 1 26 2
M  V30 29 1 27 2
M  V30 30 1 28 3
M  V30 31 1 29 3
M  V30 32 1 30 3
M  V30 33 1 31 4
M  V30 34 1 32 4
M  V30 35 1 33 4
M  V30 36 1 6 34 CFG=1
M  V30 37 1 35 7
M  V30 38 1 36 7
M  V30 39 1 8 37 CFG=1
M  V30 40 1 38 9
M  V30 41 1 39 9
M  V30 42 1 40 9
M  V30 43 1 12 41 CFG=1
M  V30 44 1 42 13
M  V30 45 1 43 13
M  V30 46 1 44 14
M  V30 47 1 45 14
M  V30 48 1 15 46 CFG=1
M  V30 49 1 47 16
M  V30 50 1 48 16
M  V30 51 1 49 16
M  V30 52 1 50 17
M  V30 53 1 51 17
M  V30 54 1 52 18
M  V30 55 1 53 18
M  V30 56 1 54 20
M  V30 57 1 55 20
M  V30 58 1 21 56 CFG=3
M  V30 59 1 57 22
M  V30 60 1 58 22
M  V30 61 1 59 24
M  V30 62 1 60 24
M  V30 63 1 23 61 CFG=1
M  V30 END BOND
M  V30 END CTAB
M  END
>  <i_epik_Tot_Q>  (1) 
1

>  <i_epik_Tot_abs_Q>  (1) 
1

>  <i_i_glide_confnum>  (1) 
208

>  <i_i_glide_lignum>  (1) 
24

>  <i_i_glide_posenum>  (1) 
341

>  <i_i_glide_rotatable_bonds>  (1) 
6

>  <i_lp_mmshare_version>  (1) 
72125

>  <i_m_source_file_index>  (1) 
3

>  <i_f3d_flags>  (1) 
0

>  <num_sample>  (1) 
50

>  <b_lp_Chiralities_Consistent>  (1) 
1

>  <r_epik_Charging_Adjusted_Penalty>  (1) 
0.0011657924221308697

>  <r_epik_Ionization_Penalty>  (1) 
0.0011657924221308697

>  <r_epik_Ionization_Penalty_Charging>  (1) 
0.0011657924221308697

>  <r_epik_Ionization_Penalty_Neutral>  (1) 
0

>  <r_epik_State_Penalty>  (1) 
-0

>  <r_glide_ring_energy>  (1) 
0

>  <r_i_docking_score>  (1) 
-5.6802943860710986

>  <r_i_glide_ecoul>  (1) 
-0.51900844186833495

>  <r_i_glide_eff_state_penalty>  (1) 
-0

>  <r_i_glide_einternal>  (1) 
10.33022440825714

>  <r_i_glide_emodel>  (1) 
-37.053489172817706

>  <r_i_glide_emodel_strain>  (1) 
0.85025280302019723

>  <r_i_glide_energy>  (1) 
-29.002614578408664

>  <r_i_glide_erotb>  (1) 
0.84713914833173298

>  <r_i_glide_esite>  (1) 
0

>  <r_i_glide_evdw>  (1) 
-28.483606136540331

>  <r_i_glide_gscore>  (1) 
-5.6802943860710986

>  <r_i_glide_gscore_strain>  (1) 
0

>  <r_i_glide_hbond>  (1) 
0

>  <r_i_glide_ligand_efficiency>  (1) 
-0.23667893275296245

>  <r_i_glide_ligand_efficiency_ln>  (1) 
-1.3595550983118969

>  <r_i_glide_ligand_efficiency_sa>  (1) 
-0.68270017812755213

>  <r_i_glide_lipo>  (1) 
-2.4760744448038894

>  <r_i_glide_metal>  (1) 
-0

>  <r_i_glide_rewards>  (1) 
-2.5493275164916747

>  <r_lp_Energy>  (1) 
47.634619999999998

>  <r_lp_tautomer_probability>  (1) 
1

>  <s_epik_Chemistry_Notes>  (1) 
This compound has an imine and may undergo hydrolysis.

>  <s_epik_cmdline>  (1) 
J2VwaWtfcHl0aG9uJywgJy1waHQnLCAnMS4wJywgJy1waCcsICc3LjQnLCAnLXRuJywgJzgnLCAnLW1hJywgJzUwMCcsICctaW1hZScsICc8aW5maWxlLm1hZT4nLCAnLW9tYWUnLCAnPG91dGZpbGUubWFlPic=

>  <s_epik_input>  (1) 
W0NIM11bQ0BIXTFbQ0gyXVtDSDJdW0NIMl1bQ0gyXU4xW0NIMl1bQ0gyXVtDSDJdW0NASF0yW0NAQEhdKFtDQEBIXTIzKVtDQEBIXShbQ0gyXVtDSDNdKVtDQEhdKFtDSDNdKS9DKFtDSDJdMyk9TlxDKD1PKVtDSDNd

>  <s_glide_docking_method>  (1) 
confgen

>  <s_i_glide_gridfile>  (1) 
gpcr_drd2_6luq_protein_autoprepared_prepared

>  <s_lp_Force_Field>  (1) 
S-OPLS

>  <s_lp_Variant>  (1) 
DiffSBDD_2-4

>  <s_m_source_file>  (1) 
generated_generic_title2_ligand_DiffSBDD_2026-06-23_prepared.sdf

>  <GenAI_Model>  (1) 
DiffSBDD

>  <Protein>  (1) 
generic_title2

$$$$
DiffSBDD_3
     RDKit          3D

  0  0  0  0  0  0  0  0  0  0999 V3000
M  V30 BEGIN CTAB
M  V30 COUNTS 27 27 0 0 1
M  V30 BEGIN ATOM
M  V30 1 C 10.407700 8.082053 -6.330909 0
M  V30 2 C 10.981133 9.190250 -5.685275 0
M  V30 3 C 11.788939 7.674644 -3.976830 0
M  V30 4 C 8.830516 4.390236 -11.019924 0
M  V30 5 C 9.173399 4.895592 -8.516248 0
M  V30 6 N 11.273421 6.598523 -4.611655 0
M  V30 7 C 8.176802 4.790227 -9.689119 0
M  V30 8 Cl 12.575410 7.436089 -2.467659 0
M  V30 9 C 11.684735 8.983609 -4.490325 0
M  V30 10 N 9.375410 7.385299 -8.454812 0 CHG=1
M  V30 11 C 10.109546 6.112707 -8.597482 0
M  V30 12 C 9.579505 8.300873 -7.546709 0
M  V30 13 C 10.575409 6.805160 -5.747695 0
M  V30 14 H 10.865265 10.186275 -6.087158 0
M  V30 15 H 8.074415 4.258213 -11.794121 0
M  V30 16 H 9.528795 5.148159 -11.373584 0
M  V30 17 H 9.375411 3.450280 -10.930787 0
M  V30 18 H 9.775412 3.990229 -8.475647 0
M  V30 19 H 8.610228 4.932583 -7.585025 0
M  V30 20 H 7.399842 4.064560 -9.440154 0
M  V30 21 H 7.643156 5.727593 -9.822090 0
M  V30 22 H 12.116273 9.817354 -3.956540 0
M  V30 23 H 10.527190 6.163674 -9.599790 0
M  V30 24 H 10.992814 6.058048 -7.970987 0
M  V30 25 H 9.114826 9.267865 -7.676447 0
M  V30 26 H 10.105451 5.937425 -6.168208 0
M  V30 27 H 8.680825 7.590227 -9.185027 0
M  V30 END ATOM
M  V30 BEGIN BOND
M  V30 1 1 2 1
M  V30 2 2 6 3
M  V30 3 1 7 4
M  V30 4 1 7 5
M  V30 5 1 8 3
M  V30 6 2 9 2
M  V30 7 1 9 3
M  V30 8 1 11 5
M  V30 9 1 11 10
M  V30 10 1 12 1
M  V30 11 2 12 10
M  V30 12 2 13 1
M  V30 13 1 13 6
M  V30 14 1 14 2
M  V30 15 1 15 4
M  V30 16 1 16 4
M  V30 17 1 17 4
M  V30 18 1 18 5
M  V30 19 1 19 5
M  V30 20 1 20 7
M  V30 21 1 21 7
M  V30 22 1 22 9
M  V30 23 1 23 11
M  V30 24 1 24 11
M  V30 25 1 25 12
M  V30 26 1 26 13
M  V30 27 1 27 10
M  V30 END BOND
M  V30 END CTAB
M  END
>  <i_epik_Tot_Q>  (1) 
1

>  <i_epik_Tot_abs_Q>  (1) 
1

>  <i_i_glide_confnum>  (1) 
4

>  <i_i_glide_lignum>  (1) 
26

>  <i_i_glide_posenum>  (1) 
292

>  <i_i_glide_rotatable_bonds>  (1) 
4

>  <i_lp_mmshare_version>  (1) 
72125

>  <i_m_source_file_index>  (1) 
4

>  <i_f3d_flags>  (1) 
0

>  <num_sample>  (1) 
50

>  <b_lp_Chiralities_Consistent>  (1) 
1

>  <r_epik_Charging_Adjusted_Penalty>  (1) 
0.029699158874294952

>  <r_epik_Ionization_Penalty>  (1) 
0.014849585528506534

>  <r_epik_Ionization_Penalty_Charging>  (1) 
0.014849579437147471

>  <r_epik_Ionization_Penalty_Neutral>  (1) 
6.091359062829099e-09

>  <r_epik_State_Penalty>  (1) 
0.01484957943714748

>  <r_glide_ring_energy>  (1) 
0

>  <r_i_docking_score>  (1) 
-5.6748269392993622

>  <r_i_glide_ecoul>  (1) 
-4.3547661847586498

>  <r_i_glide_eff_state_penalty>  (1) 
0.01484957943714748

>  <r_i_glide_einternal>  (1) 
1.1018792067861796

>  <r_i_glide_emodel>  (1) 
-41.303929709826946

>  <r_i_glide_emodel_strain>  (1) 
0

>  <r_i_glide_energy>  (1) 
-27.720508088471327

>  <r_i_glide_erotb>  (1) 
0.83262420793162661

>  <r_i_glide_esite>  (1) 
-0.15718937652626275

>  <r_i_glide_evdw>  (1) 
-23.365741903712678

>  <r_i_glide_gscore>  (1) 
-5.6896765187365093

>  <r_i_glide_gscore_strain>  (1) 
0

>  <r_i_glide_hbond>  (1) 
-0.16174831497434355

>  <r_i_glide_ligand_efficiency>  (1) 
-0.43652514917687402

>  <r_i_glide_ligand_efficiency_ln>  (1) 
-1.5918394261118447

>  <r_i_glide_ligand_efficiency_sa>  (1) 
-1.0264167253220624

>  <r_i_glide_lipo>  (1) 
-1.8707777987516681

>  <r_i_glide_metal>  (1) 
-0

>  <r_i_glide_rewards>  (1) 
-2.5110832135164309

>  <r_lp_Energy>  (1) 
25.723572999999998

>  <s_epik_Chemistry_Notes>  (1) 
This compound has an imine and may undergo hydrolysis.

>  <s_epik_cmdline>  (1) 
J2VwaWtfcHl0aG9uJywgJy1waHQnLCAnMS4wJywgJy1waCcsICc3LjQnLCAnLXRuJywgJzgnLCAnLW1hJywgJzUwMCcsICctaW1hZScsICc8aW5maWxlLm1hZT4nLCAnLW9tYWUnLCAnPG91dGZpbGUubWFlPic=

>  <s_epik_input>  (1) 
W2NIXTFuYyhDbClbY0hdW2NIXWMxL1tDSF09TlxbQ0gyXVtDSDJdW0NIMl1bQ0gzXQ==

>  <s_glide_docking_method>  (1) 
confgen

>  <s_i_glide_gridfile>  (1) 
gpcr_drd2_6luq_protein_autoprepared_prepared

>  <s_lp_Force_Field>  (1) 
S-OPLS

>  <s_lp_Variant>  (1) 
DiffSBDD_3-2

>  <s_m_source_file>  (1) 
generated_generic_title2_ligand_DiffSBDD_2026-06-23_prepared.sdf

>  <GenAI_Model>  (1) 
DiffSBDD

>  <Protein>  (1) 
generic_title2

$$$$
DiffSBDD_28
     RDKit          3D

  0  0  0  0  0  0  0  0  0  0999 V3000
M  V30 BEGIN CTAB
M  V30 COUNTS 79 86 0 0 1
M  V30 BEGIN ATOM
M  V30 1 F 6.820587 4.327080 -19.098803 0
M  V30 2 C 11.642068 8.688409 -6.976212 0 CFG=1
M  V30 3 C 9.808641 6.818389 -9.688193 0 CFG=2
M  V30 4 C 11.772767 6.726871 -4.948435 0 CFG=2
M  V30 5 C 7.644515 5.581251 -13.391134 0 CFG=1
M  V30 6 C 13.013649 8.393331 -7.585020 0
M  V30 7 C 8.180103 5.208171 -10.850521 0 CFG=2
M  V30 8 C 7.792692 3.870612 -16.263076 0 CFG=1
M  V30 9 C 9.660362 8.282346 -10.141046 0
M  V30 10 C 8.327165 4.268300 -13.803504 0 CFG=1
M  V30 11 C 11.622584 9.442021 -4.882564 0 CFG=1
M  V30 12 C 8.592489 5.249322 -8.386056 0
M  V30 13 C 11.581437 8.102387 -5.542920 0 CFG=1
M  V30 14 O 12.808871 9.571485 -4.132996 0
M  V30 15 C 7.066119 5.387994 -18.244814 0 CFG=1
M  V30 16 C 7.632521 6.082500 -11.957384 0 CFG=1
M  V30 17 O 8.568031 6.575414 -12.904908 0
M  V30 18 N 8.575435 5.990235 -9.654866 0 CFG=1 CHG=1
M  V30 19 O 11.518276 7.190408 -2.466730 0
M  V30 20 C 6.175582 6.492391 -18.638878 0
M  V30 21 O 10.474496 7.290146 -5.182443 0
M  V30 22 C 8.670475 3.416961 -12.549391 0
M  V30 23 C 11.571111 10.070248 -6.264777 0
M  V30 24 N 10.549162 8.330467 -7.929133 0
M  V30 25 C 12.175323 6.473718 -3.492699 0
M  V30 26 N 7.402788 2.664835 -17.039280 0 CHG=1
M  V30 27 C 9.246483 4.234561 -11.383678 0
M  V30 28 C 7.068416 1.568934 -16.121322 0
M  V30 29 C 7.548346 2.042949 -14.759651 0
M  V30 30 O 5.444829 7.212495 -17.961218 0
M  V30 31 C 9.289842 6.176454 -7.410654 0
M  V30 32 C 7.058716 5.151909 -16.731114 0
M  V30 33 O 7.449071 6.718725 -18.771720 0
M  V30 34 N 7.519452 3.525903 -14.832347 0 CFG=2 CHG=1
M  V30 35 C 10.725568 8.909310 -9.261730 0
M  V30 36 C 10.584709 6.396178 -1.748217 0
M  V30 37 C 10.351328 6.908425 -8.243938 0 CFG=1
M  V30 38 H 10.575207 6.388810 -10.316291 0
M  V30 39 H 12.061193 5.948431 -5.651032 0
M  V30 40 H 6.897522 5.993399 -14.064467 0
M  V30 41 H 13.775758 8.812850 -6.942194 0
M  V30 42 H 13.189771 7.325587 -7.650661 0
M  V30 43 H 13.227657 8.849197 -8.546113 0
M  V30 44 H 7.328395 4.611298 -10.521202 0
M  V30 45 H 8.868095 3.992746 -16.413729 0
M  V30 46 H 8.712970 8.774361 -9.928478 0
M  V30 47 H 9.862309 8.393007 -11.206335 0
M  V30 48 H 9.278490 4.547226 -14.260144 0
M  V30 49 H 10.758204 9.706643 -4.276725 0
M  V30 50 H 9.191929 4.349355 -8.486507 0
M  V30 51 H 7.594834 4.970519 -8.051546 0
M  V30 52 H 12.709249 9.018929 -3.369758 0
M  V30 53 H 6.862696 6.798712 -11.670639 0
M  V30 54 H 9.384059 2.627177 -12.783797 0
M  V30 55 H 7.765187 2.919717 -12.206823 0
M  V30 56 H 10.627517 10.589693 -6.384588 0
M  V30 57 H 12.419594 10.739876 -6.385044 0
M  V30 58 H 12.175357 5.409314 -3.298263 0
M  V30 59 H 13.205403 6.796576 -3.369851 0
M  V30 60 H 8.171348 2.385320 -17.634696 0
M  V30 61 H 10.139782 4.759967 -11.724780 0
M  V30 62 H 9.563513 3.562905 -10.591386 0
M  V30 63 H 7.532058 0.630915 -16.421311 0
M  V30 64 H 5.988617 1.418740 -16.121201 0
M  V30 65 H 8.567304 1.678956 -14.620647 0
M  V30 66 H 6.930666 1.651444 -13.949188 0
M  V30 67 H 9.708484 5.590346 -6.597471 0
M  V30 68 H 8.575918 6.892625 -6.995869 0
M  V30 69 H 6.033230 5.190204 -16.361341 0
M  V30 70 H 7.555605 6.006640 -16.269870 0
M  V30 71 H 10.745604 9.990067 -9.261041 0
M  V30 72 H 11.662172 8.593960 -9.717351 0
M  V30 73 H 10.082040 7.015105 -1.007553 0
M  V30 74 H 9.822967 5.990247 -2.413299 0
M  V30 75 H 11.087112 5.590333 -1.216215 0
M  V30 76 H 11.290203 6.359206 -8.201776 0
M  V30 77 H 7.831366 6.692274 -9.534950 0
M  V30 78 H 6.608537 2.855635 -17.635199 0
M  V30 79 H 6.552581 3.769278 -14.658973 0
M  V30 END ATOM
M  V30 BEGIN BOND
M  V30 1 1 2 6 CFG=3
M  V30 2 1 9 3
M  V30 3 1 10 5
M  V30 4 1 13 2
M  V30 5 1 13 4
M  V30 6 1 13 11
M  V30 7 1 14 11
M  V30 8 1 15 1 CFG=3
M  V30 9 1 16 5
M  V30 10 1 16 7
M  V30 11 1 17 5
M  V30 12 1 17 16
M  V30 13 1 18 3
M  V30 14 1 18 7
M  V30 15 1 18 12
M  V30 16 1 20 15
M  V30 17 1 21 4
M  V30 18 1 13 21 CFG=3
M  V30 19 1 22 10
M  V30 20 1 23 2
M  V30 21 1 23 11
M  V30 22 1 24 2
M  V30 23 1 25 4
M  V30 24 1 25 19
M  V30 25 1 26 8
M  V30 26 1 27 7
M  V30 27 1 27 22
M  V30 28 1 28 26
M  V30 29 1 29 28
M  V30 30 2 30 20
M  V30 31 1 31 12
M  V30 32 1 32 8
M  V30 33 1 32 15
M  V30 34 1 33 15
M  V30 35 1 33 20
M  V30 36 1 34 8
M  V30 37 1 34 10
M  V30 38 1 34 29
M  V30 39 1 35 9
M  V30 40 1 35 24
M  V30 41 1 36 19
M  V30 42 1 37 3
M  V30 43 1 37 24
M  V30 44 1 37 31
M  V30 45 1 3 38 CFG=3
M  V30 46 1 4 39 CFG=3
M  V30 47 1 5 40 CFG=3
M  V30 48 1 41 6
M  V30 49 1 42 6
M  V30 50 1 43 6
M  V30 51 1 7 44 CFG=1
M  V30 52 1 8 45 CFG=1
M  V30 53 1 46 9
M  V30 54 1 47 9
M  V30 55 1 10 48 CFG=3
M  V30 56 1 11 49 CFG=1
M  V30 57 1 50 12
M  V30 58 1 51 12
M  V30 59 1 52 14
M  V30 60 1 16 53 CFG=1
M  V30 61 1 54 22
M  V30 62 1 55 22
M  V30 63 1 56 23
M  V30 64 1 57 23
M  V30 65 1 58 25
M  V30 66 1 59 25
M  V30 67 1 60 26
M  V30 68 1 61 27
M  V30 69 1 62 27
M  V30 70 1 63 28
M  V30 71 1 64 28
M  V30 72 1 65 29
M  V30 73 1 66 29
M  V30 74 1 67 31
M  V30 75 1 68 31
M  V30 76 1 69 32
M  V30 77 1 70 32
M  V30 78 1 71 35
M  V30 79 1 72 35
M  V30 80 1 73 36
M  V30 81 1 74 36
M  V30 82 1 75 36
M  V30 83 1 37 76 CFG=3
M  V30 84 1 18 77 CFG=1
M  V30 85 1 78 26
M  V30 86 1 34 79 CFG=1
M  V30 END BOND
M  V30 END CTAB
M  END
>  <i_epik_Tot_Q>  (1) 
3

>  <i_epik_Tot_abs_Q>  (1) 
3

>  <i_i_glide_confnum>  (1) 
728

>  <i_i_glide_lignum>  (1) 
80

>  <i_i_glide_posenum>  (1) 
358

>  <i_i_glide_rotatable_bonds>  (1) 
8

>  <i_lp_mmshare_version>  (1) 
72125

>  <i_m_source_file_index>  (1) 
29

>  <i_f3d_flags>  (1) 
0

>  <num_sample>  (1) 
50

>  <b_lp_Chiralities_Consistent>  (1) 
1

>  <r_epik_Charging_Adjusted_Penalty>  (1) 
2.5241965566360229

>  <r_epik_Ionization_Penalty>  (1) 
2.0480993089750741

>  <r_epik_Ionization_Penalty_Charging>  (1) 
2.0477503768466887

>  <r_epik_Ionization_Penalty_Neutral>  (1) 
0.00034893212838530931

>  <r_epik_State_Penalty>  (1) 
0.4764461797893344

>  <r_glide_ring_energy>  (1) 
0.8191457475608499

>  <r_i_docking_score>  (1) 
-5.6658530631364901

>  <r_i_glide_ecoul>  (1) 
-10.272665547527016

>  <r_i_glide_eff_state_penalty>  (1) 
0.4764461797893344

>  <r_i_glide_einternal>  (1) 
13.805243903371398

>  <r_i_glide_emodel>  (1) 
-34.145613917565868

>  <r_i_glide_emodel_strain>  (1) 
5.976813206882241

>  <r_i_glide_energy>  (1) 
-38.248741545473038

>  <r_i_glide_erotb>  (1) 
0.44698704239028575

>  <r_i_glide_esite>  (1) 
-0.090774309559998725

>  <r_i_glide_evdw>  (1) 
-27.976075997946026

>  <r_i_glide_gscore>  (1) 
-6.1422992429258247

>  <r_i_glide_gscore_strain>  (1) 
0.49420330172056026

>  <r_i_glide_hbond>  (1) 
-0.16734997688060654

>  <r_i_glide_ligand_efficiency>  (1) 
-0.1531311638685538

>  <r_i_glide_ligand_efficiency_ln>  (1) 
-1.2287907029529599

>  <r_i_glide_ligand_efficiency_sa>  (1) 
-0.51026701041077227

>  <r_i_glide_lipo>  (1) 
-2.7340428417702243

>  <r_i_glide_metal>  (1) 
-0

>  <r_i_glide_rewards>  (1) 
-1.1516188267994869

>  <r_lp_Energy>  (1) 
68.604765999999998

>  <s_epik_Chemistry_Notes>  (1) 
This compound has an ester and may undergo hydrolysis at high or low pH. This compound contains an acetal/aminal-like group ( X-CH(R)-Y where X, Y are N, S, or O) that may be acid/base labile, releasing an aldehyde.

>  <s_epik_cmdline>  (1) 
J2VwaWtfcHl0aG9uJywgJy1waHQnLCAnMS4wJywgJy1waCcsICc3LjQnLCAnLXRuJywgJzgnLCAnLW1hJywgJzUwMCcsICctaW1hZScsICc8aW5maWxlLm1hZT4nLCAnLW9tYWUnLCAnPG91dGZpbGUubWFlPic=

>  <s_epik_input>  (1) 
Tz1DKE8xKUMxKEYpW0NIMl1bQ0BASF0yW05IXVtDSDJdW0NIMl1OMltDQEBIXTNbQ0gyXVtDSDJdW0NASF0oW0NAQEhdKE80KVtDQEhdMzQpTjVbQ0gyXVtDSDJdW0NAQEhdKFtDQEhdNTYpTihbQ0gyXVtDSDJdNilbQ0BAXShbQ0gzXSkoW0NIMl1bQ0BASF03W09IXSlbQ0BAXTc4W0NASF0oTzgpW0NIMl1PW0NIM10=

>  <s_glide_docking_method>  (1) 
confgen

>  <s_i_glide_gridfile>  (1) 
gpcr_drd2_6luq_protein_autoprepared_prepared

>  <s_lp_Force_Field>  (1) 
S-OPLS

>  <s_lp_Variant>  (1) 
DiffSBDD_28-3

>  <s_m_source_file>  (1) 
generated_generic_title2_ligand_DiffSBDD_2026-06-23_prepared.sdf

>  <GenAI_Model>  (1) 
DiffSBDD

>  <Protein>  (1) 
generic_title2

$$$$
DiffSBDD_6
     RDKit          3D

  0  0  0  0  0  0  0  0  0  0999 V3000
M  V30 BEGIN CTAB
M  V30 COUNTS 73 76 0 0 1
M  V30 BEGIN ATOM
M  V30 1 C 5.106737 7.688725 -17.089878 0
M  V30 2 C 5.494388 6.292274 -16.615543 0 CFG=1
M  V30 3 N 7.729594 5.255097 -11.699097 0
M  V30 4 C 7.615655 5.188832 -9.183701 0
M  V30 5 O 12.030884 9.190229 -8.913054 0
M  V30 6 C 8.466434 5.442050 -10.412666 0 CFG=2
M  V30 7 C 12.176261 7.853329 -10.784876 0
M  V30 8 C 6.815736 5.885487 -17.148349 0
M  V30 9 N 9.860327 4.860155 -15.580570 0
M  V30 10 C 7.019041 5.970645 -18.667045 0
M  V30 11 O 11.258509 7.248525 -7.184133 0
M  V30 12 C 12.207844 7.858623 -9.260891 0 CFG=2
M  V30 13 C 9.085050 5.083374 -16.638588 0
M  V30 14 C 5.812462 6.084195 -15.092292 0 CFG=2
M  V30 15 C 6.802695 6.886239 -14.287976 0 CFG=1
M  V30 16 C 8.229773 4.467266 -12.684523 0
M  V30 17 C 5.576422 5.856884 -21.596242 0
M  V30 18 C 11.065002 6.095775 -6.390326 0
M  V30 19 C 6.508613 7.169163 -12.825446 0
M  V30 20 C 7.715411 5.503256 -16.251152 0
M  V30 21 C 11.003609 6.530600 -4.928520 0
M  V30 22 C 9.664525 7.394231 -9.029152 0
M  V30 23 C 11.093970 7.038543 -8.581965 0 CFG=2
M  V30 24 C 6.065121 6.975539 -19.324501 0
M  V30 25 C 9.192796 6.803930 -10.394497 0
M  V30 26 F 6.344327 4.780763 -21.435234 0
M  V30 27 C 7.273165 5.546436 -14.834376 0 CFG=2
M  V30 28 C 6.438886 5.964920 -11.863163 0
M  V30 29 C 7.378892 4.293032 -13.957107 0
M  V30 30 C 8.029990 4.507253 -8.107998 0
M  V30 31 F 4.338922 5.580338 -21.185040 0
M  V30 32 O 9.498880 4.946898 -17.785704 0
M  V30 33 F 5.531091 6.143716 -22.896532 0
M  V30 34 C 6.144434 7.073980 -20.842415 0
M  V30 35 C 5.217362 7.741873 -18.604233 0
M  V30 36 O 9.312900 3.893719 -12.592820 0
M  V30 37 H 5.753508 8.454616 -16.659448 0
M  V30 38 H 4.084791 7.917907 -16.786062 0
M  V30 39 H 4.732927 5.590230 -16.940183 0
M  V30 40 H 6.623935 5.590217 -9.191392 0
M  V30 41 H 12.747654 9.687168 -9.284402 0
M  V30 42 H 9.258585 4.696200 -10.327876 0
M  V30 43 H 12.175402 6.849868 -11.205481 0
M  V30 44 H 13.032370 8.391159 -11.191541 0
M  V30 45 H 11.270108 8.352351 -11.124649 0
M  V30 46 H 10.818909 4.569596 -15.711085 0
M  V30 47 H 9.491687 4.976323 -14.647963 0
M  V30 48 H 8.012754 6.322275 -18.935024 0
M  V30 49 H 6.873417 4.976246 -19.086636 0
M  V30 50 H 13.197815 7.590247 -8.897967 0
M  V30 51 H 4.994741 5.644160 -14.526250 0
M  V30 52 H 7.200207 7.764564 -14.792666 0
M  V30 53 H 10.137663 5.592789 -6.664170 0
M  V30 54 H 11.886925 5.397639 -6.550438 0
M  V30 55 H 5.545184 7.676790 -12.784148 0
M  V30 56 H 7.234541 7.898004 -12.471396 0
M  V30 57 H 10.850541 5.677099 -4.270165 0
M  V30 58 H 10.175571 7.221832 -4.785027 0
M  V30 59 H 11.920227 7.032502 -4.622219 0
M  V30 60 H 9.572776 8.479453 -9.077916 0
M  V30 61 H 8.974399 7.128700 -8.233133 0
M  V30 62 H 11.249720 5.990221 -8.785031 0
M  V30 63 H 9.993978 6.692096 -11.111713 0
M  V30 64 H 8.573274 7.573322 -10.834247 0
M  V30 65 H 6.081943 6.390031 -10.933300 0
M  V30 66 H 5.645258 5.275085 -12.147138 0
M  V30 67 H 7.800137 3.474293 -14.541769 0
M  V30 68 H 6.384762 3.931765 -13.694579 0
M  V30 69 H 9.022053 4.088357 -8.057039 0
M  V30 70 H 7.375408 4.364633 -7.264894 0
M  V30 71 H 5.596664 7.961904 -21.158987 0
M  V30 72 H 7.181113 7.244612 -21.133587 0
M  V30 73 H 4.572006 8.443798 -19.110066 0
M  V30 END ATOM
M  V30 BEGIN BOND
M  V30 1 1 2 1
M  V30 2 1 6 3
M  V30 3 1 6 4
M  V30 4 1 8 2
M  V30 5 1 10 8
M  V30 6 1 12 5
M  V30 7 1 12 7
M  V30 8 1 13 9
M  V30 9 1 14 2
M  V30 10 1 15 14
M  V30 11 1 16 3
M  V30 12 1 18 11
M  V30 13 1 19 15
M  V30 14 2 20 8
M  V30 15 1 20 13
M  V30 16 1 21 18
M  V30 17 1 23 11
M  V30 18 1 23 12
M  V30 19 1 23 22
M  V30 20 1 24 10
M  V30 21 1 25 6
M  V30 22 1 25 22
M  V30 23 1 26 17
M  V30 24 1 27 14
M  V30 25 1 27 15
M  V30 26 1 27 20
M  V30 27 1 28 3
M  V30 28 1 28 19
M  V30 29 1 29 16
M  V30 30 1 27 29 CFG=1
M  V30 31 2 30 4
M  V30 32 1 31 17
M  V30 33 2 32 13
M  V30 34 1 33 17
M  V30 35 1 34 17
M  V30 36 1 34 24
M  V30 37 1 35 1
M  V30 38 2 35 24
M  V30 39 2 36 16
M  V30 40 1 37 1
M  V30 41 1 38 1
M  V30 42 1 2 39 CFG=3
M  V30 43 1 40 4
M  V30 44 1 41 5
M  V30 45 1 6 42 CFG=3
M  V30 46 1 43 7
M  V30 47 1 44 7
M  V30 48 1 45 7
M  V30 49 1 46 9
M  V30 50 1 47 9
M  V30 51 1 48 10
M  V30 52 1 49 10
M  V30 53 1 12 50 CFG=3
M  V30 54 1 14 51 CFG=1
M  V30 55 1 15 52 CFG=3
M  V30 56 1 53 18
M  V30 57 1 54 18
M  V30 58 1 55 19
M  V30 59 1 56 19
M  V30 60 1 57 21
M  V30 61 1 58 21
M  V30 62 1 59 21
M  V30 63 1 60 22
M  V30 64 1 61 22
M  V30 65 1 23 62 CFG=1
M  V30 66 1 63 25
M  V30 67 1 64 25
M  V30 68 1 65 28
M  V30 69 1 66 28
M  V30 70 1 67 29
M  V30 71 1 68 29
M  V30 72 1 69 30
M  V30 73 1 70 30
M  V30 74 1 71 34
M  V30 75 1 72 34
M  V30 76 1 73 35
M  V30 END BOND
M  V30 END CTAB
M  END
>  <i_epik_Tot_Q>  (1) 
0

>  <i_epik_Tot_abs_Q>  (1) 
0

>  <i_i_glide_confnum>  (1) 
1017

>  <i_i_glide_lignum>  (1) 
30

>  <i_i_glide_posenum>  (1) 
283

>  <i_i_glide_rotatable_bonds>  (1) 
12

>  <i_lp_mmshare_version>  (1) 
72125

>  <i_m_source_file_index>  (1) 
7

>  <i_f3d_flags>  (1) 
0

>  <num_sample>  (1) 
50

>  <b_lp_Chiralities_Consistent>  (1) 
1

>  <r_epik_Charging_Adjusted_Penalty>  (1) 
0

>  <r_epik_Ionization_Penalty>  (1) 
7.0933553160111078e-06

>  <r_epik_Ionization_Penalty_Charging>  (1) 
0

>  <r_epik_Ionization_Penalty_Neutral>  (1) 
7.0933553160111078e-06

>  <r_epik_State_Penalty>  (1) 
-0

>  <r_glide_ring_energy>  (1) 
0

>  <r_i_docking_score>  (1) 
-5.6573889314281107

>  <r_i_glide_ecoul>  (1) 
-2.6199016854814889

>  <r_i_glide_eff_state_penalty>  (1) 
-0

>  <r_i_glide_einternal>  (1) 
10.609276223183358

>  <r_i_glide_emodel>  (1) 
-36.401459104655345

>  <r_i_glide_emodel_strain>  (1) 
2.9942407784956373

>  <r_i_glide_energy>  (1) 
-33.4352078206486

>  <r_i_glide_erotb>  (1) 
0.62865897288938211

>  <r_i_glide_esite>  (1) 
-0.028874165738023774

>  <r_i_glide_evdw>  (1) 
-30.815306135167113

>  <r_i_glide_gscore>  (1) 
-5.6573889314281107

>  <r_i_glide_gscore_strain>  (1) 
0

>  <r_i_glide_hbond>  (1) 
-0.22920388123707136

>  <r_i_glide_ligand_efficiency>  (1) 
-0.15714969253966973

>  <r_i_glide_ligand_efficiency_ln>  (1) 
-1.2342894198521013

>  <r_i_glide_ligand_efficiency_sa>  (1) 
-0.5188968519521483

>  <r_i_glide_lipo>  (1) 
-2.7301421327312037

>  <r_i_glide_metal>  (1) 
-0

>  <r_i_glide_rewards>  (1) 
-1.3640771650306136

>  <r_lp_Energy>  (1) 
24.422612999999998

>  <r_lp_tautomer_probability>  (1) 
1

>  <s_epik_cmdline>  (1) 
J2VwaWtfcHl0aG9uJywgJy1waHQnLCAnMS4wJywgJy1waCcsICc3LjQnLCAnLXRuJywgJzgnLCAnLW1hJywgJzUwMCcsICctaW1hZScsICc8aW5maWxlLm1hZT4nLCAnLW9tYWUnLCAnPG91dGZpbGUubWFlPic=

>  <s_epik_input>  (1) 
RkMoRikoRilbQ0gyXUMoPVtDSF1bQ0gyXTEpW0NIMl1DKD1DMkMoPU8pW05IMl0pW0NASF0xW0NIXShbQ0BAXTIzNClbQ0BIXTNbQ0gyXVtDSDJdTihDKD1PKVtDSDJdNClbQ0BIXShbQ0hdPVtDSDJdKVtDSDJdW0NIMl1bQ0BASF0oW0NASF0oW09IXSlbQ0gzXSlPW0NIMl1bQ0gzXQ==

>  <s_glide_docking_method>  (1) 
confgen

>  <s_i_glide_gridfile>  (1) 
gpcr_drd2_6luq_protein_autoprepared_prepared

>  <s_lp_Force_Field>  (1) 
S-OPLS

>  <s_lp_Variant>  (1) 
DiffSBDD_6-1

>  <s_m_source_file>  (1) 
generated_generic_title2_ligand_DiffSBDD_2026-06-23_prepared.sdf

>  <GenAI_Model>  (1) 
DiffSBDD

>  <Protein>  (1) 
generic_title2

$$$$
DiffSBDD_25
     RDKit          3D

  0  0  0  0  0  0  0  0  0  0999 V3000
M  V30 BEGIN CTAB
M  V30 COUNTS 44 46 0 0 1
M  V30 BEGIN ATOM
M  V30 1 C 7.890041 4.321425 -14.994817 0 CFG=1
M  V30 2 C 7.379578 0.531021 -14.824476 0
M  V30 3 C 6.659376 0.391899 -13.627505 0
M  V30 4 C 7.450258 2.959595 -14.513227 0
M  V30 5 N 6.869006 5.590074 -10.386098 0 CHG=1
M  V30 6 N 9.057509 4.806647 -12.788237 0 CHG=1
M  V30 7 C 6.715256 2.809070 -13.312175 0
M  V30 8 C 7.427351 5.662586 -14.464051 0
M  V30 9 C 8.121342 4.789470 -8.385789 0
M  V30 10 C 8.101584 4.931757 -9.920103 0 CFG=2
M  V30 11 C 9.582870 5.871421 -11.888782 0 CFG=1
M  V30 12 C 8.844868 5.190747 -14.197540 0 CFG=2
M  V30 13 C 6.328132 1.527799 -12.872492 0
M  V30 14 C 9.485717 7.992154 -10.729936 0
M  V30 15 C 9.775221 6.906238 -9.703640 0
M  V30 16 C 8.996042 7.285792 -11.985212 0
M  V30 17 C 7.775374 1.807597 -15.265671 0
M  V30 18 C 9.416038 5.574859 -10.391423 0 CFG=1
M  V30 19 H 8.055185 4.283685 -16.070900 0
M  V30 20 H 7.633121 -0.344022 -15.406410 0
M  V30 21 H 6.359322 -0.589552 -13.288450 0
M  V30 22 H 6.888351 6.553626 -9.990590 0
M  V30 23 H 6.791090 5.657773 -11.385666 0
M  V30 24 H 8.187184 4.439470 -12.441028 0
M  V30 25 H 6.450632 3.673732 -12.726574 0
M  V30 26 H 7.321694 6.476214 -15.179060 0
M  V30 27 H 6.714100 5.683607 -13.644552 0
M  V30 28 H 9.084536 4.426807 -8.024950 0
M  V30 29 H 7.891727 5.715412 -7.862221 0
M  V30 30 H 7.379296 4.058932 -8.063721 0
M  V30 31 H 8.067807 3.954246 -10.382969 0
M  V30 32 H 10.649676 5.952716 -12.109559 0
M  V30 33 H 9.713397 5.590031 -14.713638 0
M  V30 34 H 5.776716 1.417618 -11.952181 0
M  V30 35 H 10.415098 8.523889 -10.932671 0
M  V30 36 H 8.751852 8.724527 -10.385201 0
M  V30 37 H 10.836946 6.919143 -9.453167 0
M  V30 38 H 9.243879 7.109281 -8.776923 0
M  V30 39 H 9.381512 7.868113 -12.797538 0
M  V30 40 H 7.908148 7.298712 -12.041955 0
M  V30 41 H 8.332657 1.905728 -16.185768 0
M  V30 42 H 10.174873 4.848597 -10.110891 0
M  V30 43 H 6.065179 5.119869 -9.991788 0
M  V30 44 H 9.729006 4.048073 -12.783049 0
M  V30 END ATOM
M  V30 BEGIN BOND
M  V30 1 2 3 2
M  V30 2 1 4 1
M  V30 3 1 7 4
M  V30 4 1 8 1
M  V30 5 1 10 5
M  V30 6 1 10 9
M  V30 7 1 11 6
M  V30 8 1 12 1
M  V30 9 1 12 6
M  V30 10 1 12 8
M  V30 11 1 13 3
M  V30 12 2 13 7
M  V30 13 1 15 14
M  V30 14 1 16 11
M  V30 15 1 16 14
M  V30 16 1 17 2
M  V30 17 2 17 4
M  V30 18 1 18 10
M  V30 19 1 18 11
M  V30 20 1 18 15
M  V30 21 1 1 19 CFG=3
M  V30 22 1 20 2
M  V30 23 1 21 3
M  V30 24 1 22 5
M  V30 25 1 23 5
M  V30 26 1 24 6
M  V30 27 1 25 7
M  V30 28 1 26 8
M  V30 29 1 27 8
M  V30 30 1 28 9
M  V30 31 1 29 9
M  V30 32 1 30 9
M  V30 33 1 10 31 CFG=3
M  V30 34 1 11 32 CFG=1
M  V30 35 1 12 33 CFG=3
M  V30 36 1 34 13
M  V30 37 1 35 14
M  V30 38 1 36 14
M  V30 39 1 37 15
M  V30 40 1 38 15
M  V30 41 1 39 16
M  V30 42 1 40 16
M  V30 43 1 41 17
M  V30 44 1 18 42 CFG=1
M  V30 45 1 43 5
M  V30 46 1 44 6
M  V30 END BOND
M  V30 END CTAB
M  END
>  <i_epik_Tot_Q>  (1) 
2

>  <i_epik_Tot_abs_Q>  (1) 
2

>  <i_i_glide_confnum>  (1) 
102

>  <i_i_glide_lignum>  (1) 
72

>  <i_i_glide_posenum>  (1) 
281

>  <i_i_glide_rotatable_bonds>  (1) 
4

>  <i_lp_mmshare_version>  (1) 
72125

>  <i_m_source_file_index>  (1) 
26

>  <i_f3d_flags>  (1) 
0

>  <num_sample>  (1) 
50

>  <b_lp_Chiralities_Consistent>  (1) 
1

>  <r_epik_Charging_Adjusted_Penalty>  (1) 
0.43880639721899328

>  <r_epik_Ionization_Penalty>  (1) 
0.22252539232578136

>  <r_epik_Ionization_Penalty_Charging>  (1) 
0.22252539232578136

>  <r_epik_Ionization_Penalty_Neutral>  (1) 
0

>  <r_epik_State_Penalty>  (1) 
0.21628100489321189

>  <r_glide_ring_energy>  (1) 
1.1423732950286445

>  <r_i_docking_score>  (1) 
-5.6486295101553523

>  <r_i_glide_ecoul>  (1) 
-12.768216676824032

>  <r_i_glide_eff_state_penalty>  (1) 
0.21628100489321189

>  <r_i_glide_einternal>  (1) 
15.596396536080007

>  <r_i_glide_emodel>  (1) 
-42.877295834484826

>  <r_i_glide_emodel_strain>  (1) 
0.53238346716508289

>  <r_i_glide_energy>  (1) 
-29.898774896389515

>  <r_i_glide_erotb>  (1) 
0.86113592628682767

>  <r_i_glide_esite>  (1) 
-0.10000000000000001

>  <r_i_glide_evdw>  (1) 
-17.130558219565483

>  <r_i_glide_gscore>  (1) 
-5.8649105150485639

>  <r_i_glide_gscore_strain>  (1) 
0

>  <r_i_glide_hbond>  (1) 
-0.13289735865356528

>  <r_i_glide_ligand_efficiency>  (1) 
-0.31381275056418623

>  <r_i_glide_ligand_efficiency_ln>  (1) 
-1.4519510889134202

>  <r_i_glide_ligand_efficiency_sa>  (1) 
-0.82242206543411422

>  <r_i_glide_lipo>  (1) 
-1.2678026134815921

>  <r_i_glide_metal>  (1) 
-0

>  <r_i_glide_rewards>  (1) 
-2.4535860566983554

>  <r_lp_Energy>  (1) 
41.001804999999997

>  <s_epik_cmdline>  (1) 
J2VwaWtfcHl0aG9uJywgJy1waHQnLCAnMS4wJywgJy1waCcsICc3LjQnLCAnLXRuJywgJzgnLCAnLW1hJywgJzUwMCcsICctaW1hZScsICc8aW5maWxlLm1hZT4nLCAnLW9tYWUnLCAnPG91dGZpbGUubWFlPic=

>  <s_epik_input>  (1) 
W2NIXTFbY0hdW2NIXVtjSF1bY0hdYzFbQ0BIXTJbQ0gyXVtDQEhdMltOSF1bQ0BIXTNbQ0gyXVtDSDJdW0NIMl1bQ0BIXTNbQ0BIXShbTkgyXSlbQ0gzXQ==

>  <s_glide_docking_method>  (1) 
confgen

>  <s_i_glide_gridfile>  (1) 
gpcr_drd2_6luq_protein_autoprepared_prepared

>  <s_lp_Force_Field>  (1) 
S-OPLS

>  <s_lp_Variant>  (1) 
DiffSBDD_25-1

>  <s_m_source_file>  (1) 
generated_generic_title2_ligand_DiffSBDD_2026-06-23_prepared.sdf

>  <GenAI_Model>  (1) 
DiffSBDD

>  <Protein>  (1) 
generic_title2

$$$$
DiffSBDD_30
     RDKit          3D

  0  0  0  0  0  0  0  0  0  0999 V3000
M  V30 BEGIN CTAB
M  V30 COUNTS 45 45 0 0 1
M  V30 BEGIN ATOM
M  V30 1 C 11.607195 7.737787 -10.333384 0
M  V30 2 N 11.773378 7.144532 -3.838363 0 CHG=-1
M  V30 3 C 6.371399 6.709640 -12.581552 0
M  V30 4 O 11.264500 8.179628 -6.235966 0
M  V30 5 C 12.074624 6.878658 -2.468237 0
M  V30 6 C 7.736392 6.011880 -12.633596 0
M  V30 7 O 9.778071 5.459094 -11.588155 0
M  V30 8 F 8.303105 6.266591 -13.811828 0
M  V30 9 N 5.505998 6.238345 -13.670747 0 CHG=1
M  V30 10 C 11.961457 8.491940 -3.961910 0
M  V30 11 C 12.574369 8.653423 -9.579266 0 CFG=2
M  V30 12 C 12.575444 8.234366 -2.035546 0
M  V30 13 C 10.125062 8.134808 -10.248623 0
M  V30 14 C 8.708496 6.385551 -11.488800 0 CFG=1
M  V30 15 F 13.025090 5.956363 -2.354960 0
M  V30 16 F 10.985427 6.525842 -1.784916 0
M  V30 17 C 11.604222 9.148023 -5.265602 0
M  V30 18 O 13.083108 8.390669 -0.934740 0
M  V30 19 N 11.309355 8.808374 -7.504208 0
M  V30 20 F 7.473648 4.702396 -12.562960 0
M  V30 21 O 13.892990 8.389788 -9.999919 0
M  V30 22 C 12.559462 8.367346 -8.075411 0
M  V30 23 O 8.254236 8.785527 -11.561913 0
M  V30 24 N 12.412912 9.185873 -3.011526 0
M  V30 25 C 9.294219 7.827289 -11.516371 0 CFG=1
M  V30 26 H 11.923009 7.590596 -11.363947 0
M  V30 27 H 11.693380 6.791415 -9.849339 0
M  V30 28 H 5.878226 6.546320 -11.622207 0
M  V30 29 H 6.456777 7.780703 -12.714658 0
M  V30 30 H 10.089040 5.453215 -12.481684 0
M  V30 31 H 4.621745 6.720574 -13.603469 0
M  V30 32 H 5.366703 5.242942 -13.581059 0
M  V30 33 H 12.349489 9.700613 -9.802153 0
M  V30 34 H 9.651448 7.666352 -9.388128 0
M  V30 35 H 10.062125 9.184264 -9.985481 0
M  V30 36 H 8.224761 6.200165 -10.528907 0
M  V30 37 H 12.455706 9.755841 -5.573702 0
M  V30 38 H 10.753638 9.808443 -5.106273 0
M  V30 39 H 10.539126 8.387507 -8.004117 0
M  V30 40 H 14.323456 9.254413 -9.985005 0
M  V30 41 H 12.664545 7.296712 -7.890997 0
M  V30 42 H 13.382181 8.858875 -7.565757 0
M  V30 43 H 7.740407 8.653119 -10.760289 0
M  V30 44 H 9.897276 7.975226 -12.407148 0
M  V30 45 H 5.946615 6.448463 -14.554585 0
M  V30 END ATOM
M  V30 BEGIN BOND
M  V30 1 1 5 2
M  V30 2 1 6 3
M  V30 3 1 8 6
M  V30 4 1 9 3
M  V30 5 1 10 2
M  V30 6 1 11 1
M  V30 7 1 12 5
M  V30 8 1 13 1
M  V30 9 1 14 6
M  V30 10 1 14 7
M  V30 11 1 15 5
M  V30 12 1 16 5
M  V30 13 1 17 4
M  V30 14 1 17 10
M  V30 15 2 18 12
M  V30 16 1 19 4
M  V30 17 1 20 6
M  V30 18 1 21 11
M  V30 19 1 22 11
M  V30 20 1 22 19
M  V30 21 2 24 10
M  V30 22 1 24 12
M  V30 23 1 25 13
M  V30 24 1 25 14
M  V30 25 1 25 23
M  V30 26 1 26 1
M  V30 27 1 27 1
M  V30 28 1 28 3
M  V30 29 1 29 3
M  V30 30 1 30 7
M  V30 31 1 31 9
M  V30 32 1 32 9
M  V30 33 1 11 33 CFG=1
M  V30 34 1 34 13
M  V30 35 1 35 13
M  V30 36 1 14 36 CFG=1
M  V30 37 1 37 17
M  V30 38 1 38 17
M  V30 39 1 39 19
M  V30 40 1 40 21
M  V30 41 1 41 22
M  V30 42 1 42 22
M  V30 43 1 43 23
M  V30 44 1 25 44 CFG=3
M  V30 45 1 45 9
M  V30 END BOND
M  V30 END CTAB
M  END
>  <i_epik_Tot_Q>  (1) 
0

>  <i_epik_Tot_abs_Q>  (1) 
2

>  <i_i_glide_confnum>  (1) 
5

>  <i_i_glide_lignum>  (1) 
91

>  <i_i_glide_posenum>  (1) 
23

>  <i_i_glide_rotatable_bonds>  (1) 
14

>  <i_lp_mmshare_version>  (1) 
72125

>  <i_m_source_file_index>  (1) 
31

>  <i_f3d_flags>  (1) 
0

>  <num_sample>  (1) 
50

>  <b_lp_Chiralities_Consistent>  (1) 
1

>  <r_epik_Charging_Adjusted_Penalty>  (1) 
1.1033345343036571

>  <r_epik_Ionization_Penalty>  (1) 
0.55249664061947246

>  <r_epik_Ionization_Penalty_Charging>  (1) 
0.55167603061160131

>  <r_epik_Ionization_Penalty_Neutral>  (1) 
0.00082061000787111938

>  <r_epik_State_Penalty>  (1) 
0.55165850369205582

>  <r_glide_ring_energy>  (1) 
0

>  <r_i_docking_score>  (1) 
-5.6474028031327625

>  <r_i_glide_ecoul>  (1) 
-14.101826249219648

>  <r_i_glide_eff_state_penalty>  (1) 
0.55165850369205582

>  <r_i_glide_einternal>  (1) 
7.3729405991479133

>  <r_i_glide_emodel>  (1) 
-52.327053117036911

>  <r_i_glide_emodel_strain>  (1) 
1.7890404175598604

>  <r_i_glide_energy>  (1) 
-37.460183352533839

>  <r_i_glide_erotb>  (1) 
1.2301891588113794

>  <r_i_glide_esite>  (1) 
0

>  <r_i_glide_evdw>  (1) 
-23.358357103314191

>  <r_i_glide_gscore>  (1) 
-6.1990613068248184

>  <r_i_glide_gscore_strain>  (1) 
0

>  <r_i_glide_hbond>  (1) 
-0.45599999999999996

>  <r_i_glide_ligand_efficiency>  (1) 
-0.22589611212531049

>  <r_i_glide_ligand_efficiency_ln>  (1) 
-1.3386037033477252

>  <r_i_glide_ligand_efficiency_sa>  (1) 
-0.66052423884773048

>  <r_i_glide_lipo>  (1) 
-1.2137424767971314

>  <r_i_glide_metal>  (1) 
-0

>  <r_i_glide_rewards>  (1) 
-2.4763161962904103

>  <r_lp_Energy>  (1) 
22.548693

>  <s_epik_Chemistry_Notes>  (1) 
This compound has an imine and may undergo hydrolysis. This compound has a N-S or N-O group and may undergo hydrolysis at high or low pH.

>  <s_epik_cmdline>  (1) 
J2VwaWtfcHl0aG9uJywgJy1waHQnLCAnMS4wJywgJy1waCcsICc3LjQnLCAnLXRuJywgJzgnLCAnLW1hJywgJzUwMCcsICctaW1hZScsICc8aW5maWxlLm1hZT4nLCAnLW9tYWUnLCAnPG91dGZpbGUubWFlPic=

>  <s_epik_input>  (1) 
W05IMl1bQ0gyXUMoRikoRilbQ0BASF0oW09IXSlbQ0BASF0oW09IXSlbQ0gyXVtDSDJdW0NASF0oW09IXSlbQ0gyXVtOSF1PW0NIMl1DKD1OQzEoRilGKVtOSF1DMT1P

>  <s_glide_docking_method>  (1) 
confgen

>  <s_i_glide_gridfile>  (1) 
gpcr_drd2_6luq_protein_autoprepared_prepared

>  <s_lp_Force_Field>  (1) 
S-OPLS

>  <s_lp_Variant>  (1) 
DiffSBDD_30-3

>  <s_m_source_file>  (1) 
generated_generic_title2_ligand_DiffSBDD_2026-06-23_prepared.sdf

>  <GenAI_Model>  (1) 
DiffSBDD

>  <Protein>  (1) 
generic_title2

$$$$
DiffSBDD_2
     RDKit          3D

  0  0  0  0  0  0  0  0  0  0999 V3000
M  V30 BEGIN CTAB
M  V30 COUNTS 61 63 0 0 1
M  V30 BEGIN ATOM
M  V30 1 C 9.932325 7.568427 -6.483290 0 CFG=1
M  V30 2 C 8.626931 4.703993 -10.350176 0
M  V30 3 C 10.644634 6.607846 -5.518987 0
M  V30 4 C 7.129582 1.559650 -15.766260 0
M  V30 5 N 5.421302 6.291216 -14.866418 0
M  V30 6 C 7.970333 4.822912 -11.709424 0 CFG=2
M  V30 7 C 11.567898 7.473264 -8.325717 0
M  V30 8 C 6.568370 4.270436 -11.899083 0 CFG=2
M  V30 9 C 4.961061 7.989733 -16.540357 0
M  V30 10 C 6.038891 5.366235 -14.221334 0
M  V30 11 C 5.632465 6.673064 -16.187925 0
M  V30 12 C 7.715385 3.358280 -13.979379 0 CFG=1
M  V30 13 C 9.267081 6.000788 -9.881815 0
M  V30 14 C 9.591182 5.975067 -8.378903 0
M  V30 15 C 7.732606 3.548386 -12.486822 0 CFG=1
M  V30 16 C 8.489883 5.554398 -14.995082 0
M  V30 17 C 12.015300 8.921063 -8.087054 0
M  V30 18 C 11.774403 9.347666 -6.633743 0
M  V30 19 O 6.273209 6.062572 -17.043245 0
M  V30 20 C 6.959457 2.051826 -14.320034 0
M  V30 21 C 7.279546 4.613464 -14.773089 0 CFG=2
M  V30 22 C 10.336431 9.018771 -6.219487 0
M  V30 23 N 10.152542 7.268850 -7.927217 0 CFG=1 CHG=1
M  V30 24 C 5.564898 4.935099 -12.826216 0
M  V30 25 H 8.858828 7.488149 -6.301811 0
M  V30 26 H 7.870678 4.390292 -9.629553 0
M  V30 27 H 9.385391 3.921951 -10.385262 0
M  V30 28 H 10.336810 6.787555 -4.489906 0
M  V30 29 H 10.381832 5.590225 -5.757888 0
M  V30 30 H 11.730107 6.682149 -5.550188 0
M  V30 31 H 6.707747 0.560792 -15.883447 0
M  V30 32 H 6.627145 2.203235 -16.487193 0
M  V30 33 H 8.183133 1.503206 -16.039584 0
M  V30 34 H 8.201387 5.736643 -12.249336 0
M  V30 35 H 12.175412 6.790911 -7.737020 0
M  V30 36 H 11.728317 7.223814 -9.373198 0
M  V30 37 H 6.106986 3.812764 -11.025613 0
M  V30 38 H 3.890085 7.843825 -16.681710 0
M  V30 39 H 5.375377 8.388097 -17.466400 0
M  V30 40 H 5.111410 8.728226 -15.752812 0
M  V30 41 H 8.742004 3.190104 -14.239423 0
M  V30 42 H 10.150343 6.196575 -10.486808 0
M  V30 43 H 8.575493 6.807902 -10.094194 0
M  V30 44 H 8.666828 5.777723 -7.832926 0
M  V30 45 H 10.277116 5.160492 -8.142818 0
M  V30 46 H 8.172148 2.695361 -11.985316 0
M  V30 47 H 8.175700 6.578256 -15.184973 0
M  V30 48 H 9.171641 5.587744 -14.147821 0
M  V30 49 H 9.081324 5.224435 -15.849478 0
M  V30 50 H 13.072716 9.023025 -8.332343 0
M  V30 51 H 11.476477 9.587012 -8.762340 0
M  V30 52 H 12.473592 8.848014 -5.966356 0
M  V30 53 H 11.954998 10.416651 -6.513380 0
M  V30 54 H 7.338856 1.258723 -13.673673 0
M  V30 55 H 5.906251 2.144223 -14.056871 0
M  V30 56 H 7.009013 4.234922 -15.752750 0
M  V30 57 H 10.175443 9.310034 -5.184991 0
M  V30 58 H 9.664087 9.590225 -6.835585 0
M  V30 59 H 5.169332 5.809284 -12.307209 0
M  V30 60 H 4.727728 4.249927 -12.960118 0
M  V30 61 H 9.602237 7.960068 -8.420933 0
M  V30 END ATOM
M  V30 BEGIN BOND
M  V30 1 1 3 1
M  V30 2 1 6 2
M  V30 3 1 8 6
M  V30 4 2 10 5
M  V30 5 1 11 5
M  V30 6 1 11 9
M  V30 7 1 13 2
M  V30 8 1 14 13
M  V30 9 1 15 6
M  V30 10 1 15 8
M  V30 11 1 15 12
M  V30 12 1 17 7
M  V30 13 1 18 17
M  V30 14 2 19 11
M  V30 15 1 20 4
M  V30 16 1 20 12
M  V30 17 1 21 10
M  V30 18 1 21 12
M  V30 19 1 21 16
M  V30 20 1 22 1
M  V30 21 1 22 18
M  V30 22 1 23 1
M  V30 23 1 23 7
M  V30 24 1 23 14
M  V30 25 1 24 8
M  V30 26 1 24 10
M  V30 27 1 1 25 CFG=1
M  V30 28 1 26 2
M  V30 29 1 27 2
M  V30 30 1 28 3
M  V30 31 1 29 3
M  V30 32 1 30 3
M  V30 33 1 31 4
M  V30 34 1 32 4
M  V30 35 1 33 4
M  V30 36 1 6 34 CFG=3
M  V30 37 1 35 7
M  V30 38 1 36 7
M  V30 39 1 8 37 CFG=1
M  V30 40 1 38 9
M  V30 41 1 39 9
M  V30 42 1 40 9
M  V30 43 1 12 41 CFG=3
M  V30 44 1 42 13
M  V30 45 1 43 13
M  V30 46 1 44 14
M  V30 47 1 45 14
M  V30 48 1 15 46 CFG=1
M  V30 49 1 47 16
M  V30 50 1 48 16
M  V30 51 1 49 16
M  V30 52 1 50 17
M  V30 53 1 51 17
M  V30 54 1 52 18
M  V30 55 1 53 18
M  V30 56 1 54 20
M  V30 57 1 55 20
M  V30 58 1 21 56 CFG=3
M  V30 59 1 57 22
M  V30 60 1 58 22
M  V30 61 1 59 24
M  V30 62 1 60 24
M  V30 63 1 23 61 CFG=3
M  V30 END BOND
M  V30 END CTAB
M  END
>  <i_epik_Tot_Q>  (1) 
1

>  <i_epik_Tot_abs_Q>  (1) 
1

>  <i_i_glide_confnum>  (1) 
23

>  <i_i_glide_lignum>  (1) 
23

>  <i_i_glide_posenum>  (1) 
356

>  <i_i_glide_rotatable_bonds>  (1) 
6

>  <i_lp_mmshare_version>  (1) 
72125

>  <i_m_source_file_index>  (1) 
3

>  <i_f3d_flags>  (1) 
0

>  <num_sample>  (1) 
50

>  <b_lp_Chiralities_Consistent>  (1) 
1

>  <r_epik_Charging_Adjusted_Penalty>  (1) 
0.0011657924221308697

>  <r_epik_Ionization_Penalty>  (1) 
0.0011657924221308697

>  <r_epik_Ionization_Penalty_Charging>  (1) 
0.0011657924221308697

>  <r_epik_Ionization_Penalty_Neutral>  (1) 
0

>  <r_epik_State_Penalty>  (1) 
-0

>  <r_glide_ring_energy>  (1) 
0

>  <r_i_docking_score>  (1) 
-5.6467250920338943

>  <r_i_glide_ecoul>  (1) 
-2.0051461266123827

>  <r_i_glide_eff_state_penalty>  (1) 
-0

>  <r_i_glide_einternal>  (1) 
5.4695031239850813

>  <r_i_glide_emodel>  (1) 
-37.030233677165526

>  <r_i_glide_emodel_strain>  (1) 
0.19551173349697137

>  <r_i_glide_energy>  (1) 
-25.462948828215154

>  <r_i_glide_erotb>  (1) 
0.84713914833173298

>  <r_i_glide_esite>  (1) 
-0.038098830777166637

>  <r_i_glide_evdw>  (1) 
-23.45780270160277

>  <r_i_glide_gscore>  (1) 
-5.6467250920338943

>  <r_i_glide_gscore_strain>  (1) 
0

>  <r_i_glide_hbond>  (1) 
0

>  <r_i_glide_ligand_efficiency>  (1) 
-0.23528021216807893

>  <r_i_glide_ligand_efficiency_ln>  (1) 
-1.3515204258542641

>  <r_i_glide_ligand_efficiency_sa>  (1) 
-0.67866556980249548

>  <r_i_glide_lipo>  (1) 
-2.3925654448157281

>  <r_i_glide_metal>  (1) 
-0

>  <r_i_glide_rewards>  (1) 
-2.5895379107007361

>  <r_lp_Energy>  (1) 
47.613637999999995

>  <r_lp_tautomer_probability>  (1) 
1

>  <s_epik_Chemistry_Notes>  (1) 
This compound has an imine and may undergo hydrolysis.

>  <s_epik_cmdline>  (1) 
J2VwaWtfcHl0aG9uJywgJy1waHQnLCAnMS4wJywgJy1waCcsICc3LjQnLCAnLXRuJywgJzgnLCAnLW1hJywgJzUwMCcsICctaW1hZScsICc8aW5maWxlLm1hZT4nLCAnLW9tYWUnLCAnPG91dGZpbGUubWFlPic=

>  <s_epik_input>  (1) 
W0NIM11bQ0BIXTFbQ0gyXVtDSDJdW0NIMl1bQ0gyXU4xW0NIMl1bQ0gyXVtDSDJdW0NASF0yW0NAQEhdKFtDQEBIXTIzKVtDQEBIXShbQ0gyXVtDSDNdKVtDQEhdKFtDSDNdKS9DKFtDSDJdMyk9TlxDKD1PKVtDSDNd

>  <s_glide_docking_method>  (1) 
confgen

>  <s_i_glide_gridfile>  (1) 
gpcr_drd2_6luq_protein_autoprepared_prepared

>  <s_lp_Force_Field>  (1) 
S-OPLS

>  <s_lp_Variant>  (1) 
DiffSBDD_2-3

>  <s_m_source_file>  (1) 
generated_generic_title2_ligand_DiffSBDD_2026-06-23_prepared.sdf

>  <GenAI_Model>  (1) 
DiffSBDD

>  <Protein>  (1) 
generic_title2

$$$$
DiffSBDD_2
     RDKit          3D

  0  0  0  0  0  0  0  0  0  0999 V3000
M  V30 BEGIN CTAB
M  V30 COUNTS 61 63 0 0 1
M  V30 BEGIN ATOM
M  V30 1 C 8.532853 5.005676 -9.968377 0 CFG=1
M  V30 2 C 6.024976 6.946675 -13.289587 0
M  V30 3 C 9.358349 4.034869 -10.838051 0
M  V30 4 C 3.479032 7.687222 -17.046239 0
M  V30 5 N 7.375497 3.346745 -17.584843 0
M  V30 6 C 6.182091 6.183844 -14.584601 0 CFG=2
M  V30 7 C 9.807632 7.154070 -10.187965 0
M  V30 8 C 7.483563 6.284672 -15.308040 0 CFG=2
M  V30 9 C 8.320868 1.108453 -17.670668 0
M  V30 10 C 7.415483 4.582162 -17.223408 0
M  V30 11 C 7.799826 2.265337 -16.825557 0
M  V30 12 C 5.632941 6.358911 -17.164068 0 CFG=1
M  V30 13 C 6.625357 6.256039 -12.064422 0
M  V30 14 C 8.129381 6.542661 -11.915757 0
M  V30 15 C 6.249444 6.943491 -15.900101 0 CFG=1
M  V30 16 C 6.192264 5.155611 -19.395296 0
M  V30 17 C 10.030619 7.213754 -8.669969 0
M  V30 18 C 10.080797 5.811127 -8.058461 0
M  V30 19 O 7.775380 2.170267 -15.598099 0
M  V30 20 C 4.729561 7.381642 -17.877767 0
M  V30 21 C 6.722037 5.683553 -18.041921 0 CFG=2
M  V30 22 C 8.834707 5.004462 -8.446284 0
M  V30 23 N 8.575409 6.390228 -10.512073 0 CFG=1 CHG=1
M  V30 24 C 8.157949 5.095213 -15.973010 0
M  V30 25 H 7.500562 4.661344 -10.039561 0
M  V30 26 H 6.482040 7.927414 -13.402403 0
M  V30 27 H 4.975405 7.125531 -13.118374 0
M  V30 28 H 9.775412 3.202851 -10.283538 0
M  V30 29 H 8.735664 3.606619 -11.624432 0
M  V30 30 H 10.175405 4.534361 -11.346106 0
M  V30 31 H 2.781686 8.314578 -17.600973 0
M  V30 32 H 2.956982 6.768860 -16.785013 0
M  V30 33 H 3.737611 8.210844 -16.125473 0
M  V30 34 H 5.689817 5.212513 -14.597837 0
M  V30 35 H 10.672262 6.738605 -10.700052 0
M  V30 36 H 9.703422 8.177093 -10.551108 0
M  V30 37 H 8.175397 6.928991 -14.785134 0
M  V30 38 H 9.011192 1.468133 -18.434557 0
M  V30 39 H 7.492781 0.599985 -18.165548 0
M  V30 40 H 8.846831 0.381868 -17.050363 0
M  V30 41 H 4.944573 5.590229 -16.836863 0
M  V30 42 H 6.103205 6.638295 -11.185630 0
M  V30 43 H 6.425566 5.183899 -12.089045 0
M  V30 44 H 8.719710 5.931644 -12.599405 0
M  V30 45 H 8.314487 7.578092 -12.203553 0
M  V30 46 H 6.252386 8.031332 -15.854637 0
M  V30 47 H 6.968626 4.621167 -19.944868 0
M  V30 48 H 5.352741 4.473000 -19.255682 0
M  V30 49 H 5.867370 5.964090 -20.048398 0
M  V30 50 H 10.951583 7.752607 -8.445411 0
M  V30 51 H 9.222179 7.781703 -8.206071 0
M  V30 52 H 10.975404 5.293743 -8.385015 0
M  V30 53 H 10.152215 5.882138 -6.972971 0
M  V30 54 H 5.281737 8.294871 -18.101292 0
M  V30 55 H 4.377852 6.992722 -18.831541 0
M  V30 56 H 7.479257 6.433248 -18.273878 0
M  V30 57 H 8.914043 3.991651 -8.049049 0
M  V30 58 H 7.979596 5.448002 -7.932892 0
M  V30 59 H 8.329919 4.364136 -15.192530 0
M  V30 60 H 9.148734 5.414025 -16.298286 0
M  V30 61 H 7.861594 6.921454 -9.985100 0
M  V30 END ATOM
M  V30 BEGIN BOND
M  V30 1 1 3 1
M  V30 2 1 6 2
M  V30 3 1 8 6
M  V30 4 2 10 5
M  V30 5 1 11 5
M  V30 6 1 11 9
M  V30 7 1 13 2
M  V30 8 1 14 13
M  V30 9 1 15 6
M  V30 10 1 15 8
M  V30 11 1 15 12
M  V30 12 1 17 7
M  V30 13 1 18 17
M  V30 14 2 19 11
M  V30 15 1 20 4
M  V30 16 1 20 12
M  V30 17 1 21 10
M  V30 18 1 21 12
M  V30 19 1 21 16
M  V30 20 1 22 1
M  V30 21 1 22 18
M  V30 22 1 23 1
M  V30 23 1 23 7
M  V30 24 1 23 14
M  V30 25 1 24 8
M  V30 26 1 24 10
M  V30 27 1 1 25 CFG=1
M  V30 28 1 26 2
M  V30 29 1 27 2
M  V30 30 1 28 3
M  V30 31 1 29 3
M  V30 32 1 30 3
M  V30 33 1 31 4
M  V30 34 1 32 4
M  V30 35 1 33 4
M  V30 36 1 6 34 CFG=3
M  V30 37 1 35 7
M  V30 38 1 36 7
M  V30 39 1 8 37 CFG=1
M  V30 40 1 38 9
M  V30 41 1 39 9
M  V30 42 1 40 9
M  V30 43 1 12 41 CFG=1
M  V30 44 1 42 13
M  V30 45 1 43 13
M  V30 46 1 44 14
M  V30 47 1 45 14
M  V30 48 1 15 46 CFG=1
M  V30 49 1 47 16
M  V30 50 1 48 16
M  V30 51 1 49 16
M  V30 52 1 50 17
M  V30 53 1 51 17
M  V30 54 1 52 18
M  V30 55 1 53 18
M  V30 56 1 54 20
M  V30 57 1 55 20
M  V30 58 1 21 56 CFG=3
M  V30 59 1 57 22
M  V30 60 1 58 22
M  V30 61 1 59 24
M  V30 62 1 60 24
M  V30 63 1 23 61 CFG=1
M  V30 END BOND
M  V30 END CTAB
M  END
>  <i_epik_Tot_Q>  (1) 
1

>  <i_epik_Tot_abs_Q>  (1) 
1

>  <i_i_glide_confnum>  (1) 
214

>  <i_i_glide_lignum>  (1) 
21

>  <i_i_glide_posenum>  (1) 
92

>  <i_i_glide_rotatable_bonds>  (1) 
6

>  <i_lp_mmshare_version>  (1) 
72125

>  <i_m_source_file_index>  (1) 
3

>  <i_f3d_flags>  (1) 
0

>  <num_sample>  (1) 
50

>  <b_lp_Chiralities_Consistent>  (1) 
1

>  <r_epik_Charging_Adjusted_Penalty>  (1) 
0.0011657924221308697

>  <r_epik_Ionization_Penalty>  (1) 
0.0011657924221308697

>  <r_epik_Ionization_Penalty_Charging>  (1) 
0.0011657924221308697

>  <r_epik_Ionization_Penalty_Neutral>  (1) 
0

>  <r_epik_State_Penalty>  (1) 
-0

>  <r_glide_ring_energy>  (1) 
0

>  <r_i_docking_score>  (1) 
-5.6375677476670383

>  <r_i_glide_ecoul>  (1) 
-7.1914137805720291

>  <r_i_glide_eff_state_penalty>  (1) 
-0

>  <r_i_glide_einternal>  (1) 
3.3119742916731791

>  <r_i_glide_emodel>  (1) 
-36.899074471240532

>  <r_i_glide_emodel_strain>  (1) 
1.7171367367022157

>  <r_i_glide_energy>  (1) 
-28.13740329412451

>  <r_i_glide_erotb>  (1) 
0.84713914833173298

>  <r_i_glide_esite>  (1) 
-0.10000000000000001

>  <r_i_glide_evdw>  (1) 
-20.945989513552483

>  <r_i_glide_gscore>  (1) 
-5.6375677476670383

>  <r_i_glide_gscore_strain>  (1) 
0

>  <r_i_glide_hbond>  (1) 
-0.1515080649274691

>  <r_i_glide_ligand_efficiency>  (1) 
-0.23489865615279326

>  <r_i_glide_ligand_efficiency_ln>  (1) 
-1.3493286531441233

>  <r_i_glide_ligand_efficiency_sa>  (1) 
-0.67756497180430753

>  <r_i_glide_lipo>  (1) 
-1.8422986945611353

>  <r_i_glide_metal>  (1) 
-0

>  <r_i_glide_rewards>  (1) 
-2.264888593746738

>  <r_lp_Energy>  (1) 
45.776719999999997

>  <r_lp_tautomer_probability>  (1) 
1

>  <s_epik_Chemistry_Notes>  (1) 
This compound has an imine and may undergo hydrolysis.

>  <s_epik_cmdline>  (1) 
J2VwaWtfcHl0aG9uJywgJy1waHQnLCAnMS4wJywgJy1waCcsICc3LjQnLCAnLXRuJywgJzgnLCAnLW1hJywgJzUwMCcsICctaW1hZScsICc8aW5maWxlLm1hZT4nLCAnLW9tYWUnLCAnPG91dGZpbGUubWFlPic=

>  <s_epik_input>  (1) 
W0NIM11bQ0BIXTFbQ0gyXVtDSDJdW0NIMl1bQ0gyXU4xW0NIMl1bQ0gyXVtDSDJdW0NASF0yW0NAQEhdKFtDQEBIXTIzKVtDQEBIXShbQ0gyXVtDSDNdKVtDQEhdKFtDSDNdKVxDKFtDSDJdMyk9TlxDKD1PKVtDSDNd

>  <s_glide_docking_method>  (1) 
confgen

>  <s_i_glide_gridfile>  (1) 
gpcr_drd2_6luq_protein_autoprepared_prepared

>  <s_lp_Force_Field>  (1) 
S-OPLS

>  <s_lp_Variant>  (1) 
DiffSBDD_2-1

>  <s_m_source_file>  (1) 
generated_generic_title2_ligand_DiffSBDD_2026-06-23_prepared.sdf

>  <GenAI_Model>  (1) 
DiffSBDD

>  <Protein>  (1) 
generic_title2

$$$$
DiffSBDD_39
     RDKit          3D

  0  0  0  0  0  0  0  0  0  0999 V3000
M  V30 BEGIN CTAB
M  V30 COUNTS 69 72 0 0 1
M  V30 BEGIN ATOM
M  V30 1 C 9.183322 5.621217 -9.118428 0
M  V30 2 F 5.884146 5.190219 -15.563782 0
M  V30 3 F 7.740237 5.422059 -14.513445 0
M  V30 4 C 11.844691 6.410536 -2.111996 0
M  V30 5 C 10.575286 6.891945 -7.275642 0
M  V30 6 C 11.678966 9.051020 -7.901873 0 CFG=1
M  V30 7 O 10.541719 6.390228 -1.585030 0
M  V30 8 C 6.925952 3.091211 -12.648393 0 CFG=2
M  V30 9 C 9.890930 7.722178 -11.051150 0
M  V30 10 C 11.380239 8.519075 -5.407147 0 CFG=2
M  V30 11 O 6.521239 1.063333 -13.923831 0
M  V30 12 C 9.279596 6.404881 -11.455710 0
M  V30 13 N 8.425947 5.877456 -10.373675 0 CFG=1 CHG=1
M  V30 14 C 7.364953 3.336917 -15.526231 0
M  V30 15 C 9.797474 6.952778 -8.616642 0 CFG=1
M  V30 16 C 7.482832 4.820996 -10.816033 0
M  V30 17 O 8.175412 2.552523 -14.642615 0
M  V30 18 C 10.981718 9.037661 -9.253585 0
M  V30 19 N 10.957394 8.275367 -6.842511 0 CFG=2 CHG=1
M  V30 20 C 11.916765 7.600205 -3.052299 0 CFG=1
M  V30 21 C 13.293923 8.181385 -3.108331 0
M  V30 22 C 8.041512 3.851957 -11.896006 0
M  V30 23 C 10.640036 7.628804 -9.717693 0 CFG=2
M  V30 24 C 7.522958 1.981134 -13.543102 0 CFG=1
M  V30 25 C 6.108856 4.049278 -13.510263 0
M  V30 26 C 13.196495 9.520356 -3.830035 0
M  V30 27 C 6.768754 4.552829 -14.794202 0
M  V30 28 O 4.975422 4.394024 -13.185181 0
M  V30 29 C 12.620493 9.448656 -5.238570 0
M  V30 30 O 12.923625 8.390237 -8.047342 0
M  V30 31 C 11.430561 7.263924 -4.489492 0
M  V30 32 H 9.947992 4.863139 -9.283962 0
M  V30 33 H 8.503335 5.228673 -8.360827 0
M  V30 34 H 12.570721 6.476108 -1.301403 0
M  V30 35 H 12.067987 5.502473 -2.659381 0
M  V30 36 H 11.459396 6.259535 -7.358311 0
M  V30 37 H 9.922197 6.433976 -6.533684 0
M  V30 38 H 11.775414 10.084364 -7.590910 0
M  V30 39 H 10.354817 5.489639 -1.352646 0
M  V30 40 H 6.252496 2.612765 -11.937052 0
M  V30 41 H 10.575399 7.990219 -11.847908 0
M  V30 42 H 9.107254 8.480699 -11.010639 0
M  V30 43 H 10.574217 9.122892 -5.000368 0
M  V30 44 H 6.942319 0.299113 -14.290949 0
M  V30 45 H 10.075575 5.696226 -11.697196 0
M  V30 46 H 8.686236 6.571581 -12.356585 0
M  V30 47 H 6.579154 2.713100 -15.954395 0
M  V30 48 H 7.982019 3.667713 -16.360877 0
M  V30 49 H 8.965910 7.619050 -8.414973 0
M  V30 50 H 7.091587 4.266201 -9.961692 0
M  V30 51 H 6.627397 5.369617 -11.210538 0
M  V30 52 H 11.606684 9.548920 -9.984991 0
M  V30 53 H 10.049110 9.590224 -9.185051 0
M  V30 54 H 11.375411 8.413500 -2.587561 0
M  V30 55 H 13.682044 8.381731 -2.106911 0
M  V30 56 H 13.922223 7.443101 -3.585014 0
M  V30 57 H 8.639063 4.344128 -12.655195 0
M  V30 58 H 8.765202 3.190230 -11.430307 0
M  V30 59 H 11.556843 7.061209 -9.870650 0
M  V30 60 H 8.268658 1.408481 -12.986776 0
M  V30 61 H 12.550120 10.124358 -3.204089 0
M  V30 62 H 14.173729 9.990272 -3.893156 0
M  V30 63 H 12.344614 10.458240 -5.534565 0
M  V30 64 H 13.461424 9.190235 -5.869902 0
M  V30 65 H 13.500768 8.941714 -8.560923 0
M  V30 66 H 12.085734 6.505175 -4.919960 0
M  V30 67 H 10.449580 6.791440 -4.423469 0
M  V30 68 H 7.803992 6.646262 -10.100450 0
M  V30 69 H 10.054679 8.728587 -6.846094 0
M  V30 END ATOM
M  V30 BEGIN BOND
M  V30 1 1 7 4
M  V30 2 1 12 9
M  V30 3 1 13 1
M  V30 4 1 13 12
M  V30 5 1 15 1
M  V30 6 1 15 5
M  V30 7 1 16 13
M  V30 8 1 17 14
M  V30 9 1 18 6
M  V30 10 1 19 5
M  V30 11 1 19 6
M  V30 12 1 19 10
M  V30 13 1 20 4
M  V30 14 1 21 20
M  V30 15 1 22 8
M  V30 16 1 22 16
M  V30 17 1 23 9
M  V30 18 1 23 15
M  V30 19 1 23 18
M  V30 20 1 24 8
M  V30 21 1 24 11
M  V30 22 1 24 17
M  V30 23 1 25 8
M  V30 24 1 26 21
M  V30 25 1 27 2
M  V30 26 1 27 3
M  V30 27 1 27 14
M  V30 28 1 27 25
M  V30 29 2 28 25
M  V30 30 1 29 10
M  V30 31 1 29 26
M  V30 32 1 30 6
M  V30 33 1 31 10
M  V30 34 1 31 20
M  V30 35 1 32 1
M  V30 36 1 33 1
M  V30 37 1 34 4
M  V30 38 1 35 4
M  V30 39 1 36 5
M  V30 40 1 37 5
M  V30 41 1 6 38 CFG=1
M  V30 42 1 39 7
M  V30 43 1 8 40 CFG=1
M  V30 44 1 41 9
M  V30 45 1 42 9
M  V30 46 1 10 43 CFG=1
M  V30 47 1 44 11
M  V30 48 1 45 12
M  V30 49 1 46 12
M  V30 50 1 47 14
M  V30 51 1 48 14
M  V30 52 1 15 49 CFG=1
M  V30 53 1 50 16
M  V30 54 1 51 16
M  V30 55 1 52 18
M  V30 56 1 53 18
M  V30 57 1 20 54 CFG=1
M  V30 58 1 55 21
M  V30 59 1 56 21
M  V30 60 1 57 22
M  V30 61 1 58 22
M  V30 62 1 23 59 CFG=3
M  V30 63 1 24 60 CFG=1
M  V30 64 1 61 26
M  V30 65 1 62 26
M  V30 66 1 63 29
M  V30 67 1 64 29
M  V30 68 1 65 30
M  V30 69 1 66 31
M  V30 70 1 67 31
M  V30 71 1 13 68 CFG=1
M  V30 72 1 19 69 CFG=1
M  V30 END BOND
M  V30 END CTAB
M  END
>  <i_epik_Tot_Q>  (1) 
2

>  <i_epik_Tot_abs_Q>  (1) 
2

>  <i_i_glide_confnum>  (1) 
175

>  <i_i_glide_lignum>  (1) 
113

>  <i_i_glide_posenum>  (1) 
385

>  <i_i_glide_rotatable_bonds>  (1) 
8

>  <i_lp_mmshare_version>  (1) 
72125

>  <i_m_source_file_index>  (1) 
40

>  <i_f3d_flags>  (1) 
0

>  <num_sample>  (1) 
50

>  <b_lp_Chiralities_Consistent>  (1) 
1

>  <r_epik_Charging_Adjusted_Penalty>  (1) 
1.743801429740254

>  <r_epik_Ionization_Penalty>  (1) 
1.6051069046209219

>  <r_epik_Ionization_Penalty_Charging>  (1) 
0.6098477401054202

>  <r_epik_Ionization_Penalty_Neutral>  (1) 
0.99525916451550167

>  <r_epik_State_Penalty>  (1) 
1.1339536896348337

>  <r_glide_ring_energy>  (1) 
1.2534239858202507

>  <r_i_docking_score>  (1) 
-5.629411975109293

>  <r_i_glide_ecoul>  (1) 
-10.887596983797991

>  <r_i_glide_eff_state_penalty>  (1) 
1.1339536896348337

>  <r_i_glide_einternal>  (1) 
27.557310502119208

>  <r_i_glide_emodel>  (1) 
-24.143688289950717

>  <r_i_glide_emodel_strain>  (1) 
6.4354359329747908

>  <r_i_glide_energy>  (1) 
-35.252504298170045

>  <r_i_glide_erotb>  (1) 
0.49785121930328097

>  <r_i_glide_esite>  (1) 
-0.097746024350697916

>  <r_i_glide_evdw>  (1) 
-24.364907314372054

>  <r_i_glide_gscore>  (1) 
-6.7633656647441267

>  <r_i_glide_gscore_strain>  (1) 
0.60885898324369769

>  <r_i_glide_hbond>  (1) 
-0.20000000000000001

>  <r_i_glide_ligand_efficiency>  (1) 
-0.18159393468094492

>  <r_i_glide_ligand_efficiency_ln>  (1) 
-1.2696049211452232

>  <r_i_glide_ligand_efficiency_sa>  (1) 
-0.57045567299834687

>  <r_i_glide_lipo>  (1) 
-2.4999949400696457

>  <r_i_glide_metal>  (1) 
-0

>  <r_i_glide_rewards>  (1) 
-2.2209499895824596

>  <r_lp_Energy>  (1) 
47.174439

>  <r_lp_tautomer_probability>  (1) 
0.99995000000000001

>  <s_epik_Chemistry_Notes>  (1) 
This compound contains an acetal/aminal-like group ( X-CH(R)-Y where X, Y are N, S, or O) that may be acid/base labile, releasing an aldehyde.

>  <s_epik_cmdline>  (1) 
J2VwaWtfcHl0aG9uJywgJy1waHQnLCAnMS4wJywgJy1waCcsICc3LjQnLCAnLXRuJywgJzgnLCAnLW1hJywgJzUwMCcsICctaW1hZScsICc8aW5maWxlLm1hZT4nLCAnLW9tYWUnLCAnPG91dGZpbGUubWFlPic=

>  <s_epik_input>  (1) 
RkMxKEYpW0NIMl1PW0NASF0oW09IXSlbQ0BIXShDMT1PKVtDSDJdW0NIMl1OKFtDSDJdMilbQ0gyXVtDSDJdW0NASF0oW0NAQEhdMjMpW0NIMl1bQ0BIXShbT0hdKU4oW0NIMl0zKVtDQEBIXTRbQ0gyXVtDSDJdW0NIMl1bQ0BASF0oW0NIMl00KVtDSDJdW09IXQ==

>  <s_glide_docking_method>  (1) 
confgen

>  <s_i_glide_gridfile>  (1) 
gpcr_drd2_6luq_protein_autoprepared_prepared

>  <s_lp_Force_Field>  (1) 
S-OPLS

>  <s_lp_Variant>  (1) 
DiffSBDD_39-9

>  <s_m_source_file>  (1) 
generated_generic_title2_ligand_DiffSBDD_2026-06-23_prepared.sdf

>  <GenAI_Model>  (1) 
DiffSBDD

>  <Protein>  (1) 
generic_title2

$$$$
DiffSBDD_39
     RDKit          3D

  0  0  0  0  0  0  0  0  0  0999 V3000
M  V30 BEGIN CTAB
M  V30 COUNTS 68 71 0 0 1
M  V30 BEGIN ATOM
M  V30 1 C 8.944578 5.297291 -9.584268 0
M  V30 2 F 9.273136 4.374170 -16.270071 0
M  V30 3 F 7.865643 2.877575 -16.946613 0
M  V30 4 C 12.975410 9.379501 -2.785023 0
M  V30 5 C 10.281841 6.178605 -7.536650 0
M  V30 6 C 11.341617 8.450017 -7.624113 0 CFG=1
M  V30 7 O 11.775412 9.990226 -2.385028 0
M  V30 8 C 7.205777 5.125225 -14.052076 0 CFG=2
M  V30 9 C 9.452848 7.829893 -10.966512 0
M  V30 10 C 11.464355 7.083434 -5.512327 0 CFG=2
M  V30 11 O 5.958745 7.190223 -14.318334 0
M  V30 12 C 8.960032 6.584317 -11.689088 0
M  V30 13 N 8.171226 5.701543 -10.793660 0 CFG=1 CHG=1
M  V30 14 C 7.174655 5.130708 -16.982977 0
M  V30 15 C 9.445763 6.523348 -8.786101 0 CFG=1
M  V30 16 C 7.570098 4.534721 -11.502083 0
M  V30 17 O 6.975397 6.260794 -16.141948 0
M  V30 18 C 10.543215 8.738379 -8.901301 0
M  V30 19 N 10.696186 7.395227 -6.768174 0 CFG=2 CHG=1
M  V30 20 C 12.651086 8.082948 -3.444503 0 CFG=1
M  V30 21 C 11.896573 7.217864 -2.443943 0
M  V30 22 C 6.580015 4.910049 -12.633783 0
M  V30 23 C 10.231308 7.477480 -9.698041 0 CFG=2
M  V30 24 C 6.295248 5.985428 -14.957743 0 CFG=1
M  V30 25 C 7.517607 3.845065 -14.827724 0
M  V30 26 C 11.383358 6.002823 -3.136331 0
M  V30 27 C 7.987359 4.022306 -16.273517 0
M  V30 28 O 7.403857 2.731709 -14.314372 0
M  V30 29 C 10.708838 6.275061 -4.487741 0
M  V30 30 O 12.514627 7.990238 -7.985019 0 CHG=-1
M  V30 31 C 11.913264 8.360438 -4.770082 0
M  V30 32 H 9.775446 4.659341 -9.885394 0
M  V30 33 H 8.308155 4.694641 -8.936292 0
M  V30 34 H 13.532489 9.990233 -3.489089 0
M  V30 35 H 13.598224 9.190217 -1.912117 0
M  V30 36 H 11.159926 5.596374 -7.809460 0
M  V30 37 H 9.666394 5.556377 -6.893450 0
M  V30 38 H 11.253827 9.385914 -7.074125 0
M  V30 39 H 12.008680 10.720558 -1.829888 0
M  V30 40 H 8.154154 5.650092 -13.987840 0
M  V30 41 H 10.098045 8.390192 -11.638968 0
M  V30 42 H 8.605489 8.480790 -10.747686 0
M  V30 43 H 12.240843 6.390229 -5.809303 0
M  V30 44 H 5.201140 7.037339 -13.773630 0
M  V30 45 H 9.792856 6.033398 -12.129361 0
M  V30 46 H 8.333863 6.960152 -12.493550 0
M  V30 47 H 7.706293 5.461240 -17.875879 0
M  V30 48 H 6.201494 4.790195 -17.330771 0
M  V30 49 H 8.575405 7.037173 -8.389643 0
M  V30 50 H 8.345481 3.857074 -11.863830 0
M  V30 51 H 7.001170 3.990230 -10.749333 0
M  V30 52 H 11.076478 9.461816 -9.520980 0
M  V30 53 H 9.589775 9.190229 -8.629048 0
M  V30 54 H 13.592785 7.583102 -3.651661 0
M  V30 55 H 12.557911 6.926108 -1.625944 0
M  V30 56 H 11.056330 7.722725 -1.972193 0
M  V30 57 H 5.830428 4.120424 -12.709513 0
M  V30 58 H 6.017306 5.780157 -12.297489 0
M  V30 59 H 11.163866 7.001274 -10.001085 0
M  V30 60 H 5.356304 5.481651 -15.188556 0
M  V30 61 H 12.213080 5.315426 -3.262191 0
M  V30 62 H 10.662477 5.590227 -2.441637 0
M  V30 63 H 10.575413 5.306612 -4.886834 0
M  V30 64 H 9.775411 6.761588 -4.385033 0
M  V30 65 H 11.032229 8.976364 -4.582662 0
M  V30 66 H 12.575403 8.968366 -5.385059 0
M  V30 67 H 7.414348 6.280828 -10.436166 0
M  V30 68 H 9.833311 7.820714 -6.463067 0
M  V30 END ATOM
M  V30 BEGIN BOND
M  V30 1 1 7 4
M  V30 2 1 12 9
M  V30 3 1 13 1
M  V30 4 1 13 12
M  V30 5 1 15 1
M  V30 6 1 15 5
M  V30 7 1 16 13
M  V30 8 1 17 14
M  V30 9 1 18 6
M  V30 10 1 19 5
M  V30 11 1 19 6
M  V30 12 1 19 10
M  V30 13 1 20 4
M  V30 14 1 21 20
M  V30 15 1 22 8
M  V30 16 1 22 16
M  V30 17 1 23 9
M  V30 18 1 23 15
M  V30 19 1 23 18
M  V30 20 1 24 8
M  V30 21 1 24 11
M  V30 22 1 24 17
M  V30 23 1 25 8
M  V30 24 1 26 21
M  V30 25 1 27 2
M  V30 26 1 27 3
M  V30 27 1 27 14
M  V30 28 1 27 25
M  V30 29 2 28 25
M  V30 30 1 29 10
M  V30 31 1 29 26
M  V30 32 1 30 6
M  V30 33 1 31 10
M  V30 34 1 31 20
M  V30 35 1 32 1
M  V30 36 1 33 1
M  V30 37 1 34 4
M  V30 38 1 35 4
M  V30 39 1 36 5
M  V30 40 1 37 5
M  V30 41 1 6 38 CFG=1
M  V30 42 1 39 7
M  V30 43 1 8 40 CFG=1
M  V30 44 1 41 9
M  V30 45 1 42 9
M  V30 46 1 10 43 CFG=3
M  V30 47 1 44 11
M  V30 48 1 45 12
M  V30 49 1 46 12
M  V30 50 1 47 14
M  V30 51 1 48 14
M  V30 52 1 15 49 CFG=1
M  V30 53 1 50 16
M  V30 54 1 51 16
M  V30 55 1 52 18
M  V30 56 1 53 18
M  V30 57 1 20 54 CFG=3
M  V30 58 1 55 21
M  V30 59 1 56 21
M  V30 60 1 57 22
M  V30 61 1 58 22
M  V30 62 1 23 59 CFG=3
M  V30 63 1 24 60 CFG=3
M  V30 64 1 61 26
M  V30 65 1 62 26
M  V30 66 1 63 29
M  V30 67 1 64 29
M  V30 68 1 65 31
M  V30 69 1 66 31
M  V30 70 1 13 67 CFG=1
M  V30 71 1 19 68 CFG=1
M  V30 END BOND
M  V30 END CTAB
M  END
>  <i_epik_Tot_Q>  (1) 
1

>  <i_epik_Tot_abs_Q>  (1) 
3

>  <i_i_glide_confnum>  (1) 
261

>  <i_i_glide_lignum>  (1) 
107

>  <i_i_glide_posenum>  (1) 
23

>  <i_i_glide_rotatable_bonds>  (1) 
7

>  <i_lp_mmshare_version>  (1) 
72125

>  <i_m_source_file_index>  (1) 
40

>  <i_f3d_flags>  (1) 
0

>  <num_sample>  (1) 
50

>  <b_lp_Chiralities_Consistent>  (1) 
1

>  <r_epik_Charging_Adjusted_Penalty>  (1) 
0.43569023002306473

>  <r_epik_Ionization_Penalty>  (1) 
0.17475065349743213

>  <r_epik_Ionization_Penalty_Charging>  (1) 
0.17468327186895813

>  <r_epik_Ionization_Penalty_Neutral>  (1) 
6.7381628474014066e-05

>  <r_epik_State_Penalty>  (1) 
0.26100695815410663

>  <r_glide_ring_energy>  (1) 
0

>  <r_i_docking_score>  (1) 
-5.6239214486981464

>  <r_i_glide_ecoul>  (1) 
-7.0427000099163282

>  <r_i_glide_eff_state_penalty>  (1) 
0.26100695815410663

>  <r_i_glide_einternal>  (1) 
6.6272942205892509

>  <r_i_glide_emodel>  (1) 
-34.455262845468837

>  <r_i_glide_emodel_strain>  (1) 
0.74199931405934194

>  <r_i_glide_energy>  (1) 
-22.641413876363949

>  <r_i_glide_erotb>  (1) 
0.49989103335302049

>  <r_i_glide_esite>  (1) 
-0.084211137797655988

>  <r_i_glide_evdw>  (1) 
-15.598713866447621

>  <r_i_glide_gscore>  (1) 
-5.8849284068522527

>  <r_i_glide_gscore_strain>  (1) 
0

>  <r_i_glide_hbond>  (1) 
-0.27003694671500283

>  <r_i_glide_ligand_efficiency>  (1) 
-0.18141682092574665

>  <r_i_glide_ligand_efficiency_ln>  (1) 
-1.268366639175083

>  <r_i_glide_ligand_efficiency_sa>  (1) 
-0.56989929127449468

>  <r_i_glide_lipo>  (1) 
-2.0030814988696481

>  <r_i_glide_metal>  (1) 
-0

>  <r_i_glide_rewards>  (1) 
-2.191149162013136

>  <r_lp_Energy>  (1) 
50.450402999999994

>  <r_lp_tautomer_probability>  (1) 
0.99995000000000001

>  <s_epik_Chemistry_Notes>  (1) 
This compound contains an acetal/aminal-like group ( X-CH(R)-Y where X, Y are N, S, or O) that may be acid/base labile, releasing an aldehyde.

>  <s_epik_cmdline>  (1) 
J2VwaWtfcHl0aG9uJywgJy1waHQnLCAnMS4wJywgJy1waCcsICc3LjQnLCAnLXRuJywgJzgnLCAnLW1hJywgJzUwMCcsICctaW1hZScsICc8aW5maWxlLm1hZT4nLCAnLW9tYWUnLCAnPG91dGZpbGUubWFlPic=

>  <s_epik_input>  (1) 
RkMxKEYpW0NIMl1PW0NASF0oW09IXSlbQ0BIXShDMT1PKVtDSDJdW0NIMl1OKFtDSDJdMilbQ0gyXVtDSDJdW0NASF0oW0NAQEhdMjMpW0NIMl1bQ0BIXShbT0hdKU4oW0NIMl0zKVtDQEBIXTRbQ0gyXVtDSDJdW0NIMl1bQ0BASF0oW0NIMl00KVtDSDJdW09IXQ==

>  <s_glide_docking_method>  (1) 
confgen

>  <s_i_glide_gridfile>  (1) 
gpcr_drd2_6luq_protein_autoprepared_prepared

>  <s_lp_Force_Field>  (1) 
S-OPLS

>  <s_lp_Variant>  (1) 
DiffSBDD_39-3

>  <s_m_source_file>  (1) 
generated_generic_title2_ligand_DiffSBDD_2026-06-23_prepared.sdf

>  <GenAI_Model>  (1) 
DiffSBDD

>  <Protein>  (1) 
generic_title2

$$$$
DiffSBDD_28
     RDKit          3D

  0  0  0  0  0  0  0  0  0  0999 V3000
M  V30 BEGIN CTAB
M  V30 COUNTS 79 86 0 0 1
M  V30 BEGIN ATOM
M  V30 1 F 10.298457 5.699440 -21.850869 0
M  V30 2 C 10.262014 6.836390 -9.504071 0 CFG=1
M  V30 3 C 8.080790 6.213479 -12.523462 0 CFG=2
M  V30 4 C 10.106278 8.170984 -7.083487 0 CFG=2
M  V30 5 C 6.257434 6.255040 -16.407346 0 CFG=1
M  V30 6 C 10.175408 5.561338 -8.650613 0
M  V30 7 C 6.640160 4.939180 -14.150196 0 CFG=2
M  V30 8 C 8.280672 5.106136 -19.439330 0 CFG=1
M  V30 9 C 7.771270 7.691465 -12.272255 0
M  V30 10 C 7.324954 5.436522 -17.118272 0 CFG=1
M  V30 11 C 11.622722 8.585191 -9.342922 0 CFG=1
M  V30 12 C 7.060888 4.222914 -11.857576 0
M  V30 13 C 10.478490 7.996161 -8.546425 0 CFG=1
M  V30 14 O 12.828176 8.764833 -8.633771 0
M  V30 15 C 10.355649 6.105079 -20.530231 0 CFG=1
M  V30 16 C 5.961019 6.042085 -14.940810 0 CFG=1
M  V30 17 O 6.774415 7.119888 -15.380183 0
M  V30 18 N 6.914175 5.345377 -12.763157 0
M  V30 19 O 11.547962 8.335047 -5.171836 0
M  V30 20 C 11.677596 6.564170 -20.047777 0
M  V30 21 O 9.375415 8.790225 -8.153938 0
M  V30 22 C 7.558604 4.076281 -16.419539 0
M  V30 23 C 11.556817 7.336761 -10.218144 0
M  V30 24 N 9.039356 6.941688 -10.385036 0 CFG=1 CHG=1
M  V30 25 C 10.861929 9.101132 -6.145231 0
M  V30 26 N 7.745310 4.464440 -20.667113 0 CHG=1
M  V30 27 C 7.824714 4.273427 -14.918379 0
M  V30 28 C 6.277839 4.387748 -20.562225 0
M  V30 29 C 5.991193 4.528547 -19.075037 0
M  V30 30 O 11.771053 7.590239 -19.379817 0
M  V30 31 C 7.706508 4.803590 -10.612689 0
M  V30 32 C 9.073858 6.389991 -19.760122 0
M  V30 33 O 11.320096 5.348318 -19.715657 0
M  V30 34 N 7.090742 5.387215 -18.591152 0 CFG=2 CHG=1
M  V30 35 C 8.856783 8.119091 -11.275770 0
M  V30 36 C 12.309229 9.136279 -4.283477 0
M  V30 37 C 8.747533 5.749965 -11.219270 0 CFG=1
M  V30 38 H 8.825350 6.153226 -13.311373 0
M  V30 39 H 9.533523 7.389983 -6.587778 0
M  V30 40 H 5.494489 6.726522 -17.024413 0
M  V30 41 H 10.988888 5.492068 -7.932536 0
M  V30 42 H 9.253203 5.544232 -8.067979 0
M  V30 43 H 10.175396 4.645749 -9.236452 0
M  V30 44 H 5.871822 4.166053 -14.095687 0
M  V30 45 H 8.924041 4.378518 -18.943509 0
M  V30 46 H 6.785282 7.798851 -11.817824 0
M  V30 47 H 7.779703 8.286799 -13.185089 0
M  V30 48 H 8.253003 5.990225 -16.991833 0
M  V30 49 H 11.375417 9.475881 -9.917309 0
M  V30 50 H 6.100904 3.752228 -11.645093 0
M  V30 51 H 7.720843 3.464486 -12.280057 0
M  V30 52 H 13.408417 9.284009 -9.181420 0
M  V30 53 H 4.984005 6.348550 -14.573717 0
M  V30 54 H 8.418813 3.571053 -16.858124 0
M  V30 55 H 6.720950 3.394349 -16.535115 0
M  V30 56 H 11.525794 7.509649 -11.290255 0
M  V30 57 H 12.459863 6.790228 -9.985050 0
M  V30 58 H 11.541912 9.745132 -6.699693 0
M  V30 59 H 10.175405 9.753847 -5.621849 0
M  V30 60 H 8.119426 3.526215 -20.729015 0
M  V30 61 H 8.740243 4.854581 -14.841739 0
M  V30 62 H 8.053641 3.305717 -14.472699 0
M  V30 63 H 5.880009 3.466246 -20.989211 0
M  V30 64 H 5.845020 5.228466 -21.107008 0
M  V30 65 H 6.031587 3.539689 -18.619075 0
M  V30 66 H 5.010926 4.960684 -18.874404 0
M  V30 67 H 6.964973 5.352100 -10.028108 0
M  V30 68 H 8.136945 4.031871 -9.985028 0
M  V30 69 H 8.465794 7.082904 -20.343745 0
M  V30 70 H 9.320389 6.912967 -18.835223 0
M  V30 71 H 8.575416 9.010493 -10.714717 0
M  V30 72 H 9.741865 8.367902 -11.852980 0
M  V30 73 H 12.793644 8.501726 -3.541630 0
M  V30 74 H 13.089242 9.680497 -4.817645 0
M  V30 75 H 11.677485 9.851603 -3.754279 0
M  V30 76 H 9.662360 5.210115 -11.470243 0
M  V30 77 H 8.235461 7.067192 -9.761719 0
M  V30 78 H 8.015104 4.972435 -21.500017 0
M  V30 79 H 6.815863 6.327248 -18.843062 0
M  V30 END ATOM
M  V30 BEGIN BOND
M  V30 1 1 2 6 CFG=1
M  V30 2 1 9 3
M  V30 3 1 10 5
M  V30 4 1 13 2
M  V30 5 1 13 4
M  V30 6 1 13 11
M  V30 7 1 14 11
M  V30 8 1 15 1 CFG=3
M  V30 9 1 16 5
M  V30 10 1 16 7
M  V30 11 1 17 5
M  V30 12 1 17 16
M  V30 13 1 18 3
M  V30 14 1 18 7
M  V30 15 1 18 12
M  V30 16 1 20 15
M  V30 17 1 21 4
M  V30 18 1 13 21 CFG=3
M  V30 19 1 22 10
M  V30 20 1 23 2
M  V30 21 1 23 11
M  V30 22 1 24 2
M  V30 23 1 25 4
M  V30 24 1 25 19
M  V30 25 1 26 8
M  V30 26 1 27 7
M  V30 27 1 27 22
M  V30 28 1 28 26
M  V30 29 1 29 28
M  V30 30 2 30 20
M  V30 31 1 31 12
M  V30 32 1 32 8
M  V30 33 1 32 15
M  V30 34 1 33 15
M  V30 35 1 33 20
M  V30 36 1 34 8
M  V30 37 1 34 10
M  V30 38 1 34 29
M  V30 39 1 35 9
M  V30 40 1 35 24
M  V30 41 1 36 19
M  V30 42 1 37 3
M  V30 43 1 37 24
M  V30 44 1 37 31
M  V30 45 1 3 38 CFG=3
M  V30 46 1 4 39 CFG=1
M  V30 47 1 5 40 CFG=3
M  V30 48 1 41 6
M  V30 49 1 42 6
M  V30 50 1 43 6
M  V30 51 1 7 44 CFG=1
M  V30 52 1 8 45 CFG=1
M  V30 53 1 46 9
M  V30 54 1 47 9
M  V30 55 1 10 48 CFG=3
M  V30 56 1 11 49 CFG=3
M  V30 57 1 50 12
M  V30 58 1 51 12
M  V30 59 1 52 14
M  V30 60 1 16 53 CFG=3
M  V30 61 1 54 22
M  V30 62 1 55 22
M  V30 63 1 56 23
M  V30 64 1 57 23
M  V30 65 1 58 25
M  V30 66 1 59 25
M  V30 67 1 60 26
M  V30 68 1 61 27
M  V30 69 1 62 27
M  V30 70 1 63 28
M  V30 71 1 64 28
M  V30 72 1 65 29
M  V30 73 1 66 29
M  V30 74 1 67 31
M  V30 75 1 68 31
M  V30 76 1 69 32
M  V30 77 1 70 32
M  V30 78 1 71 35
M  V30 79 1 72 35
M  V30 80 1 73 36
M  V30 81 1 74 36
M  V30 82 1 75 36
M  V30 83 1 37 76 CFG=3
M  V30 84 1 24 77 CFG=1
M  V30 85 1 78 26
M  V30 86 1 34 79 CFG=3
M  V30 END BOND
M  V30 END CTAB
M  END
>  <i_epik_Tot_Q>  (1) 
3

>  <i_epik_Tot_abs_Q>  (1) 
3

>  <i_i_glide_confnum>  (1) 
237

>  <i_i_glide_lignum>  (1) 
84

>  <i_i_glide_posenum>  (1) 
254

>  <i_i_glide_rotatable_bonds>  (1) 
8

>  <i_lp_mmshare_version>  (1) 
72125

>  <i_m_source_file_index>  (1) 
29

>  <i_f3d_flags>  (1) 
0

>  <num_sample>  (1) 
50

>  <b_lp_Chiralities_Consistent>  (1) 
1

>  <r_epik_Charging_Adjusted_Penalty>  (1) 
2.5479580004866769

>  <r_epik_Ionization_Penalty>  (1) 
1.853674345886815

>  <r_epik_Ionization_Penalty_Charging>  (1) 
1.8530809818743854

>  <r_epik_Ionization_Penalty_Neutral>  (1) 
0.00059336401242958479

>  <r_epik_State_Penalty>  (1) 
0.69487701861229134

>  <r_glide_ring_energy>  (1) 
0.81914574756083292

>  <r_i_docking_score>  (1) 
-5.6180411423074048

>  <r_i_glide_ecoul>  (1) 
-8.9794020010252069

>  <r_i_glide_eff_state_penalty>  (1) 
0.69487701861229134

>  <r_i_glide_einternal>  (1) 
27.284304516222349

>  <r_i_glide_emodel>  (1) 
-36.66748065390567

>  <r_i_glide_emodel_strain>  (1) 
1.5402514409232708

>  <r_i_glide_energy>  (1) 
-40.094170186308091

>  <r_i_glide_erotb>  (1) 
0.44698704239028575

>  <r_i_glide_esite>  (1) 
-0.10000000000000001

>  <r_i_glide_evdw>  (1) 
-31.114768185282887

>  <r_i_glide_gscore>  (1) 
-6.312918160919696

>  <r_i_glide_gscore_strain>  (1) 
0

>  <r_i_glide_hbond>  (1) 
-0.51549530948494837

>  <r_i_glide_ligand_efficiency>  (1) 
-0.15183894979209203

>  <r_i_glide_ligand_efficiency_ln>  (1) 
-1.2184214181955857

>  <r_i_glide_ligand_efficiency_sa>  (1) 
-0.50596106642818184

>  <r_i_glide_lipo>  (1) 
-2.3118762042619556

>  <r_i_glide_metal>  (1) 
-0

>  <r_i_glide_rewards>  (1) 
-0.92988498014515331

>  <r_lp_Energy>  (1) 
62.908856

>  <s_epik_Chemistry_Notes>  (1) 
This compound has an ester and may undergo hydrolysis at high or low pH. This compound contains an acetal/aminal-like group ( X-CH(R)-Y where X, Y are N, S, or O) that may be acid/base labile, releasing an aldehyde.

>  <s_epik_cmdline>  (1) 
J2VwaWtfcHl0aG9uJywgJy1waHQnLCAnMS4wJywgJy1waCcsICc3LjQnLCAnLXRuJywgJzgnLCAnLW1hJywgJzUwMCcsICctaW1hZScsICc8aW5maWxlLm1hZT4nLCAnLW9tYWUnLCAnPG91dGZpbGUubWFlPic=

>  <s_epik_input>  (1) 
Tz1DKE8xKUMxKEYpW0NIMl1bQ0BASF0yW05IXVtDSDJdW0NIMl1OMltDQEBIXTNbQ0gyXVtDSDJdW0NASF0oW0NAQEhdKE80KVtDQEhdMzQpTjVbQ0gyXVtDSDJdW0NAQEhdKFtDQEhdNTYpTihbQ0gyXVtDSDJdNilbQ0BAXShbQ0gzXSkoW0NIMl1bQ0BASF03W09IXSlbQ0BAXTc4W0NASF0oTzgpW0NIMl1PW0NIM10=

>  <s_glide_docking_method>  (1) 
confgen

>  <s_i_glide_gridfile>  (1) 
gpcr_drd2_6luq_protein_autoprepared_prepared

>  <s_lp_Force_Field>  (1) 
S-OPLS

>  <s_lp_Variant>  (1) 
DiffSBDD_28-7

>  <s_m_source_file>  (1) 
generated_generic_title2_ligand_DiffSBDD_2026-06-23_prepared.sdf

>  <GenAI_Model>  (1) 
DiffSBDD

>  <Protein>  (1) 
generic_title2

$$$$
DiffSBDD_40
     RDKit          3D

  0  0  0  0  0  0  0  0  0  0999 V3000
M  V30 BEGIN CTAB
M  V30 COUNTS 74 76 0 0 1
M  V30 BEGIN ATOM
M  V30 1 C 9.771303 7.093811 -8.871616 0
M  V30 2 O 15.851519 3.949782 -15.985053 0 CHG=-1
M  V30 3 C 12.914623 1.148234 -18.453665 0
M  V30 4 C 10.516871 7.376033 -9.953247 0
M  V30 5 C 10.592386 4.286433 -18.929016 0 CFG=2
M  V30 6 C 6.650819 5.523842 -17.144554 0
M  V30 7 C 7.091480 5.683727 -15.655680 0 CFG=2
M  V30 8 C 10.935313 4.867182 -20.312228 0
M  V30 9 C 12.001783 2.114347 -19.210039 0
M  V30 10 C 9.140172 5.448849 -11.564082 0
M  V30 11 C 11.010875 8.264021 -6.936484 0
M  V30 12 C 14.030542 3.156117 -17.303613 0 CFG=2
M  V30 13 F 10.834963 5.990231 -7.162406 0
M  V30 14 C 7.406645 4.352804 -14.920028 0
M  V30 15 C 11.694200 3.356597 -18.346138 0 CFG=1
M  V30 16 C 13.021505 4.078047 -18.038226 0
M  V30 17 C 6.759862 5.885427 -12.437385 0
M  V30 18 C 6.480519 6.998250 -13.453998 0
M  V30 19 C 12.570422 8.468185 -8.886079 0
M  V30 20 C 9.261234 3.550128 -18.978205 0
M  V30 21 C 6.987882 4.241834 -17.887313 0
M  V30 22 C 11.910589 7.853647 -9.912366 0
M  V30 23 F 10.692582 8.738215 -5.719888 0
M  V30 24 S 9.775329 7.157465 -11.549231 0
M  V30 25 O 15.901033 4.365684 -18.167867 0
M  V30 26 C 15.037880 0.772491 -17.201176 0
M  V30 27 C 12.058199 8.814149 -7.556454 0
M  V30 28 C 8.392451 4.558657 -13.784349 0
M  V30 29 C 15.374849 3.891565 -17.136632 0
M  V30 30 C 10.215069 7.128467 -7.456590 0 CFG=2
M  V30 31 C 8.113764 5.246471 -12.666522 0
M  V30 32 C 8.170916 3.995852 -18.399305 0
M  V30 33 C 14.246891 1.797590 -18.037380 0 CFG=1
M  V30 34 C 5.648904 7.838844 -15.638827 0
M  V30 35 C 6.051194 6.556318 -14.875329 0 CFG=1
M  V30 36 H 8.757807 6.755281 -9.021662 0
M  V30 37 H 12.388397 0.785336 -17.569489 0
M  V30 38 H 13.109565 0.271549 -19.072514 0
M  V30 39 H 10.481712 5.130943 -18.245243 0
M  V30 40 H 7.029242 6.369732 -17.720899 0
M  V30 41 H 5.565243 5.590267 -17.215503 0
M  V30 42 H 8.030262 6.236472 -15.682091 0
M  V30 43 H 10.142854 5.530707 -20.659617 0
M  V30 44 H 11.853065 5.453767 -20.285092 0
M  V30 45 H 11.057795 4.086103 -21.062154 0
M  V30 46 H 11.097511 1.573421 -19.479802 0
M  V30 47 H 12.476719 2.409625 -20.146075 0
M  V30 48 H 8.684075 5.191047 -10.609193 0
M  V30 49 H 9.982656 4.770122 -11.702918 0
M  V30 50 H 13.628827 2.948733 -16.311535 0
M  V30 51 H 6.494219 3.883954 -14.550870 0
M  V30 52 H 7.877860 3.620630 -15.572493 0
M  V30 53 H 11.308328 3.000220 -17.388817 0
M  V30 54 H 13.458413 4.441883 -18.968916 0
M  V30 55 H 12.828187 4.960390 -17.426300 0
M  V30 56 H 5.977677 5.126591 -12.468123 0
M  V30 57 H 6.730820 6.306610 -11.430803 0
M  V30 58 H 5.669723 7.590229 -13.030149 0
M  V30 59 H 7.341470 7.665981 -13.511854 0
M  V30 60 H 13.579637 8.790050 -9.101402 0
M  V30 61 H 9.248806 2.618596 -19.520908 0
M  V30 62 H 6.188773 3.522548 -17.985025 0
M  V30 63 H 12.467642 7.752987 -10.831362 0
M  V30 64 H 14.429420 0.389097 -16.384857 0
M  V30 65 H 15.336659 -0.081022 -17.810219 0
M  V30 66 H 15.934152 1.190187 -16.751450 0
M  V30 67 H 12.582124 9.590225 -7.021493 0
M  V30 68 H 9.374183 4.127905 -13.912954 0
M  V30 69 H 9.299071 7.107053 -6.863270 0
M  V30 70 H 14.813882 1.996377 -18.948654 0
M  V30 71 H 6.506073 8.495808 -15.788378 0
M  V30 72 H 5.202014 7.650820 -16.613252 0
M  V30 73 H 4.896008 8.390235 -15.078707 0
M  V30 74 H 5.145814 5.957282 -14.766681 0
M  V30 END ATOM
M  V30 BEGIN BOND
M  V30 1 2 4 1
M  V30 2 1 7 6
M  V30 3 1 8 5
M  V30 4 1 9 3
M  V30 5 1 14 7
M  V30 6 1 15 5
M  V30 7 1 15 9
M  V30 8 1 16 12
M  V30 9 1 16 15
M  V30 10 1 18 17
M  V30 11 1 20 5
M  V30 12 1 21 6
M  V30 13 1 22 4
M  V30 14 2 22 19
M  V30 15 1 23 11
M  V30 16 1 24 4
M  V30 17 1 24 10
M  V30 18 2 27 11
M  V30 19 1 27 19
M  V30 20 1 28 14
M  V30 21 1 29 2
M  V30 22 1 29 12
M  V30 23 2 29 25
M  V30 24 1 30 1
M  V30 25 1 30 11
M  V30 26 1 30 13
M  V30 27 1 31 10
M  V30 28 1 31 17
M  V30 29 2 31 28
M  V30 30 2 32 20
M  V30 31 2 32 21
M  V30 32 1 33 3
M  V30 33 1 33 12
M  V30 34 1 33 26
M  V30 35 1 35 7
M  V30 36 1 35 18
M  V30 37 1 35 34
M  V30 38 1 36 1
M  V30 39 1 37 3
M  V30 40 1 38 3
M  V30 41 1 5 39 CFG=1
M  V30 42 1 40 6
M  V30 43 1 41 6
M  V30 44 1 7 42 CFG=3
M  V30 45 1 43 8
M  V30 46 1 44 8
M  V30 47 1 45 8
M  V30 48 1 46 9
M  V30 49 1 47 9
M  V30 50 1 48 10
M  V30 51 1 49 10
M  V30 52 1 12 50 CFG=1
M  V30 53 1 51 14
M  V30 54 1 52 14
M  V30 55 1 15 53 CFG=1
M  V30 56 1 54 16
M  V30 57 1 55 16
M  V30 58 1 56 17
M  V30 59 1 57 17
M  V30 60 1 58 18
M  V30 61 1 59 18
M  V30 62 1 60 19
M  V30 63 1 61 20
M  V30 64 1 62 21
M  V30 65 1 63 22
M  V30 66 1 64 26
M  V30 67 1 65 26
M  V30 68 1 66 26
M  V30 69 1 67 27
M  V30 70 1 68 28
M  V30 71 1 30 69 CFG=1
M  V30 72 1 33 70 CFG=3
M  V30 73 1 71 34
M  V30 74 1 72 34
M  V30 75 1 73 34
M  V30 76 1 35 74 CFG=1
M  V30 END BOND
M  V30 END CTAB
M  END
>  <i_epik_Tot_Q>  (1) 
-1

>  <i_epik_Tot_abs_Q>  (1) 
1

>  <i_i_glide_confnum>  (1) 
204

>  <i_i_glide_lignum>  (1) 
115

>  <i_i_glide_posenum>  (1) 
305

>  <i_i_glide_rotatable_bonds>  (1) 
8

>  <i_lp_mmshare_version>  (1) 
72125

>  <i_m_source_file_index>  (1) 
41

>  <i_f3d_flags>  (1) 
0

>  <num_sample>  (1) 
50

>  <b_lp_Chiralities_Consistent>  (1) 
1

>  <r_epik_Charging_Adjusted_Penalty>  (1) 
0.0014684053483694905

>  <r_epik_Ionization_Penalty>  (1) 
0.0014684053483694905

>  <r_epik_Ionization_Penalty_Charging>  (1) 
0.0014684053483694905

>  <r_epik_Ionization_Penalty_Neutral>  (1) 
0

>  <r_epik_State_Penalty>  (1) 
-0

>  <r_glide_ring_energy>  (1) 
0

>  <r_i_docking_score>  (1) 
-5.6073025061505062

>  <r_i_glide_ecoul>  (1) 
-2.8093179002587507

>  <r_i_glide_eff_state_penalty>  (1) 
-0

>  <r_i_glide_einternal>  (1) 
10.013277522261534

>  <r_i_glide_emodel>  (1) 
-40.674773745852825

>  <r_i_glide_emodel_strain>  (1) 
1.8953433578920027

>  <r_i_glide_energy>  (1) 
-37.81840909114915

>  <r_i_glide_erotb>  (1) 
0.56810967558155767

>  <r_i_glide_esite>  (1) 
-0.019194814424750462

>  <r_i_glide_evdw>  (1) 
-35.009091190890402

>  <r_i_glide_gscore>  (1) 
-5.6073025061505062

>  <r_i_glide_gscore_strain>  (1) 
0

>  <r_i_glide_hbond>  (1) 
-0.067332890222595573

>  <r_i_glide_ligand_efficiency>  (1) 
-0.16020864303287161

>  <r_i_glide_ligand_efficiency_ln>  (1) 
-1.2309273474741131

>  <r_i_glide_ligand_efficiency_sa>  (1) 
-0.52405309482585627

>  <r_i_glide_lipo>  (1) 
-2.5824873979679488

>  <r_i_glide_metal>  (1) 
-0

>  <r_i_glide_rewards>  (1) 
-1.3345448345334363

>  <r_lp_Energy>  (1) 
5.7710229999999996

>  <r_lp_tautomer_probability>  (1) 
1

>  <s_epik_cmdline>  (1) 
J2VwaWtfcHl0aG9uJywgJy1waHQnLCAnMS4wJywgJy1waCcsICc3LjQnLCAnLXRuJywgJzgnLCAnLW1hJywgJzUwMCcsICctaW1hZScsICc8aW5maWxlLm1hZT4nLCAnLW9tYWUnLCAnPG91dGZpbGUubWFlPic=

>  <s_epik_input>  (1) 
W0NIXTE9W0NIXVtDSF09QyhGKVtDQEhdKEYpW0NIXT1DMVNbQ0gyXUMoW0NIMl1bQ0gyXVtDQEhdMltDSDNdKT1bQ0hdW0NIMl1bQ0BIXTJbQ0gyXVtDSF09Qz1bQ0hdW0NASF0oW0NIM10pW0NAQEhdKFtDSDJdW0NIMl1bQ0BASF0zW0NIM10pW0NIMl1bQ0BASF0zQyg9TylbT0hd

>  <s_glide_docking_method>  (1) 
confgen

>  <s_i_glide_gridfile>  (1) 
gpcr_drd2_6luq_protein_autoprepared_prepared

>  <s_lp_Force_Field>  (1) 
S-OPLS

>  <s_lp_Variant>  (1) 
DiffSBDD_40-1

>  <s_m_source_file>  (1) 
generated_generic_title2_ligand_DiffSBDD_2026-06-23_prepared.sdf

>  <GenAI_Model>  (1) 
DiffSBDD

>  <Protein>  (1) 
generic_title2

$$$$
DiffSBDD_45
     RDKit          3D

  0  0  0  0  0  0  0  0  0  0999 V3000
M  V30 BEGIN CTAB
M  V30 COUNTS 54 58 0 0 1
M  V30 BEGIN ATOM
M  V30 1 C 7.173520 6.264949 -13.955674 0
M  V30 2 C 11.775375 8.152599 -4.340863 0 CFG=1
M  V30 3 C 9.379167 4.986612 -8.452867 0
M  V30 4 C 9.294617 5.554086 -9.735180 0
M  V30 5 C 10.751615 7.320624 -5.083496 0
M  V30 6 C 9.901342 8.154481 -6.073539 0
M  V30 7 C 8.914157 6.002588 -12.121261 0
M  V30 8 C 8.446682 5.529838 -13.502026 0 CFG=1
M  V30 9 C 12.629176 9.190274 -5.022369 0 CFG=1
M  V30 10 C 9.785100 7.773949 -10.683856 0
M  V30 11 N 10.041713 7.007598 -8.246116 0
M  V30 12 C 12.024861 8.389512 -7.478931 0
M  V30 13 O 6.575466 -0.009721 -12.385050 0
M  V30 14 C 9.370290 7.333288 -11.949715 0
M  V30 15 O 5.821783 4.292098 -13.729871 0
M  V30 16 C 8.253647 4.003577 -13.699480 0
M  V30 17 C 12.553509 9.499499 -6.515699 0
M  V30 18 F 6.764908 1.938685 -15.057541 0
M  V30 19 C 5.925821 5.646814 -13.313180 0
M  V30 20 C 10.488545 8.187011 -7.495633 0 CFG=2
M  V30 21 C 9.740340 6.889585 -9.604479 0
M  V30 22 O 11.495598 9.550754 -4.214859 0
M  V30 23 C 6.577364 2.018414 -13.739014 0 CFG=1
M  V30 24 C 7.410882 0.903380 -13.075027 0
M  V30 25 C 6.870202 3.457706 -13.245098 0 CFG=2
M  V30 26 C 8.884761 5.120013 -11.014885 0
M  V30 27 N 9.845993 5.829617 -7.576960 0
M  V30 28 H 7.075646 6.180890 -15.038503 0
M  V30 29 H 7.229930 7.332045 -13.739451 0
M  V30 30 H 12.188747 7.692631 -3.445367 0
M  V30 31 H 9.120469 3.990215 -8.139904 0
M  V30 32 H 10.114040 6.790236 -4.385001 0
M  V30 33 H 11.286162 6.513666 -5.582023 0
M  V30 34 H 9.775482 9.176991 -5.728751 0
M  V30 35 H 8.882961 7.764573 -6.107068 0
M  V30 36 H 9.255099 5.817612 -14.171833 0
M  V30 37 H 13.572768 9.459313 -4.551063 0
M  V30 38 H 10.122325 8.787418 -10.540968 0
M  V30 39 H 12.523934 7.445256 -7.266035 0
M  V30 40 H 12.335022 8.643345 -8.493571 0
M  V30 41 H 6.103152 -0.548169 -13.009308 0
M  V30 42 H 9.391547 8.010461 -12.785014 0
M  V30 43 H 9.066959 3.448468 -13.232649 0
M  V30 44 H 8.345831 3.815705 -14.768929 0
M  V30 45 H 12.003494 10.429970 -6.656573 0
M  V30 46 H 13.590032 9.692881 -6.785050 0
M  V30 47 H 5.032835 6.177476 -13.640615 0
M  V30 48 H 5.958408 5.718626 -12.224668 0
M  V30 49 H 10.038526 9.042111 -7.999331 0
M  V30 50 H 5.516702 1.815182 -13.584955 0
M  V30 51 H 8.140109 1.322791 -12.384980 0
M  V30 52 H 7.985947 0.348802 -13.818177 0
M  V30 53 H 6.790311 3.459372 -12.158698 0
M  V30 54 H 8.540177 4.108521 -11.138004 0
M  V30 END ATOM
M  V30 BEGIN BOND
M  V30 1 1 4 3
M  V30 2 1 5 2
M  V30 3 1 6 5
M  V30 4 1 8 1
M  V30 5 1 8 7
M  V30 6 1 9 2
M  V30 7 1 14 7
M  V30 8 2 14 10
M  V30 9 1 16 8
M  V30 10 1 17 9
M  V30 11 1 17 12
M  V30 12 1 19 1
M  V30 13 1 19 15
M  V30 14 1 20 6
M  V30 15 1 20 11
M  V30 16 1 20 12
M  V30 17 2 21 4
M  V30 18 1 21 10
M  V30 19 1 21 11
M  V30 20 1 22 2
M  V30 21 1 22 9
M  V30 22 1 23 18
M  V30 23 1 24 13
M  V30 24 1 24 23
M  V30 25 1 25 15
M  V30 26 1 25 16
M  V30 27 1 25 23
M  V30 28 1 26 4
M  V30 29 2 26 7
M  V30 30 2 27 3
M  V30 31 1 27 11
M  V30 32 1 28 1
M  V30 33 1 29 1
M  V30 34 1 2 30 CFG=1
M  V30 35 1 31 3
M  V30 36 1 32 5
M  V30 37 1 33 5
M  V30 38 1 34 6
M  V30 39 1 35 6
M  V30 40 1 8 36 CFG=3
M  V30 41 1 9 37 CFG=1
M  V30 42 1 38 10
M  V30 43 1 39 12
M  V30 44 1 40 12
M  V30 45 1 41 13
M  V30 46 1 42 14
M  V30 47 1 43 16
M  V30 48 1 44 16
M  V30 49 1 45 17
M  V30 50 1 46 17
M  V30 51 1 47 19
M  V30 52 1 48 19
M  V30 53 1 20 49 CFG=3
M  V30 54 1 23 50 CFG=3
M  V30 55 1 51 24
M  V30 56 1 52 24
M  V30 57 1 25 53 CFG=1
M  V30 58 1 54 26
M  V30 END BOND
M  V30 END CTAB
M  END
>  <i_epik_Tot_Q>  (1) 
0

>  <i_epik_Tot_abs_Q>  (1) 
0

>  <i_i_glide_confnum>  (1) 
63

>  <i_i_glide_lignum>  (1) 
122

>  <i_i_glide_posenum>  (1) 
159

>  <i_i_glide_rotatable_bonds>  (1) 
5

>  <i_lp_mmshare_version>  (1) 
72125

>  <i_m_source_file_index>  (1) 
46

>  <i_f3d_flags>  (1) 
0

>  <num_sample>  (1) 
50

>  <b_lp_Chiralities_Consistent>  (1) 
1

>  <r_epik_Charging_Adjusted_Penalty>  (1) 
0

>  <r_epik_Ionization_Penalty>  (1) 
1.2822463511274088e-05

>  <r_epik_Ionization_Penalty_Charging>  (1) 
0

>  <r_epik_Ionization_Penalty_Neutral>  (1) 
1.2822463511274088e-05

>  <r_epik_State_Penalty>  (1) 
-0

>  <r_glide_ring_energy>  (1) 
0.77227948923304535

>  <r_i_docking_score>  (1) 
-5.5931847703826811

>  <r_i_glide_ecoul>  (1) 
-0.93865711749084568

>  <r_i_glide_eff_state_penalty>  (1) 
-0

>  <r_i_glide_einternal>  (1) 
2.1520674232737509

>  <r_i_glide_emodel>  (1) 
-38.033521836623841

>  <r_i_glide_emodel_strain>  (1) 
3.2005711445145124

>  <r_i_glide_energy>  (1) 
-36.656379935694204

>  <r_i_glide_erotb>  (1) 
0.55159765068717725

>  <r_i_glide_esite>  (1) 
-0.054769923502378581

>  <r_i_glide_evdw>  (1) 
-35.717722818203356

>  <r_i_glide_gscore>  (1) 
-5.5931847703826811

>  <r_i_glide_gscore_strain>  (1) 
0

>  <r_i_glide_hbond>  (1) 
-0.028560818984062021

>  <r_i_glide_ligand_efficiency>  (1) 
-0.20715499149565486

>  <r_i_glide_ligand_efficiency_ln>  (1) 
-1.3020012036874784

>  <r_i_glide_ligand_efficiency_sa>  (1) 
-0.62146497448696469

>  <r_i_glide_lipo>  (1) 
-2.4914988691759712

>  <r_i_glide_metal>  (1) 
-0

>  <r_i_glide_rewards>  (1) 
-1.6432681008736536

>  <r_lp_Energy>  (1) 
32.347338000000001

>  <r_lp_tautomer_probability>  (1) 
1

>  <s_epik_cmdline>  (1) 
J2VwaWtfcHl0aG9uJywgJy1waHQnLCAnMS4wJywgJy1waCcsICc3LjQnLCAnLXRuJywgJzgnLCAnLW1hJywgJzUwMCcsICctaW1hZScsICc8aW5maWxlLm1hZT4nLCAnLW9tYWUnLCAnPG91dGZpbGUubWFlPic=

>  <s_epik_input>  (1) 
W09IXVtDSDJdW0NASF0oRilbQ0BASF0oW0NIMl0xKU9bQ0gyXVtDSDJdW0NASF0xYyhbY0hdMilbY0hdW2NIXWMoYzIzKW4obltjSF0zKVtDQEBIXShbQ0gyXVtDSDJdNClbQ0gyXVtDSDJdW0NAQEhdKE81KVtDQEhdNDU=

>  <s_glide_docking_method>  (1) 
confgen

>  <s_i_glide_gridfile>  (1) 
gpcr_drd2_6luq_protein_autoprepared_prepared

>  <s_lp_Force_Field>  (1) 
S-OPLS

>  <s_lp_Variant>  (1) 
DiffSBDD_45-1

>  <s_m_source_file>  (1) 
generated_generic_title2_ligand_DiffSBDD_2026-06-23_prepared.sdf

>  <GenAI_Model>  (1) 
DiffSBDD

>  <Protein>  (1) 
generic_title2

$$$$
DiffSBDD_25
     RDKit          3D

  0  0  0  0  0  0  0  0  0  0999 V3000
M  V30 BEGIN CTAB
M  V30 COUNTS 43 45 0 0 1
M  V30 BEGIN ATOM
M  V30 1 C 7.912572 4.693590 -11.145306 0 CFG=1
M  V30 2 C 7.323415 6.022278 -14.681199 0
M  V30 3 C 6.283075 6.939319 -14.460323 0
M  V30 4 C 7.351216 5.473795 -12.295036 0
M  V30 5 N 8.975430 8.026549 -7.012041 0 CHG=1
M  V30 6 N 9.101960 6.652162 -10.121542 0
M  V30 7 C 6.304137 6.392820 -12.085615 0
M  V30 8 C 9.375293 4.334800 -11.146433 0
M  V30 9 C 10.512917 6.650673 -5.668084 0
M  V30 10 C 9.839705 6.844806 -7.041137 0 CFG=2
M  V30 11 C 10.391301 7.128815 -9.643274 0 CFG=1
M  V30 12 C 8.838156 5.236683 -10.067344 0 CFG=2
M  V30 13 C 5.775398 7.124225 -13.162427 0
M  V30 14 C 11.775888 8.994539 -9.184417 0
M  V30 15 C 11.915572 8.052840 -7.987503 0
M  V30 16 C 10.465433 8.603195 -9.847631 0
M  V30 17 C 7.857958 5.291307 -13.603727 0
M  V30 18 C 10.873644 6.921717 -8.184594 0 CFG=1
M  V30 19 H 7.168952 3.989754 -10.790319 0
M  V30 20 H 7.714230 5.879138 -15.677481 0
M  V30 21 H 5.873664 7.502414 -15.286334 0
M  V30 22 H 9.522638 8.869349 -6.939936 0
M  V30 23 H 8.422479 8.035708 -7.863238 0
M  V30 24 H 8.284230 7.190421 -9.801346 0
M  V30 25 H 5.906948 6.537910 -11.092473 0
M  V30 26 H 9.635769 3.321296 -10.855156 0
M  V30 27 H 10.036254 4.790392 -11.881817 0
M  V30 28 H 11.258010 5.855584 -5.702195 0
M  V30 29 H 11.015094 7.546593 -5.306848 0
M  V30 30 H 9.778164 6.370192 -4.912948 0
M  V30 31 H 9.191505 5.986132 -7.216330 0
M  V30 32 H 11.162235 6.790215 -10.327483 0
M  V30 33 H 8.744918 4.765490 -9.091631 0
M  V30 34 H 4.976347 7.829746 -12.991346 0
M  V30 35 H 12.606131 8.846223 -9.877066 0
M  V30 36 H 11.775394 10.040844 -8.892590 0
M  V30 37 H 12.927327 7.648149 -7.945779 0
M  V30 38 H 11.764793 8.620464 -7.070951 0
M  V30 39 H 10.464045 8.790219 -10.916199 0
M  V30 40 H 9.618878 9.128122 -9.404213 0
M  V30 41 H 8.658573 4.587315 -13.779312 0
M  V30 42 H 11.375377 5.962791 -8.155697 0
M  V30 43 H 8.327643 7.946819 -6.240864 0
M  V30 END ATOM
M  V30 BEGIN BOND
M  V30 1 2 3 2
M  V30 2 1 4 1
M  V30 3 1 7 4
M  V30 4 1 8 1
M  V30 5 1 10 5
M  V30 6 1 10 9
M  V30 7 1 11 6
M  V30 8 1 12 1
M  V30 9 1 12 6
M  V30 10 1 12 8
M  V30 11 1 13 3
M  V30 12 2 13 7
M  V30 13 1 15 14
M  V30 14 1 16 11
M  V30 15 1 16 14
M  V30 16 1 17 2
M  V30 17 2 17 4
M  V30 18 1 18 10
M  V30 19 1 18 11
M  V30 20 1 18 15
M  V30 21 1 1 19 CFG=1
M  V30 22 1 20 2
M  V30 23 1 21 3
M  V30 24 1 22 5
M  V30 25 1 23 5
M  V30 26 1 24 6
M  V30 27 1 25 7
M  V30 28 1 26 8
M  V30 29 1 27 8
M  V30 30 1 28 9
M  V30 31 1 29 9
M  V30 32 1 30 9
M  V30 33 1 10 31 CFG=3
M  V30 34 1 11 32 CFG=3
M  V30 35 1 12 33 CFG=1
M  V30 36 1 34 13
M  V30 37 1 35 14
M  V30 38 1 36 14
M  V30 39 1 37 15
M  V30 40 1 38 15
M  V30 41 1 39 16
M  V30 42 1 40 16
M  V30 43 1 41 17
M  V30 44 1 18 42 CFG=3
M  V30 45 1 43 5
M  V30 END BOND
M  V30 END CTAB
M  END
>  <i_epik_Tot_Q>  (1) 
1

>  <i_epik_Tot_abs_Q>  (1) 
1

>  <i_i_glide_confnum>  (1) 
90

>  <i_i_glide_lignum>  (1) 
74

>  <i_i_glide_posenum>  (1) 
320

>  <i_i_glide_rotatable_bonds>  (1) 
4

>  <i_lp_mmshare_version>  (1) 
72125

>  <i_m_source_file_index>  (1) 
26

>  <i_f3d_flags>  (1) 
0

>  <num_sample>  (1) 
50

>  <b_lp_Chiralities_Consistent>  (1) 
1

>  <r_epik_Charging_Adjusted_Penalty>  (1) 
0.70247939945427629

>  <r_epik_Ionization_Penalty>  (1) 
0.7024793994542764

>  <r_epik_Ionization_Penalty_Charging>  (1) 
0.00054833754919439773

>  <r_epik_Ionization_Penalty_Neutral>  (1) 
0.70193106190508203

>  <r_epik_State_Penalty>  (1) 
0.70193106190508192

>  <r_glide_ring_energy>  (1) 
0.7345034582077562

>  <r_i_docking_score>  (1) 
-5.5768155579832426

>  <r_i_glide_ecoul>  (1) 
-7.3980028721815732

>  <r_i_glide_eff_state_penalty>  (1) 
0.70193106190508192

>  <r_i_glide_einternal>  (1) 
30.618766346383822

>  <r_i_glide_emodel>  (1) 
-25.142679375505786

>  <r_i_glide_emodel_strain>  (1) 
1.0663892473567671

>  <r_i_glide_energy>  (1) 
-25.053012139729063

>  <r_i_glide_erotb>  (1) 
0.60703758372024064

>  <r_i_glide_esite>  (1) 
-0.079644401181441865

>  <r_i_glide_evdw>  (1) 
-17.655009267547491

>  <r_i_glide_gscore>  (1) 
-6.2787466198883246

>  <r_i_glide_gscore_strain>  (1) 
0

>  <r_i_glide_hbond>  (1) 
-0.33294033608136625

>  <r_i_glide_ligand_efficiency>  (1) 
-0.30982308655462459

>  <r_i_glide_ligand_efficiency_ln>  (1) 
-1.4334916828100441

>  <r_i_glide_ligand_efficiency_sa>  (1) 
-0.81196618781527052

>  <r_i_glide_lipo>  (1) 
-1.3147784585047813

>  <r_i_glide_metal>  (1) 
-0

>  <r_i_glide_rewards>  (1) 
-3.165970113636364

>  <r_lp_Energy>  (1) 
23.818217999999998

>  <s_epik_cmdline>  (1) 
J2VwaWtfcHl0aG9uJywgJy1waHQnLCAnMS4wJywgJy1waCcsICc3LjQnLCAnLXRuJywgJzgnLCAnLW1hJywgJzUwMCcsICctaW1hZScsICc8aW5maWxlLm1hZT4nLCAnLW9tYWUnLCAnPG91dGZpbGUubWFlPic=

>  <s_epik_input>  (1) 
W2NIXTFbY0hdW2NIXVtjSF1bY0hdYzFbQ0BIXTJbQ0gyXVtDQEhdMltOSF1bQ0BIXTNbQ0gyXVtDSDJdW0NIMl1bQ0BIXTNbQ0BIXShbTkgyXSlbQ0gzXQ==

>  <s_glide_docking_method>  (1) 
confgen

>  <s_i_glide_gridfile>  (1) 
gpcr_drd2_6luq_protein_autoprepared_prepared

>  <s_lp_Force_Field>  (1) 
S-OPLS

>  <s_lp_Variant>  (1) 
DiffSBDD_25-3

>  <s_m_source_file>  (1) 
generated_generic_title2_ligand_DiffSBDD_2026-06-23_prepared.sdf

>  <GenAI_Model>  (1) 
DiffSBDD

>  <Protein>  (1) 
generic_title2

$$$$
DiffSBDD_8
     RDKit          3D

  0  0  0  0  0  0  0  0  0  0999 V3000
M  V30 BEGIN CTAB
M  V30 COUNTS 69 72 0 0 1
M  V30 BEGIN ATOM
M  V30 1 N 6.022162 4.728635 -14.281794 0
M  V30 2 C 7.282735 5.872206 -17.521297 0
M  V30 3 C 6.961654 6.715752 -11.953414 0 CFG=1
M  V30 4 N 8.517372 3.925931 -16.841345 0
M  V30 5 O 9.030932 3.903158 -12.293319 0
M  V30 6 C 8.643513 5.359670 -7.994481 0
M  V30 7 F 9.377951 4.790191 -14.847613 0
M  V30 8 C 8.908269 6.338528 -6.835580 0
M  V30 9 N 8.575422 5.990226 -9.331919 0 CHG=1
M  V30 10 C 8.307463 5.020978 -10.414545 0 CFG=1
M  V30 11 C 8.818350 5.077564 -16.013149 0 CFG=2
M  V30 12 C 12.190260 8.274272 -9.838721 0
M  V30 13 C 7.233375 5.278787 -11.451244 0 CFG=2
M  V30 14 O 10.138624 5.856060 -11.762485 0
M  V30 15 O 9.786741 3.424805 -17.288974 0
M  V30 16 C 10.376247 6.433875 -6.378087 0
M  V30 17 C 6.926658 2.952033 -12.650502 0
M  V30 18 C 4.744080 4.550990 -13.585095 0
M  V30 19 C 7.074922 3.887773 -13.838537 0 CFG=2
M  V30 20 C 7.510705 5.871388 -15.997163 0 CFG=2
M  V30 21 C 6.138040 5.653646 -15.285686 0
M  V30 22 C 7.840350 7.934429 -11.782676 0
M  V30 23 C 9.506383 4.691738 -11.269549 0 CFG=2
M  V30 24 C 7.677997 4.250840 -12.503352 0 CFG=2
M  V30 25 O 10.792374 8.390208 -9.982817 0
M  V30 26 O 5.184515 6.348720 -15.635689 0
M  V30 27 C 12.574085 8.621722 -8.400148 0
M  V30 28 C 9.665897 2.016538 -17.359207 0
M  V30 29 C 7.885956 4.540538 -18.009990 0
M  V30 30 O 12.094015 7.571077 -7.585087 0
M  V30 31 C 11.012813 7.746873 -6.813707 0
M  V30 32 N 7.902758 7.136266 -12.978535 0
M  V30 33 O 10.549946 8.836672 -6.478525 0
M  V30 34 H 6.242355 5.953301 -17.836367 0
M  V30 35 H 7.800910 6.711720 -17.986051 0
M  V30 36 H 5.915195 6.904310 -12.183066 0
M  V30 37 H 9.375451 4.552918 -7.996942 0
M  V30 38 H 7.674242 4.891871 -7.824703 0
M  V30 39 H 8.324360 5.990237 -5.985352 0
M  V30 40 H 8.509571 7.325706 -7.065890 0
M  V30 41 H 7.823075 6.694261 -9.318785 0
M  V30 42 H 8.013183 4.077665 -9.958598 0
M  V30 43 H 9.583317 5.678974 -16.511031 0
M  V30 44 H 12.506481 7.264554 -10.095442 0
M  V30 45 H 12.680869 8.957653 -10.530867 0
M  V30 46 H 6.301308 4.950277 -10.991349 0
M  V30 47 H 9.507927 6.310623 -12.316443 0
M  V30 48 H 10.958255 5.590627 -6.750800 0
M  V30 49 H 10.426083 6.390159 -5.289505 0
M  V30 50 H 7.510050 2.032247 -12.699400 0
M  V30 51 H 5.987952 2.852190 -12.115414 0
M  V30 52 H 3.948083 5.163177 -13.985029 0
M  V30 53 H 4.403916 3.518126 -13.584781 0
M  V30 54 H 4.842714 4.828050 -12.542287 0
M  V30 55 H 7.608767 3.326215 -14.592648 0
M  V30 56 H 7.775367 6.824753 -15.585022 0
M  V30 57 H 7.362757 8.908503 -11.849304 0
M  V30 58 H 8.678308 7.889772 -11.101031 0
M  V30 59 H 10.175410 4.104070 -10.673827 0
M  V30 60 H 10.526873 9.243897 -9.675134 0
M  V30 61 H 13.660080 8.675092 -8.313541 0
M  V30 62 H 12.173536 9.590215 -8.109677 0
M  V30 63 H 10.627834 1.579745 -17.626831 0
M  V30 64 H 9.357147 1.591871 -16.401793 0
M  V30 65 H 8.940279 1.725844 -18.120910 0
M  V30 66 H 7.122198 3.871431 -18.406632 0
M  V30 67 H 8.610076 4.733185 -18.804076 0
M  V30 68 H 7.519053 7.567803 -13.809186 0
M  V30 69 H 9.439602 6.474477 -9.544851 0
M  V30 END ATOM
M  V30 BEGIN BOND
M  V30 1 1 8 6
M  V30 2 1 9 6
M  V30 3 1 10 9
M  V30 4 1 11 4
M  V30 5 1 11 7
M  V30 6 1 13 3
M  V30 7 1 13 10
M  V30 8 1 15 4
M  V30 9 1 16 8
M  V30 10 1 18 1
M  V30 11 1 19 1
M  V30 12 1 19 17
M  V30 13 1 20 2
M  V30 14 1 20 11
M  V30 15 1 21 1
M  V30 16 1 21 20
M  V30 17 1 22 3
M  V30 18 1 23 5
M  V30 19 1 23 10
M  V30 20 1 23 14
M  V30 21 1 24 5 CFG=3
M  V30 22 1 24 13
M  V30 23 1 24 17
M  V30 24 1 24 19
M  V30 25 1 25 12
M  V30 26 2 26 21
M  V30 27 1 27 12
M  V30 28 1 28 15
M  V30 29 1 29 2
M  V30 30 1 29 4
M  V30 31 1 30 27
M  V30 32 1 31 16
M  V30 33 1 31 30
M  V30 34 1 32 3
M  V30 35 1 32 22
M  V30 36 2 33 31
M  V30 37 1 34 2
M  V30 38 1 35 2
M  V30 39 1 3 36 CFG=3
M  V30 40 1 37 6
M  V30 41 1 38 6
M  V30 42 1 39 8
M  V30 43 1 40 8
M  V30 44 1 41 9
M  V30 45 1 10 42 CFG=1
M  V30 46 1 11 43 CFG=3
M  V30 47 1 44 12
M  V30 48 1 45 12
M  V30 49 1 13 46 CFG=1
M  V30 50 1 47 14
M  V30 51 1 48 16
M  V30 52 1 49 16
M  V30 53 1 50 17
M  V30 54 1 51 17
M  V30 55 1 52 18
M  V30 56 1 53 18
M  V30 57 1 54 18
M  V30 58 1 19 55 CFG=3
M  V30 59 1 20 56 CFG=1
M  V30 60 1 57 22
M  V30 61 1 58 22
M  V30 62 1 23 59 CFG=1
M  V30 63 1 60 25
M  V30 64 1 61 27
M  V30 65 1 62 27
M  V30 66 1 63 28
M  V30 67 1 64 28
M  V30 68 1 65 28
M  V30 69 1 66 29
M  V30 70 1 67 29
M  V30 71 1 68 32
M  V30 72 1 69 9
M  V30 END BOND
M  V30 END CTAB
M  END
>  <i_epik_Tot_Q>  (1) 
1

>  <i_epik_Tot_abs_Q>  (1) 
1

>  <i_i_glide_confnum>  (1) 
1980

>  <i_i_glide_lignum>  (1) 
34

>  <i_i_glide_posenum>  (1) 
61

>  <i_i_glide_rotatable_bonds>  (1) 
15

>  <i_lp_mmshare_version>  (1) 
72125

>  <i_m_source_file_index>  (1) 
9

>  <i_f3d_flags>  (1) 
0

>  <num_sample>  (1) 
50

>  <b_lp_Chiralities_Consistent>  (1) 
1

>  <r_epik_Charging_Adjusted_Penalty>  (1) 
0.31458683345696248

>  <r_epik_Ionization_Penalty>  (1) 
0.14300301403106822

>  <r_epik_Ionization_Penalty_Charging>  (1) 
0.065080964065447874

>  <r_epik_Ionization_Penalty_Neutral>  (1) 
0.077922049965620341

>  <r_epik_State_Penalty>  (1) 
0.24950586939151459

>  <r_glide_ring_energy>  (1) 
0

>  <r_i_docking_score>  (1) 
-5.5691728242565164

>  <r_i_glide_ecoul>  (1) 
-7.3940639245614737

>  <r_i_glide_eff_state_penalty>  (1) 
0.24950586939151459

>  <r_i_glide_einternal>  (1) 
85.865248718459185

>  <r_i_glide_emodel>  (1) 
-3.6988052270079947

>  <r_i_glide_emodel_strain>  (1) 
2.927752320936392

>  <r_i_glide_energy>  (1) 
-33.518219795077954

>  <r_i_glide_erotb>  (1) 
0.75193335839130926

>  <r_i_glide_esite>  (1) 
-0.091917219178972748

>  <r_i_glide_evdw>  (1) 
-26.124155870516482

>  <r_i_glide_gscore>  (1) 
-5.8186786936480308

>  <r_i_glide_gscore_strain>  (1) 
0

>  <r_i_glide_hbond>  (1) 
-0.16082296997556561

>  <r_i_glide_ligand_efficiency>  (1) 
-0.16876281285625808

>  <r_i_glide_ligand_efficiency_ln>  (1) 
-1.2385552004810152

>  <r_i_glide_ligand_efficiency_sa>  (1) 
-0.5413125158631088

>  <r_i_glide_lipo>  (1) 
-1.7404950606656624

>  <r_i_glide_metal>  (1) 
-0

>  <r_i_glide_rewards>  (1) 
-2.1620594200090939

>  <r_lp_Energy>  (1) 
39.880201

>  <s_epik_Chemistry_Notes>  (1) 
This compound has an ester and may undergo hydrolysis at high or low pH. This compound contains an acetal/aminal-like group ( X-CH(R)-Y where X, Y are N, S, or O) that may be acid/base labile, releasing an aldehyde. This compound has a N-S or N-O group and may undergo hydrolysis at high or low pH.

>  <s_epik_cmdline>  (1) 
J2VwaWtfcHl0aG9uJywgJy1waHQnLCAnMS4wJywgJy1waCcsICc3LjQnLCAnLXRuJywgJzgnLCAnLW1hJywgJzUwMCcsICctaW1hZScsICc8aW5maWxlLm1hZT4nLCAnLW9tYWUnLCAnPG91dGZpbGUubWFlPic=

>  <s_epik_input>  (1) 
W0NIM11PTjFbQ0BIXShGKVtDQEBIXShbQ0gyXVtDSDJdMSlDKD1PKU4oW0NIM10pW0NASF0yW0NIMl1DMjNPW0NAQEhdKFtPSF0pW0NASF0oW0NASF0zW0NASF00W0NIMl1bTkhdNClbTkhdW0NIMl1bQ0gyXVtDSDJdQyg9TylPW0NIMl1bQ0gyXVtPSF0=

>  <s_glide_docking_method>  (1) 
confgen

>  <s_i_glide_gridfile>  (1) 
gpcr_drd2_6luq_protein_autoprepared_prepared

>  <s_lp_Force_Field>  (1) 
S-OPLS

>  <s_lp_Variant>  (1) 
DiffSBDD_8-3

>  <s_m_source_file>  (1) 
generated_generic_title2_ligand_DiffSBDD_2026-06-23_prepared.sdf

>  <GenAI_Model>  (1) 
DiffSBDD

>  <Protein>  (1) 
generic_title2

$$$$
DiffSBDD_36
     RDKit          3D

  0  0  0  0  0  0  0  0  0  0999 V3000
M  V30 BEGIN CTAB
M  V30 COUNTS 34 34 0 0 1
M  V30 BEGIN ATOM
M  V30 1 C 12.449108 8.085680 -8.483208 0
M  V30 2 O 9.375399 4.560152 -11.269425 0
M  V30 3 C 8.520293 5.653287 -11.015650 0 CFG=1
M  V30 4 C 11.652948 9.011959 -5.182433 0
M  V30 5 O 11.045100 7.214022 -10.983083 0
M  V30 6 C 12.312337 8.790788 -3.833961 0 CFG=1
M  V30 7 O 11.775415 9.548493 -2.913795 0 CHG=-1
M  V30 8 C 10.998714 7.997739 -5.754823 0
M  V30 9 C 7.077852 5.154156 -10.872399 0
M  V30 10 S 10.136029 7.531402 -9.870285 0
M  V30 11 C 11.811365 10.390273 -5.809699 0
M  V30 12 N 8.975433 6.263607 -9.768494 0
M  V30 13 O 12.326140 6.704646 -2.559913 0
M  V30 14 C 10.278061 8.049898 -7.106584 0
M  V30 15 C 11.961285 7.297865 -3.575687 0
M  V30 16 S 10.975432 6.498194 -4.892036 0
M  V30 17 C 11.077661 7.421939 -8.275104 0 CFG=2
M  V30 18 O 9.382892 8.790216 -9.885771 0
M  V30 19 H 13.060974 8.038243 -7.585035 0
M  V30 20 H 13.007213 7.596887 -9.281969 0
M  V30 21 H 12.336366 9.135844 -8.755228 0
M  V30 22 H 9.900281 4.754533 -12.032622 0
M  V30 23 H 8.582015 6.378100 -11.828928 0
M  V30 24 H 13.375414 8.813616 -4.034004 0
M  V30 25 H 6.389559 5.983015 -10.704537 0
M  V30 26 H 6.750732 4.639005 -11.775602 0
M  V30 27 H 6.975298 4.460997 -10.036495 0
M  V30 28 H 11.375396 11.170763 -5.184688 0
M  V30 29 H 12.865654 10.602951 -5.984991 0
M  V30 30 H 11.375410 10.472792 -6.785077 0
M  V30 31 H 8.131997 6.692055 -9.349779 0
M  V30 32 H 9.951230 9.058212 -7.345548 0
M  V30 33 H 9.344582 7.495513 -6.995774 0
M  V30 34 H 11.227508 6.361101 -8.075573 0
M  V30 END ATOM
M  V30 BEGIN BOND
M  V30 1 1 3 2
M  V30 2 1 6 4
M  V30 3 1 7 6
M  V30 4 2 8 4
M  V30 5 1 9 3
M  V30 6 2 10 5
M  V30 7 1 11 4
M  V30 8 1 12 3
M  V30 9 1 12 10
M  V30 10 1 14 8
M  V30 11 1 15 6
M  V30 12 2 15 13
M  V30 13 1 16 8
M  V30 14 1 16 15
M  V30 15 1 17 1
M  V30 16 1 17 10
M  V30 17 1 17 14
M  V30 18 2 18 10
M  V30 19 1 19 1
M  V30 20 1 20 1
M  V30 21 1 21 1
M  V30 22 1 22 2
M  V30 23 1 3 23 CFG=3
M  V30 24 1 6 24 CFG=3
M  V30 25 1 25 9
M  V30 26 1 26 9
M  V30 27 1 27 9
M  V30 28 1 28 11
M  V30 29 1 29 11
M  V30 30 1 30 11
M  V30 31 1 31 12
M  V30 32 1 32 14
M  V30 33 1 33 14
M  V30 34 1 17 34 CFG=1
M  V30 END BOND
M  V30 END CTAB
M  END
>  <i_epik_Tot_Q>  (1) 
-1

>  <i_epik_Tot_abs_Q>  (1) 
1

>  <i_i_glide_confnum>  (1) 
27

>  <i_i_glide_lignum>  (1) 
99

>  <i_i_glide_posenum>  (1) 
190

>  <i_i_glide_rotatable_bonds>  (1) 
6

>  <i_lp_mmshare_version>  (1) 
72125

>  <i_m_source_file_index>  (1) 
37

>  <i_f3d_flags>  (1) 
0

>  <num_sample>  (1) 
50

>  <b_lp_Chiralities_Consistent>  (1) 
1

>  <r_epik_Charging_Adjusted_Penalty>  (1) 
0.051395495470861363

>  <r_epik_Ionization_Penalty>  (1) 
0.025821951155603234

>  <r_epik_Ionization_Penalty_Charging>  (1) 
0.025697747735430668

>  <r_epik_Ionization_Penalty_Neutral>  (1) 
0.00012420342017256702

>  <r_epik_State_Penalty>  (1) 
0.025697747735430692

>  <r_glide_ring_energy>  (1) 
0

>  <r_i_docking_score>  (1) 
-5.5554148078333085

>  <r_i_glide_ecoul>  (1) 
-4.8866592437465721

>  <r_i_glide_eff_state_penalty>  (1) 
0.025697747735430692

>  <r_i_glide_einternal>  (1) 
7.7079073906947908

>  <r_i_glide_emodel>  (1) 
-40.519573217221897

>  <r_i_glide_emodel_strain>  (1) 
0.39263467980585176

>  <r_i_glide_energy>  (1) 
-33.431033737158835

>  <r_i_glide_erotb>  (1) 
1.0552049389146296

>  <r_i_glide_esite>  (1) 
-0.31963303136764892

>  <r_i_glide_evdw>  (1) 
-28.544374493412263

>  <r_i_glide_gscore>  (1) 
-5.5811125555687395

>  <r_i_glide_gscore_strain>  (1) 
0

>  <r_i_glide_hbond>  (1) 
-0.16

>  <r_i_glide_ligand_efficiency>  (1) 
-0.30863415599073935

>  <r_i_glide_ligand_efficiency_ln>  (1) 
-1.4279907303351302

>  <r_i_glide_ligand_efficiency_sa>  (1) 
-0.80885030827165638

>  <r_i_glide_lipo>  (1) 
-1.8419822961180197

>  <r_i_glide_metal>  (1) 
-0

>  <r_i_glide_rewards>  (1) 
-2.1544845557651016

>  <r_lp_Energy>  (1) 
-5.848738

>  <s_epik_Chemistry_Notes>  (1) 
This compound contains an acetal/aminal-like group ( X-CH(R)-Y where X, Y are N, S, or O) that may be acid/base labile, releasing an aldehyde.

>  <s_epik_cmdline>  (1) 
J2VwaWtfcHl0aG9uJywgJy1waHQnLCAnMS4wJywgJy1waCcsICc3LjQnLCAnLXRuJywgJzgnLCAnLW1hJywgJzUwMCcsICctaW1hZScsICc8aW5maWxlLm1hZT4nLCAnLW9tYWUnLCAnPG91dGZpbGUubWFlPic=

>  <s_epik_input>  (1) 
W09IXVtDQEBIXShbQ0gzXSlbTkhdUyg9TykoPU8pW0NAQEhdKFtDSDNdKVtDSDJdQyg9QzFbQ0gzXSlTQyg9TylbQ0BASF0xW09IXQ==

>  <s_glide_docking_method>  (1) 
confgen

>  <s_i_glide_gridfile>  (1) 
gpcr_drd2_6luq_protein_autoprepared_prepared

>  <s_lp_Force_Field>  (1) 
S-OPLS

>  <s_lp_Variant>  (1) 
DiffSBDD_36-1

>  <s_m_source_file>  (1) 
generated_generic_title2_ligand_DiffSBDD_2026-06-23_prepared.sdf

>  <GenAI_Model>  (1) 
DiffSBDD

>  <Protein>  (1) 
generic_title2

$$$$
DiffSBDD_2
     RDKit          3D

  0  0  0  0  0  0  0  0  0  0999 V3000
M  V30 BEGIN CTAB
M  V30 COUNTS 61 63 0 0 1
M  V30 BEGIN ATOM
M  V30 1 C 9.641806 7.521376 -6.712687 0 CFG=1
M  V30 2 C 8.982325 6.192499 -10.957891 0
M  V30 3 C 10.418859 6.650926 -5.697165 0
M  V30 4 C 6.701320 1.359001 -14.743367 0
M  V30 5 N 5.775336 6.444439 -15.542828 0
M  V30 6 C 8.243934 5.731688 -12.205733 0 CFG=2
M  V30 7 C 11.144297 7.151389 -8.622893 0
M  V30 8 C 6.788153 5.344597 -12.123354 0 CFG=2
M  V30 9 C 5.268532 7.534264 -17.654357 0
M  V30 10 C 6.269803 5.652306 -14.657322 0
M  V30 11 C 5.954886 6.390227 -16.920114 0
M  V30 12 C 7.630218 3.579062 -13.778524 0 CFG=1
M  V30 13 C 8.987798 5.191209 -9.776059 0
M  V30 14 C 9.076589 5.732697 -8.333483 0
M  V30 15 C 7.800196 4.286773 -12.441807 0 CFG=1
M  V30 16 C 8.702128 5.106195 -15.482564 0
M  V30 17 C 11.629871 8.609077 -8.587427 0
M  V30 18 C 11.517532 9.190242 -7.174105 0
M  V30 19 O 6.575364 5.537248 -17.554745 0
M  V30 20 C 6.601420 2.428867 -13.643823 0
M  V30 21 C 7.346821 4.556185 -14.960062 0 CFG=2
M  V30 22 C 10.098017 8.985086 -6.622315 0
M  V30 23 N 9.749078 7.043717 -8.125652 0 CFG=1 CHG=1
M  V30 24 C 5.798454 5.726091 -13.201579 0
M  V30 25 H 8.585949 7.491335 -6.436283 0
M  V30 26 H 10.003396 6.390882 -11.276182 0
M  V30 27 H 8.575409 7.157242 -10.665735 0
M  V30 28 H 10.194630 6.953776 -4.678993 0
M  V30 29 H 10.159674 5.602569 -5.765644 0
M  V30 30 H 11.499548 6.711912 -5.811434 0
M  V30 31 H 5.984814 0.556115 -14.566020 0
M  V30 32 H 6.500515 1.758990 -15.736152 0
M  V30 33 H 7.694356 0.908916 -14.763339 0
M  V30 34 H 8.474611 6.367761 -13.054317 0
M  V30 35 H 11.775403 6.519007 -8.006623 0
M  V30 36 H 11.250800 6.790232 -9.637205 0
M  V30 37 H 6.350549 5.322299 -11.126905 0
M  V30 38 H 4.204584 7.323691 -17.767191 0
M  V30 39 H 5.699296 7.669311 -18.646508 0
M  V30 40 H 5.376831 8.465752 -17.099778 0
M  V30 41 H 8.575410 3.083078 -13.974388 0
M  V30 42 H 8.066589 4.611446 -9.773280 0
M  V30 43 H 9.775393 4.458186 -9.945076 0
M  V30 44 H 8.057868 5.837983 -7.959405 0
M  V30 45 H 9.536681 4.960048 -7.722355 0
M  V30 46 H 8.052886 3.590288 -11.650968 0
M  V30 47 H 8.603954 5.988301 -16.108512 0
M  V30 48 H 9.399250 5.358442 -14.686334 0
M  V30 49 H 9.203830 4.346951 -16.082696 0
M  V30 50 H 12.662004 8.672004 -8.933908 0
M  V30 51 H 11.037180 9.207160 -9.280868 0
M  V30 52 H 12.245370 8.719577 -6.516942 0
M  V30 53 H 11.775413 10.248575 -7.176086 0
M  V30 54 H 6.763292 1.916458 -12.694749 0
M  V30 55 H 5.587753 2.823038 -13.585078 0
M  V30 56 H 6.946134 3.941311 -15.762031 0
M  V30 57 H 10.069750 9.324773 -5.586865 0
M  V30 58 H 9.383367 9.589422 -7.185028 0
M  V30 59 H 5.431228 6.731119 -12.989767 0
M  V30 60 H 4.951043 5.054293 -13.106369 0
M  V30 61 H 9.187184 7.682285 -8.676418 0
M  V30 END ATOM
M  V30 BEGIN BOND
M  V30 1 1 3 1
M  V30 2 1 6 2
M  V30 3 1 8 6
M  V30 4 2 10 5
M  V30 5 1 11 5
M  V30 6 1 11 9
M  V30 7 1 13 2
M  V30 8 1 14 13
M  V30 9 1 15 6
M  V30 10 1 15 8
M  V30 11 1 15 12
M  V30 12 1 17 7
M  V30 13 1 18 17
M  V30 14 2 19 11
M  V30 15 1 20 4
M  V30 16 1 20 12
M  V30 17 1 21 10
M  V30 18 1 21 12
M  V30 19 1 21 16
M  V30 20 1 22 1
M  V30 21 1 22 18
M  V30 22 1 23 1
M  V30 23 1 23 7
M  V30 24 1 23 14
M  V30 25 1 24 8
M  V30 26 1 24 10
M  V30 27 1 1 25 CFG=1
M  V30 28 1 26 2
M  V30 29 1 27 2
M  V30 30 1 28 3
M  V30 31 1 29 3
M  V30 32 1 30 3
M  V30 33 1 31 4
M  V30 34 1 32 4
M  V30 35 1 33 4
M  V30 36 1 6 34 CFG=3
M  V30 37 1 35 7
M  V30 38 1 36 7
M  V30 39 1 8 37 CFG=1
M  V30 40 1 38 9
M  V30 41 1 39 9
M  V30 42 1 40 9
M  V30 43 1 12 41 CFG=3
M  V30 44 1 42 13
M  V30 45 1 43 13
M  V30 46 1 44 14
M  V30 47 1 45 14
M  V30 48 1 15 46 CFG=1
M  V30 49 1 47 16
M  V30 50 1 48 16
M  V30 51 1 49 16
M  V30 52 1 50 17
M  V30 53 1 51 17
M  V30 54 1 52 18
M  V30 55 1 53 18
M  V30 56 1 54 20
M  V30 57 1 55 20
M  V30 58 1 21 56 CFG=3
M  V30 59 1 57 22
M  V30 60 1 58 22
M  V30 61 1 59 24
M  V30 62 1 60 24
M  V30 63 1 23 61 CFG=3
M  V30 END BOND
M  V30 END CTAB
M  END
>  <i_epik_Tot_Q>  (1) 
1

>  <i_epik_Tot_abs_Q>  (1) 
1

>  <i_i_glide_confnum>  (1) 
167

>  <i_i_glide_lignum>  (1) 
23

>  <i_i_glide_posenum>  (1) 
318

>  <i_i_glide_rotatable_bonds>  (1) 
6

>  <i_lp_mmshare_version>  (1) 
72125

>  <i_m_source_file_index>  (1) 
3

>  <i_f3d_flags>  (1) 
0

>  <num_sample>  (1) 
50

>  <b_lp_Chiralities_Consistent>  (1) 
1

>  <r_epik_Charging_Adjusted_Penalty>  (1) 
0.0011657924221308697

>  <r_epik_Ionization_Penalty>  (1) 
0.0011657924221308697

>  <r_epik_Ionization_Penalty_Charging>  (1) 
0.0011657924221308697

>  <r_epik_Ionization_Penalty_Neutral>  (1) 
0

>  <r_epik_State_Penalty>  (1) 
-0

>  <r_glide_ring_energy>  (1) 
0

>  <r_i_docking_score>  (1) 
-5.5432743909107112

>  <r_i_glide_ecoul>  (1) 
-2.4985376951321161

>  <r_i_glide_eff_state_penalty>  (1) 
-0

>  <r_i_glide_einternal>  (1) 
11.255016827625564

>  <r_i_glide_emodel>  (1) 
-35.60211304607629

>  <r_i_glide_emodel_strain>  (1) 
4.1391447310308394

>  <r_i_glide_energy>  (1) 
-31.13682005395605

>  <r_i_glide_erotb>  (1) 
0.84713914833173298

>  <r_i_glide_esite>  (1) 
-0.07421773621052534

>  <r_i_glide_evdw>  (1) 
-28.638282358823936

>  <r_i_glide_gscore>  (1) 
-5.5432743909107112

>  <r_i_glide_gscore_strain>  (1) 
0.034786182757709838

>  <r_i_glide_hbond>  (1) 
-0.029822030036414222

>  <r_i_glide_ligand_efficiency>  (1) 
-0.2309697662879463

>  <r_i_glide_ligand_efficiency_ln>  (1) 
-1.3267599260321332

>  <r_i_glide_ligand_efficiency_sa>  (1) 
-0.66623209236558623

>  <r_i_glide_lipo>  (1) 
-1.945742362435273

>  <r_i_glide_metal>  (1) 
-0

>  <r_i_glide_rewards>  (1) 
-2.5687228211069266

>  <r_lp_Energy>  (1) 
47.613637999999995

>  <r_lp_tautomer_probability>  (1) 
1

>  <s_epik_Chemistry_Notes>  (1) 
This compound has an imine and may undergo hydrolysis.

>  <s_epik_cmdline>  (1) 
J2VwaWtfcHl0aG9uJywgJy1waHQnLCAnMS4wJywgJy1waCcsICc3LjQnLCAnLXRuJywgJzgnLCAnLW1hJywgJzUwMCcsICctaW1hZScsICc8aW5maWxlLm1hZT4nLCAnLW9tYWUnLCAnPG91dGZpbGUubWFlPic=

>  <s_epik_input>  (1) 
W0NIM11bQ0BIXTFbQ0gyXVtDSDJdW0NIMl1bQ0gyXU4xW0NIMl1bQ0gyXVtDSDJdW0NASF0yW0NAQEhdKFtDQEBIXTIzKVtDQEBIXShbQ0gyXVtDSDNdKVtDQEhdKFtDSDNdKS9DKFtDSDJdMyk9TlxDKD1PKVtDSDNd

>  <s_glide_docking_method>  (1) 
confgen

>  <s_i_glide_gridfile>  (1) 
gpcr_drd2_6luq_protein_autoprepared_prepared

>  <s_lp_Force_Field>  (1) 
S-OPLS

>  <s_lp_Variant>  (1) 
DiffSBDD_2-3

>  <s_m_source_file>  (1) 
generated_generic_title2_ligand_DiffSBDD_2026-06-23_prepared.sdf

>  <GenAI_Model>  (1) 
DiffSBDD

>  <Protein>  (1) 
generic_title2

$$$$
DiffSBDD_20
     RDKit          3D

  0  0  0  0  0  0  0  0  0  0999 V3000
M  V30 BEGIN CTAB
M  V30 COUNTS 72 74 0 0 1
M  V30 BEGIN ATOM
M  V30 1 C 6.016446 5.692311 -20.794760 0
M  V30 2 C 7.396037 2.314038 -13.339960 0
M  V30 3 C 7.366835 4.474585 -16.531694 0 CFG=1
M  V30 4 C 6.334517 4.507101 -20.261755 0
M  V30 5 C 6.222543 7.009582 -20.163134 0 CFG=1
M  V30 6 C 11.744697 9.155092 -8.847950 0
M  V30 7 C 9.196660 6.559728 -10.347805 0 CFG=1
M  V30 8 F 5.652356 7.953208 -20.911458 0
M  V30 9 C 9.443860 4.656755 -12.224989 0
M  V30 10 O 9.375416 8.790229 -8.685340 0
M  V30 11 C 8.405864 5.394037 -15.851878 0
M  V30 12 C 9.104928 5.068750 -10.758907 0 CFG=2
M  V30 13 C 10.793958 8.368320 -6.090098 0
M  V30 14 C 6.883397 4.254807 -18.916661 0
M  V30 15 C 6.777775 5.046759 -17.814989 0
M  V30 16 C 6.058645 6.338637 -17.747608 0
M  V30 17 C 10.575671 7.134619 -9.897424 0 CFG=2
M  V30 18 C 7.251281 1.914002 -15.998803 0
M  V30 19 N 9.060388 4.774393 -14.671482 0 CHG=1
M  V30 20 C 7.893072 1.599334 -14.624900 0
M  V30 21 C 9.624132 6.359964 -7.019640 0
M  V30 22 C 8.373990 4.828376 -13.356972 0 CFG=1
M  V30 23 O 7.804877 4.647881 -10.413549 0
M  V30 24 C 10.602276 8.117768 -8.685409 0 CFG=1
M  V30 25 S 7.675251 2.734029 -18.632712 0
M  V30 26 C 5.782718 7.169782 -18.761511 0
M  V30 27 C 10.724792 7.400430 -7.293797 0
M  V30 28 C 7.161463 3.843667 -13.290630 0
M  V30 29 C 7.907789 3.037726 -16.845352 0 CFG=1
M  V30 30 O 11.255753 7.590215 -11.047784 0
M  V30 31 N 8.575468 7.439683 -11.353600 0 CHG=1
M  V30 32 H 5.622884 5.715553 -21.801275 0
M  V30 33 H 8.056871 2.033418 -12.519970 0
M  V30 34 H 6.441157 1.853463 -13.082309 0
M  V30 35 H 6.494963 4.395896 -15.909813 0
M  V30 36 H 6.182555 3.640473 -20.891207 0
M  V30 37 H 7.287909 7.239509 -20.209039 0
M  V30 38 H 12.719170 8.666478 -8.865892 0
M  V30 39 H 11.775417 9.883759 -8.043250 0
M  V30 40 H 11.651463 9.740555 -9.760806 0
M  V30 41 H 8.575414 6.599783 -9.459593 0
M  V30 42 H 10.345627 5.206034 -12.499332 0
M  V30 43 H 9.752699 3.609730 -12.216935 0
M  V30 44 H 8.651135 8.187792 -8.554533 0
M  V30 45 H 9.194449 5.608212 -16.574303 0
M  V30 46 H 7.963992 6.351753 -15.573022 0
M  V30 47 H 9.775003 4.512682 -10.101746 0
M  V30 48 H 9.937348 9.042499 -6.068032 0
M  V30 49 H 11.701612 8.969738 -6.091384 0
M  V30 50 H 10.801755 7.819191 -5.147784 0
M  V30 51 H 5.720814 6.649724 -16.769735 0
M  V30 52 H 11.227011 6.390229 -9.505062 0
M  V30 53 H 7.354338 0.994217 -16.576329 0
M  V30 54 H 6.175520 2.042962 -15.909119 0
M  V30 55 H 9.250145 3.805984 -14.882575 0
M  V30 56 H 8.972023 1.590231 -14.693803 0
M  V30 57 H 7.681024 0.545090 -14.441284 0
M  V30 58 H 8.622943 6.782082 -7.116039 0
M  V30 59 H 9.702387 5.990272 -5.997957 0
M  V30 60 H 9.704680 5.497961 -7.681129 0
M  V30 61 H 7.969597 5.835387 -13.281328 0
M  V30 62 H 7.623359 4.855215 -9.506223 0
M  V30 63 H 5.243398 8.081872 -18.546050 0
M  V30 64 H 11.669369 6.852607 -7.287845 0
M  V30 65 H 6.375403 4.117812 -13.976994 0
M  V30 66 H 6.630516 4.021754 -12.362207 0
M  V30 67 H 8.987420 2.996896 -16.706157 0
M  V30 68 H 12.040212 8.038234 -10.763699 0
M  V30 69 H 9.260891 7.680777 -12.053707 0
M  V30 70 H 8.267423 8.266257 -10.854164 0
M  V30 71 H 9.955245 5.230677 -14.555531 0
M  V30 72 H 7.757113 6.990407 -11.733861 0
M  V30 END ATOM
M  V30 BEGIN BOND
M  V30 1 2 4 1
M  V30 2 1 5 1
M  V30 3 1 8 5
M  V30 4 1 11 3
M  V30 5 1 12 7
M  V30 6 1 12 9
M  V30 7 1 14 4
M  V30 8 1 15 3
M  V30 9 2 15 14
M  V30 10 1 16 15
M  V30 11 1 17 7
M  V30 12 1 19 11
M  V30 13 1 20 2
M  V30 14 1 20 18
M  V30 15 1 22 9
M  V30 16 1 22 19
M  V30 17 1 23 12
M  V30 18 1 24 6
M  V30 19 1 24 10 CFG=1
M  V30 20 1 24 17
M  V30 21 1 25 14
M  V30 22 1 26 5
M  V30 23 2 26 16
M  V30 24 1 27 13
M  V30 25 1 27 21
M  V30 26 1 27 24
M  V30 27 1 28 2
M  V30 28 1 28 22
M  V30 29 1 29 3
M  V30 30 1 29 18
M  V30 31 1 29 25
M  V30 32 1 30 17
M  V30 33 1 31 7
M  V30 34 1 32 1
M  V30 35 1 33 2
M  V30 36 1 34 2
M  V30 37 1 3 35 CFG=1
M  V30 38 1 36 4
M  V30 39 1 5 37 CFG=1
M  V30 40 1 38 6
M  V30 41 1 39 6
M  V30 42 1 40 6
M  V30 43 1 7 41 CFG=1
M  V30 44 1 42 9
M  V30 45 1 43 9
M  V30 46 1 44 10
M  V30 47 1 45 11
M  V30 48 1 46 11
M  V30 49 1 12 47 CFG=1
M  V30 50 1 48 13
M  V30 51 1 49 13
M  V30 52 1 50 13
M  V30 53 1 51 16
M  V30 54 1 17 52 CFG=1
M  V30 55 1 53 18
M  V30 56 1 54 18
M  V30 57 1 55 19
M  V30 58 1 56 20
M  V30 59 1 57 20
M  V30 60 1 58 21
M  V30 61 1 59 21
M  V30 62 1 60 21
M  V30 63 1 22 61 CFG=1
M  V30 64 1 62 23
M  V30 65 1 63 26
M  V30 66 1 64 27
M  V30 67 1 65 28
M  V30 68 1 66 28
M  V30 69 1 29 67 CFG=3
M  V30 70 1 68 30
M  V30 71 1 69 31
M  V30 72 1 70 31
M  V30 73 1 71 19
M  V30 74 1 72 31
M  V30 END BOND
M  V30 END CTAB
M  END
>  <i_epik_Tot_Q>  (1) 
2

>  <i_epik_Tot_abs_Q>  (1) 
2

>  <i_i_glide_confnum>  (1) 
79

>  <i_i_glide_lignum>  (1) 
64

>  <i_i_glide_posenum>  (1) 
183

>  <i_i_glide_rotatable_bonds>  (1) 
9

>  <i_lp_mmshare_version>  (1) 
72125

>  <i_m_source_file_index>  (1) 
21

>  <i_f3d_flags>  (1) 
0

>  <num_sample>  (1) 
50

>  <b_lp_Chiralities_Consistent>  (1) 
1

>  <r_epik_Charging_Adjusted_Penalty>  (1) 
0.28425092081310654

>  <r_epik_Ionization_Penalty>  (1) 
0.14293687999153612

>  <r_epik_Ionization_Penalty_Charging>  (1) 
0.14293530953308087

>  <r_epik_Ionization_Penalty_Neutral>  (1) 
1.5704584552406844e-06

>  <r_epik_State_Penalty>  (1) 
0.14131561128002565

>  <r_glide_ring_energy>  (1) 
0

>  <r_i_docking_score>  (1) 
-5.5367362941672109

>  <r_i_glide_ecoul>  (1) 
-9.324960542029487

>  <r_i_glide_eff_state_penalty>  (1) 
0.14131561128002565

>  <r_i_glide_einternal>  (1) 
9.5826073842273409

>  <r_i_glide_emodel>  (1) 
-44.590095022380808

>  <r_i_glide_emodel_strain>  (1) 
1.1015762800309119

>  <r_i_glide_energy>  (1) 
-32.624764424887616

>  <r_i_glide_erotb>  (1) 
0.38550374204318533

>  <r_i_glide_esite>  (1) 
-0.10000000000000001

>  <r_i_glide_evdw>  (1) 
-23.299803882858132

>  <r_i_glide_gscore>  (1) 
-5.6780519054472363

>  <r_i_glide_gscore_strain>  (1) 
0

>  <r_i_glide_hbond>  (1) 
-0.056073308079230569

>  <r_i_glide_ligand_efficiency>  (1) 
-0.17860439658603905

>  <r_i_glide_ligand_efficiency_ln>  (1) 
-1.2487037149242541

>  <r_i_glide_ligand_efficiency_sa>  (1) 
-0.56106439586742263

>  <r_i_glide_lipo>  (1) 
-2.3519305707372231

>  <r_i_glide_metal>  (1) 
-0

>  <r_i_glide_rewards>  (1) 
-0.99181749322663815

>  <r_lp_Energy>  (1) 
51.405214999999998

>  <s_epik_cmdline>  (1) 
J2VwaWtfcHl0aG9uJywgJy1waHQnLCAnMS4wJywgJy1waCcsICc3LjQnLCAnLXRuJywgJzgnLCAnLW1hJywgJzUwMCcsICctaW1hZScsICc8aW5maWxlLm1hZT4nLCAnLW9tYWUnLCAnPG91dGZpbGUubWFlPic=

>  <s_epik_input>  (1) 
W0NIXTE9W0NIXVtDQEhdKEYpW0NIXT1bQ0hdQyg9QzFbQ0BIXTIzKVNbQ0BASF0zW0NIMl1bQ0gyXVtDSDJdW0NIMl1bQ0BIXShbTkhdW0NIMl0yKVtDSDJdW0NASF0oW09IXSlbQ0BIXShbTkgyXSlbQ0BASF0oW09IXSlbQ0BAXShbQ0gzXSkoW09IXSlbQ0hdKFtDSDNdKVtDSDNd

>  <s_glide_docking_method>  (1) 
confgen

>  <s_i_glide_gridfile>  (1) 
gpcr_drd2_6luq_protein_autoprepared_prepared

>  <s_lp_Force_Field>  (1) 
S-OPLS

>  <s_lp_Variant>  (1) 
DiffSBDD_20-1

>  <s_m_source_file>  (1) 
generated_generic_title2_ligand_DiffSBDD_2026-06-23_prepared.sdf

>  <GenAI_Model>  (1) 
DiffSBDD

>  <Protein>  (1) 
generic_title2

$$$$
DiffSBDD_8
     RDKit          3D

  0  0  0  0  0  0  0  0  0  0999 V3000
M  V30 BEGIN CTAB
M  V30 COUNTS 70 73 0 0 1
M  V30 BEGIN ATOM
M  V30 1 N 7.375661 3.509527 -15.441812 0
M  V30 2 C 9.621973 5.393434 -17.782167 0
M  V30 3 C 6.928098 6.452172 -12.482181 0 CFG=1
M  V30 4 N 7.622391 5.982882 -18.911588 0
M  V30 5 O 8.846380 3.839061 -12.949068 0
M  V30 6 C 9.123568 5.609376 -8.716397 0
M  V30 7 F 6.375558 4.099980 -18.537534 0
M  V30 8 C 9.717775 6.839869 -8.020818 0
M  V30 9 N 8.575406 5.990247 -10.033890 0 CHG=1
M  V30 10 C 8.258805 4.875453 -10.945538 0 CFG=1
M  V30 11 C 7.619817 4.541725 -18.715744 0 CFG=2
M  V30 12 C 11.634726 9.525932 -3.313501 0
M  V30 13 C 7.071863 5.053905 -11.889327 0 CFG=2
M  V30 14 O 10.014162 5.749279 -12.384649 0
M  V30 15 O 7.183213 6.207473 -20.263505 0
M  V30 16 C 10.197117 6.555143 -6.585545 0
M  V30 17 C 6.806552 2.676502 -13.048427 0
M  V30 18 C 7.531533 2.139853 -15.950947 0
M  V30 19 C 6.664810 3.655112 -14.201647 0 CFG=1
M  V30 20 C 8.540163 4.334002 -17.495938 0 CFG=2
M  V30 21 C 7.813855 4.588767 -16.140318 0
M  V30 22 C 5.774664 6.804586 -13.379593 0
M  V30 23 C 9.407632 4.566800 -11.910625 0 CFG=2
M  V30 24 C 7.441692 4.046087 -12.962788 0 CFG=2
M  V30 25 O 10.975414 10.390232 -4.220848 0
M  V30 26 O 7.651054 5.741556 -15.735135 0
M  V30 27 C 12.293892 8.374773 -4.075308 0
M  V30 28 C 6.019313 7.014949 -20.194934 0
M  V30 29 C 9.049434 6.270907 -18.909116 0
M  V30 30 O 11.375707 7.481121 -4.709357 0
M  V30 31 C 10.973570 7.722650 -5.971554 0
M  V30 32 N 5.792290 7.207251 -11.985005 0 CHG=1
M  V30 33 O 11.192508 8.762606 -6.595292 0
M  V30 34 H 9.869288 5.990232 -16.904778 0
M  V30 35 H 10.553310 4.927941 -18.105014 0
M  V30 36 H 7.812625 7.081281 -12.547306 0
M  V30 37 H 9.893961 4.846040 -8.834899 0
M  V30 38 H 8.326769 5.176296 -8.110040 0
M  V30 39 H 8.974697 7.637754 -7.991099 0
M  V30 40 H 10.547814 7.213206 -8.623488 0
M  V30 41 H 7.762908 6.588116 -9.845674 0
M  V30 42 H 8.061701 3.990149 -10.352696 0
M  V30 43 H 8.019498 4.030241 -19.594077 0
M  V30 44 H 12.417126 10.067868 -2.787883 0
M  V30 45 H 10.976016 9.190261 -2.523653 0
M  V30 46 H 6.137868 4.753350 -11.410402 0
M  V30 47 H 10.714626 5.482412 -12.969680 0
M  V30 48 H 10.849075 5.681988 -6.581477 0
M  V30 49 H 9.346388 6.318651 -5.945978 0
M  V30 50 H 7.471008 1.821361 -13.158895 0
M  V30 51 H 5.916370 2.487214 -12.453670 0
M  V30 52 H 7.216585 2.053754 -16.990856 0
M  V30 53 H 8.567626 1.809755 -15.865367 0
M  V30 54 H 6.915743 1.427933 -15.402100 0
M  V30 55 H 5.675010 4.085751 -14.303262 0
M  V30 56 H 9.014180 3.355513 -17.533970 0
M  V30 57 H 5.851163 7.649635 -14.055412 0
M  V30 58 H 4.975415 6.090141 -13.546335 0
M  V30 59 H 10.175415 3.990215 -11.421092 0
M  V30 60 H 10.924167 9.955615 -5.064031 0
M  V30 61 H 13.002685 8.790600 -4.788883 0
M  V30 62 H 12.884224 7.784069 -3.374362 0
M  V30 63 H 5.677482 7.243050 -21.205107 0
M  V30 64 H 5.209540 6.498172 -19.677593 0
M  V30 65 H 6.209253 7.961925 -19.688045 0
M  V30 66 H 9.244896 7.333951 -18.785077 0
M  V30 67 H 9.490006 5.968447 -19.861831 0
M  V30 68 H 5.180148 6.702580 -11.360155 0
M  V30 69 H 9.257867 6.558183 -10.518615 0
M  V30 70 H 6.014481 8.170429 -11.772962 0
M  V30 END ATOM
M  V30 BEGIN BOND
M  V30 1 1 8 6
M  V30 2 1 9 6
M  V30 3 1 10 9
M  V30 4 1 11 4
M  V30 5 1 11 7
M  V30 6 1 13 3
M  V30 7 1 13 10
M  V30 8 1 15 4
M  V30 9 1 16 8
M  V30 10 1 18 1
M  V30 11 1 19 1
M  V30 12 1 19 17
M  V30 13 1 20 2
M  V30 14 1 20 11
M  V30 15 1 21 1
M  V30 16 1 21 20
M  V30 17 1 22 3
M  V30 18 1 23 5
M  V30 19 1 23 10
M  V30 20 1 23 14
M  V30 21 1 24 5 CFG=3
M  V30 22 1 24 13
M  V30 23 1 24 17
M  V30 24 1 24 19
M  V30 25 1 25 12
M  V30 26 2 26 21
M  V30 27 1 27 12
M  V30 28 1 28 15
M  V30 29 1 29 2
M  V30 30 1 29 4
M  V30 31 1 30 27
M  V30 32 1 31 16
M  V30 33 1 31 30
M  V30 34 1 32 3
M  V30 35 1 32 22
M  V30 36 2 33 31
M  V30 37 1 34 2
M  V30 38 1 35 2
M  V30 39 1 3 36 CFG=3
M  V30 40 1 37 6
M  V30 41 1 38 6
M  V30 42 1 39 8
M  V30 43 1 40 8
M  V30 44 1 41 9
M  V30 45 1 10 42 CFG=1
M  V30 46 1 11 43 CFG=3
M  V30 47 1 44 12
M  V30 48 1 45 12
M  V30 49 1 13 46 CFG=1
M  V30 50 1 47 14
M  V30 51 1 48 16
M  V30 52 1 49 16
M  V30 53 1 50 17
M  V30 54 1 51 17
M  V30 55 1 52 18
M  V30 56 1 53 18
M  V30 57 1 54 18
M  V30 58 1 19 55 CFG=3
M  V30 59 1 20 56 CFG=1
M  V30 60 1 57 22
M  V30 61 1 58 22
M  V30 62 1 23 59 CFG=1
M  V30 63 1 60 25
M  V30 64 1 61 27
M  V30 65 1 62 27
M  V30 66 1 63 28
M  V30 67 1 64 28
M  V30 68 1 65 28
M  V30 69 1 66 29
M  V30 70 1 67 29
M  V30 71 1 68 32
M  V30 72 1 69 9
M  V30 73 1 70 32
M  V30 END BOND
M  V30 END CTAB
M  END
>  <i_epik_Tot_Q>  (1) 
2

>  <i_epik_Tot_abs_Q>  (1) 
2

>  <i_i_glide_confnum>  (1) 
2606

>  <i_i_glide_lignum>  (1) 
40

>  <i_i_glide_posenum>  (1) 
314

>  <i_i_glide_rotatable_bonds>  (1) 
15

>  <i_lp_mmshare_version>  (1) 
72125

>  <i_m_source_file_index>  (1) 
9

>  <i_f3d_flags>  (1) 
0

>  <num_sample>  (1) 
50

>  <b_lp_Chiralities_Consistent>  (1) 
1

>  <r_epik_Charging_Adjusted_Penalty>  (1) 
2.8797985042560583

>  <r_epik_Ionization_Penalty>  (1) 
1.6442763990741283

>  <r_epik_Ionization_Penalty_Charging>  (1) 
1.6439676131770962

>  <r_epik_Ionization_Penalty_Neutral>  (1) 
0.00030878589703216643

>  <r_epik_State_Penalty>  (1) 
1.2358308910789622

>  <r_glide_ring_energy>  (1) 
0

>  <r_i_docking_score>  (1) 
-5.5347657566256387

>  <r_i_glide_ecoul>  (1) 
-12.073886280471159

>  <r_i_glide_eff_state_penalty>  (1) 
1.2358308910789622

>  <r_i_glide_einternal>  (1) 
9.6124693095412539

>  <r_i_glide_emodel>  (1) 
-68.02002586869564

>  <r_i_glide_emodel_strain>  (1) 
1.9665728343068594

>  <r_i_glide_energy>  (1) 
-46.812056369964957

>  <r_i_glide_erotb>  (1) 
1.0700444368793263

>  <r_i_glide_esite>  (1) 
-0.18457426659679729

>  <r_i_glide_evdw>  (1) 
-34.738170089493799

>  <r_i_glide_gscore>  (1) 
-6.7705966477046013

>  <r_i_glide_gscore_strain>  (1) 
0

>  <r_i_glide_hbond>  (1) 
-0.44333847639569662

>  <r_i_glide_ligand_efficiency>  (1) 
-0.16772017444320117

>  <r_i_glide_ligand_efficiency_ln>  (1) 
-1.2309032467901697

>  <r_i_glide_ligand_efficiency_sa>  (1) 
-0.53796821735945644

>  <r_i_glide_lipo>  (1) 
-1.7982335796024027

>  <r_i_glide_metal>  (1) 
-0

>  <r_i_glide_rewards>  (1) 
-1.866503315443667

>  <r_lp_Energy>  (1) 
49.698582999999999

>  <s_epik_Chemistry_Notes>  (1) 
This compound has an ester and may undergo hydrolysis at high or low pH. This compound contains an acetal/aminal-like group ( X-CH(R)-Y where X, Y are N, S, or O) that may be acid/base labile, releasing an aldehyde. This compound has a N-S or N-O group and may undergo hydrolysis at high or low pH.

>  <s_epik_cmdline>  (1) 
J2VwaWtfcHl0aG9uJywgJy1waHQnLCAnMS4wJywgJy1waCcsICc3LjQnLCAnLXRuJywgJzgnLCAnLW1hJywgJzUwMCcsICctaW1hZScsICc8aW5maWxlLm1hZT4nLCAnLW9tYWUnLCAnPG91dGZpbGUubWFlPic=

>  <s_epik_input>  (1) 
W0NIM11PTjFbQ0BIXShGKVtDQEBIXShbQ0gyXVtDSDJdMSlDKD1PKU4oW0NIM10pW0NASF0yW0NIMl1DMjNPW0NAQEhdKFtPSF0pW0NASF0oW0NASF0zW0NASF00W0NIMl1bTkhdNClbTkhdW0NIMl1bQ0gyXVtDSDJdQyg9TylPW0NIMl1bQ0gyXVtPSF0=

>  <s_glide_docking_method>  (1) 
confgen

>  <s_i_glide_gridfile>  (1) 
gpcr_drd2_6luq_protein_autoprepared_prepared

>  <s_lp_Force_Field>  (1) 
S-OPLS

>  <s_lp_Variant>  (1) 
DiffSBDD_8-9

>  <s_m_source_file>  (1) 
generated_generic_title2_ligand_DiffSBDD_2026-06-23_prepared.sdf

>  <GenAI_Model>  (1) 
DiffSBDD

>  <Protein>  (1) 
generic_title2

$$$$
DiffSBDD_3
     RDKit          3D

  0  0  0  0  0  0  0  0  0  0999 V3000
M  V30 BEGIN CTAB
M  V30 COUNTS 27 27 0 0 1
M  V30 BEGIN ATOM
M  V30 1 C 10.681599 8.147808 -6.357273 0
M  V30 2 C 10.907381 6.947485 -5.630808 0
M  V30 3 C 11.960292 8.292059 -3.902839 0
M  V30 4 C 9.071890 5.833597 -11.062042 0
M  V30 5 C 8.286688 5.055005 -8.695828 0
M  V30 6 N 11.775410 9.432323 -4.601702 0
M  V30 7 C 8.852132 4.672609 -10.081029 0
M  V30 8 Cl 12.706744 8.390161 -2.355023 0
M  V30 9 C 11.551665 7.031420 -4.385025 0
M  V30 10 N 9.375410 7.221680 -8.289061 0 CHG=1
M  V30 11 C 9.234547 5.856096 -7.791261 0
M  V30 12 C 9.971200 8.224417 -7.692537 0
M  V30 13 C 11.146708 9.354323 -5.792531 0
M  V30 14 H 10.606035 5.995271 -5.985771 0
M  V30 15 H 9.309209 5.450738 -12.055249 0
M  V30 16 H 8.176520 6.449888 -11.155014 0
M  V30 17 H 9.903838 6.470021 -10.764014 0
M  V30 18 H 8.013812 4.146083 -8.159502 0
M  V30 19 H 7.350088 5.590226 -8.825938 0
M  V30 20 H 9.775410 4.106242 -9.963886 0
M  V30 21 H 8.144511 3.990228 -10.551501 0
M  V30 22 H 11.724010 6.139921 -3.798993 0
M  V30 23 H 10.215341 5.379415 -7.806977 0
M  V30 24 H 8.787716 5.908746 -6.797214 0
M  V30 25 H 9.938201 9.190227 -8.179003 0
M  V30 26 H 10.998625 10.290632 -6.310488 0
M  V30 27 H 8.858920 7.426595 -9.151928 0
M  V30 END ATOM
M  V30 BEGIN BOND
M  V30 1 1 2 1
M  V30 2 2 6 3
M  V30 3 1 7 4
M  V30 4 1 7 5
M  V30 5 1 8 3
M  V30 6 2 9 2
M  V30 7 1 9 3
M  V30 8 1 11 5
M  V30 9 1 11 10
M  V30 10 1 12 1
M  V30 11 2 12 10
M  V30 12 2 13 1
M  V30 13 1 13 6
M  V30 14 1 14 2
M  V30 15 1 15 4
M  V30 16 1 16 4
M  V30 17 1 17 4
M  V30 18 1 18 5
M  V30 19 1 19 5
M  V30 20 1 20 7
M  V30 21 1 21 7
M  V30 22 1 22 9
M  V30 23 1 23 11
M  V30 24 1 24 11
M  V30 25 1 25 12
M  V30 26 1 26 13
M  V30 27 1 27 10
M  V30 END BOND
M  V30 END CTAB
M  END
>  <i_epik_Tot_Q>  (1) 
1

>  <i_epik_Tot_abs_Q>  (1) 
1

>  <i_i_glide_confnum>  (1) 
5

>  <i_i_glide_lignum>  (1) 
26

>  <i_i_glide_posenum>  (1) 
197

>  <i_i_glide_rotatable_bonds>  (1) 
4

>  <i_lp_mmshare_version>  (1) 
72125

>  <i_m_source_file_index>  (1) 
4

>  <i_f3d_flags>  (1) 
0

>  <num_sample>  (1) 
50

>  <b_lp_Chiralities_Consistent>  (1) 
1

>  <r_epik_Charging_Adjusted_Penalty>  (1) 
0.029699158874294952

>  <r_epik_Ionization_Penalty>  (1) 
0.014849585528506534

>  <r_epik_Ionization_Penalty_Charging>  (1) 
0.014849579437147471

>  <r_epik_Ionization_Penalty_Neutral>  (1) 
6.091359062829099e-09

>  <r_epik_State_Penalty>  (1) 
0.01484957943714748

>  <r_glide_ring_energy>  (1) 
0

>  <r_i_docking_score>  (1) 
-5.5242252793875437

>  <r_i_glide_ecoul>  (1) 
-4.1245186001193206

>  <r_i_glide_eff_state_penalty>  (1) 
0.01484957943714748

>  <r_i_glide_einternal>  (1) 
4.0824607614088197

>  <r_i_glide_emodel>  (1) 
-40.543256136388933

>  <r_i_glide_emodel_strain>  (1) 
0.3491633770590532

>  <r_i_glide_energy>  (1) 
-29.173415081552182

>  <r_i_glide_erotb>  (1) 
0.83262420793162661

>  <r_i_glide_esite>  (1) 
-0.1279160900759134

>  <r_i_glide_evdw>  (1) 
-25.048896481432863

>  <r_i_glide_gscore>  (1) 
-5.5390748588246908

>  <r_i_glide_gscore_strain>  (1) 
0

>  <r_i_glide_hbond>  (1) 
-0.11519257913272452

>  <r_i_glide_ligand_efficiency>  (1) 
-0.42494040610673411

>  <r_i_glide_ligand_efficiency_ln>  (1) 
-1.5495943211157233

>  <r_i_glide_ligand_efficiency_sa>  (1) 
-0.99917711709290968

>  <r_i_glide_lipo>  (1) 
-1.7389857206956674

>  <r_i_glide_metal>  (1) 
-0

>  <r_i_glide_rewards>  (1) 
-2.5184820627624709

>  <r_lp_Energy>  (1) 
25.723572999999998

>  <s_epik_Chemistry_Notes>  (1) 
This compound has an imine and may undergo hydrolysis.

>  <s_epik_cmdline>  (1) 
J2VwaWtfcHl0aG9uJywgJy1waHQnLCAnMS4wJywgJy1waCcsICc3LjQnLCAnLXRuJywgJzgnLCAnLW1hJywgJzUwMCcsICctaW1hZScsICc8aW5maWxlLm1hZT4nLCAnLW9tYWUnLCAnPG91dGZpbGUubWFlPic=

>  <s_epik_input>  (1) 
W2NIXTFuYyhDbClbY0hdW2NIXWMxL1tDSF09TlxbQ0gyXVtDSDJdW0NIMl1bQ0gzXQ==

>  <s_glide_docking_method>  (1) 
confgen

>  <s_i_glide_gridfile>  (1) 
gpcr_drd2_6luq_protein_autoprepared_prepared

>  <s_lp_Force_Field>  (1) 
S-OPLS

>  <s_lp_Variant>  (1) 
DiffSBDD_3-2

>  <s_m_source_file>  (1) 
generated_generic_title2_ligand_DiffSBDD_2026-06-23_prepared.sdf

>  <GenAI_Model>  (1) 
DiffSBDD

>  <Protein>  (1) 
generic_title2

$$$$
DiffSBDD_2
     RDKit          3D

  0  0  0  0  0  0  0  0  0  0999 V3000
M  V30 BEGIN CTAB
M  V30 COUNTS 61 63 0 0 1
M  V30 BEGIN ATOM
M  V30 1 C 9.609048 6.960364 -10.637901 0 CFG=1
M  V30 2 C 6.000953 4.640225 -12.734114 0
M  V30 3 C 9.065904 7.863017 -11.765640 0
M  V30 4 C 3.511634 7.553653 -17.085431 0
M  V30 5 N 7.298089 3.762085 -18.143304 0
M  V30 6 C 6.303691 4.832804 -14.217636 0 CFG=2
M  V30 7 C 8.974809 5.236812 -8.935197 0
M  V30 8 C 7.599667 5.336840 -14.792400 0 CFG=2
M  V30 9 C 7.479953 1.468837 -18.932011 0
M  V30 10 C 7.375371 4.711650 -17.278341 0
M  V30 11 C 8.095465 2.625047 -18.151115 0
M  V30 12 C 5.650439 6.338865 -16.274474 0 CFG=1
M  V30 13 C 6.662819 5.590399 -11.719866 0
M  V30 14 C 8.030803 5.096767 -11.211439 0
M  V30 15 C 6.343607 6.186669 -14.917410 0 CFG=1
M  V30 16 C 5.924229 6.130408 -18.844300 0
M  V30 17 C 9.412229 6.171323 -7.797967 0
M  V30 18 C 10.556799 7.066059 -8.263130 0
M  V30 19 O 9.198241 2.491848 -17.616419 0
M  V30 20 C 4.878486 7.677134 -16.379121 0
M  V30 21 C 6.611694 6.034472 -17.463262 0 CFG=2
M  V30 22 C 10.118231 7.864450 -9.492146 0
M  V30 23 N 8.575413 5.990226 -10.154428 0 CFG=2 CHG=1
M  V30 24 C 8.216294 4.631299 -15.988765 0
M  V30 25 H 10.453737 6.390342 -11.026030 0
M  V30 26 H 4.923336 4.732955 -12.629028 0
M  V30 27 H 6.222690 3.605638 -12.468920 0
M  V30 28 H 9.775409 8.636559 -12.042636 0
M  V30 29 H 8.853283 7.308656 -12.675606 0
M  V30 30 H 8.153254 8.376670 -11.462416 0
M  V30 31 H 2.864731 8.390178 -16.829962 0
M  V30 32 H 3.598761 7.535288 -18.169870 0
M  V30 33 H 2.976941 6.652771 -16.785065 0
M  V30 34 H 5.849641 4.027516 -14.784960 0
M  V30 35 H 8.128147 4.642419 -8.588100 0
M  V30 36 H 9.775273 4.537653 -9.182031 0
M  V30 37 H 8.341717 5.678344 -14.080918 0
M  V30 38 H 7.448482 1.704993 -19.996174 0
M  V30 39 H 6.461736 1.273904 -18.592334 0
M  V30 40 H 8.063180 0.556882 -18.801020 0
M  V30 41 H 4.873101 5.590224 -16.289611 0
M  V30 42 H 6.709297 6.602313 -12.115157 0
M  V30 43 H 6.003652 5.659854 -10.852595 0
M  V30 44 H 7.894903 4.091340 -10.811473 0
M  V30 45 H 8.751539 4.979018 -12.020078 0
M  V30 46 H 6.335108 7.077106 -14.292795 0
M  V30 47 H 6.609381 5.873985 -19.652993 0
M  V30 48 H 5.062704 5.464905 -18.913387 0
M  V30 49 H 5.592508 7.146164 -19.052540 0
M  V30 50 H 8.575402 6.788350 -7.471663 0
M  V30 51 H 9.723436 5.590515 -6.929978 0
M  V30 52 H 10.868502 7.737965 -7.462689 0
M  V30 53 H 11.412145 6.446270 -8.513342 0
M  V30 54 H 4.668913 8.054967 -15.378537 0
M  V30 55 H 5.492726 8.444186 -16.850315 0
M  V30 56 H 7.375383 6.800366 -17.477414 0
M  V30 57 H 9.337359 8.566500 -9.197959 0
M  V30 58 H 10.950731 8.474615 -9.843865 0
M  V30 59 H 8.367095 3.604664 -15.661454 0
M  V30 60 H 9.197584 5.063096 -16.187288 0
M  V30 61 H 7.804672 6.596007 -9.849617 0
M  V30 END ATOM
M  V30 BEGIN BOND
M  V30 1 1 3 1
M  V30 2 1 6 2
M  V30 3 1 8 6
M  V30 4 2 10 5
M  V30 5 1 11 5
M  V30 6 1 11 9
M  V30 7 1 13 2
M  V30 8 1 14 13
M  V30 9 1 15 6
M  V30 10 1 15 8
M  V30 11 1 15 12
M  V30 12 1 17 7
M  V30 13 1 18 17
M  V30 14 2 19 11
M  V30 15 1 20 4
M  V30 16 1 20 12
M  V30 17 1 21 10
M  V30 18 1 21 12
M  V30 19 1 21 16
M  V30 20 1 22 1
M  V30 21 1 22 18
M  V30 22 1 23 1
M  V30 23 1 23 7
M  V30 24 1 23 14
M  V30 25 1 24 8
M  V30 26 1 24 10
M  V30 27 1 1 25 CFG=3
M  V30 28 1 26 2
M  V30 29 1 27 2
M  V30 30 1 28 3
M  V30 31 1 29 3
M  V30 32 1 30 3
M  V30 33 1 31 4
M  V30 34 1 32 4
M  V30 35 1 33 4
M  V30 36 1 6 34 CFG=3
M  V30 37 1 35 7
M  V30 38 1 36 7
M  V30 39 1 8 37 CFG=1
M  V30 40 1 38 9
M  V30 41 1 39 9
M  V30 42 1 40 9
M  V30 43 1 12 41 CFG=1
M  V30 44 1 42 13
M  V30 45 1 43 13
M  V30 46 1 44 14
M  V30 47 1 45 14
M  V30 48 1 15 46 CFG=1
M  V30 49 1 47 16
M  V30 50 1 48 16
M  V30 51 1 49 16
M  V30 52 1 50 17
M  V30 53 1 51 17
M  V30 54 1 52 18
M  V30 55 1 53 18
M  V30 56 1 54 20
M  V30 57 1 55 20
M  V30 58 1 21 56 CFG=3
M  V30 59 1 57 22
M  V30 60 1 58 22
M  V30 61 1 59 24
M  V30 62 1 60 24
M  V30 63 1 23 61 CFG=1
M  V30 END BOND
M  V30 END CTAB
M  END
>  <i_epik_Tot_Q>  (1) 
1

>  <i_epik_Tot_abs_Q>  (1) 
1

>  <i_i_glide_confnum>  (1) 
132

>  <i_i_glide_lignum>  (1) 
22

>  <i_i_glide_posenum>  (1) 
184

>  <i_i_glide_rotatable_bonds>  (1) 
6

>  <i_lp_mmshare_version>  (1) 
72125

>  <i_m_source_file_index>  (1) 
3

>  <i_f3d_flags>  (1) 
0

>  <num_sample>  (1) 
50

>  <b_lp_Chiralities_Consistent>  (1) 
1

>  <r_epik_Charging_Adjusted_Penalty>  (1) 
0.0011657924221308697

>  <r_epik_Ionization_Penalty>  (1) 
0.0011657924221308697

>  <r_epik_Ionization_Penalty_Charging>  (1) 
0.0011657924221308697

>  <r_epik_Ionization_Penalty_Neutral>  (1) 
0

>  <r_epik_State_Penalty>  (1) 
-0

>  <r_glide_ring_energy>  (1) 
0

>  <r_i_docking_score>  (1) 
-5.5195291850711179

>  <r_i_glide_ecoul>  (1) 
-5.7073859779065348

>  <r_i_glide_eff_state_penalty>  (1) 
-0

>  <r_i_glide_einternal>  (1) 
6.5679854869314891

>  <r_i_glide_emodel>  (1) 
-42.597970087583505

>  <r_i_glide_emodel_strain>  (1) 
0.13762568719994306

>  <r_i_glide_energy>  (1) 
-32.496166230325024

>  <r_i_glide_erotb>  (1) 
0.84713914833173298

>  <r_i_glide_esite>  (1) 
-0.094290722426055601

>  <r_i_glide_evdw>  (1) 
-26.788780252418491

>  <r_i_glide_gscore>  (1) 
-5.5195291850711179

>  <r_i_glide_gscore_strain>  (1) 
0

>  <r_i_glide_hbond>  (1) 
-0.20000000000000001

>  <r_i_glide_ligand_efficiency>  (1) 
-0.22998038271129659

>  <r_i_glide_ligand_efficiency_ln>  (1) 
-1.3210766086782217

>  <r_i_glide_ligand_efficiency_sa>  (1) 
-0.66337821628900162

>  <r_i_glide_lipo>  (1) 
-1.6896079625795994

>  <r_i_glide_metal>  (1) 
-0

>  <r_i_glide_rewards>  (1) 
-2.1872227390902905

>  <r_lp_Energy>  (1) 
45.021229999999996

>  <r_lp_tautomer_probability>  (1) 
1

>  <s_epik_Chemistry_Notes>  (1) 
This compound has an imine and may undergo hydrolysis.

>  <s_epik_cmdline>  (1) 
J2VwaWtfcHl0aG9uJywgJy1waHQnLCAnMS4wJywgJy1waCcsICc3LjQnLCAnLXRuJywgJzgnLCAnLW1hJywgJzUwMCcsICctaW1hZScsICc8aW5maWxlLm1hZT4nLCAnLW9tYWUnLCAnPG91dGZpbGUubWFlPic=

>  <s_epik_input>  (1) 
W0NIM11bQ0BIXTFbQ0gyXVtDSDJdW0NIMl1bQ0gyXU4xW0NIMl1bQ0gyXVtDSDJdW0NASF0yW0NAQEhdKFtDQEBIXTIzKVtDQEBIXShbQ0gyXVtDSDNdKVtDQEhdKFtDSDNdKVxDKFtDSDJdMyk9TlxDKD1PKVtDSDNd

>  <s_glide_docking_method>  (1) 
confgen

>  <s_i_glide_gridfile>  (1) 
gpcr_drd2_6luq_protein_autoprepared_prepared

>  <s_lp_Force_Field>  (1) 
S-OPLS

>  <s_lp_Variant>  (1) 
DiffSBDD_2-2

>  <s_m_source_file>  (1) 
generated_generic_title2_ligand_DiffSBDD_2026-06-23_prepared.sdf

>  <GenAI_Model>  (1) 
DiffSBDD

>  <Protein>  (1) 
generic_title2

$$$$
DiffSBDD_8
     RDKit          3D

  0  0  0  0  0  0  0  0  0  0999 V3000
M  V30 BEGIN CTAB
M  V30 COUNTS 70 73 0 0 1
M  V30 BEGIN ATOM
M  V30 1 N 7.536333 3.346284 -15.379083 0
M  V30 2 C 10.421385 4.896044 -17.248135 0
M  V30 3 C 6.906402 6.240649 -12.439516 0 CFG=1
M  V30 4 N 8.740480 5.578249 -18.772393 0
M  V30 5 O 8.490433 3.279075 -12.625023 0
M  V30 6 C 8.993881 5.240849 -8.672446 0
M  V30 7 F 7.242484 3.864671 -18.530468 0
M  V30 8 C 9.380175 6.509822 -7.888851 0
M  V30 9 N 8.175414 5.590227 -9.849203 0 CHG=1
M  V30 10 C 7.802824 4.496757 -10.756148 0 CFG=1
M  V30 11 C 8.543823 4.162969 -18.504083 0 CFG=2
M  V30 12 C 11.489006 6.790221 -2.448104 0
M  V30 13 C 6.806737 4.828848 -11.868809 0 CFG=2
M  V30 14 O 9.795114 5.046220 -11.999871 0
M  V30 15 O 8.592195 5.733003 -20.193393 0
M  V30 16 C 10.706206 6.346094 -7.132971 0
M  V30 17 C 6.362870 2.588591 -13.209567 0
M  V30 18 C 7.592528 1.959880 -15.866067 0
M  V30 19 C 6.630765 3.606675 -14.299040 0 CFG=1
M  V30 20 C 9.206199 3.955036 -17.129846 0 CFG=2
M  V30 21 C 8.263626 4.338560 -15.953436 0
M  V30 22 C 5.865364 6.773933 -13.386223 0
M  V30 23 C 9.013287 3.965086 -11.547516 0 CFG=2
M  V30 24 C 7.204369 3.798949 -12.911943 0 CFG=2
M  V30 25 O 12.575415 5.990281 -2.040153 0
M  V30 26 O 8.196567 5.509551 -15.570779 0
M  V30 27 C 11.828540 7.514701 -3.759921 0
M  V30 28 C 7.503466 6.614829 -20.399291 0
M  V30 29 C 10.162049 5.741881 -18.504700 0
M  V30 30 O 11.375396 6.742767 -4.866831 0
M  V30 31 C 10.891724 7.329148 -5.976790 0
M  V30 32 N 5.878898 7.160015 -11.985027 0 CHG=1
M  V30 33 O 10.624670 8.526163 -6.088826 0
M  V30 34 H 10.561454 5.533416 -16.373874 0
M  V30 35 H 11.345176 4.327910 -17.362946 0
M  V30 36 H 7.881760 6.721548 -12.466330 0
M  V30 37 H 9.893702 4.729867 -9.013342 0
M  V30 38 H 8.456083 4.544059 -8.027554 0
M  V30 39 H 8.575404 6.771473 -7.201363 0
M  V30 40 H 9.483935 7.358995 -8.566479 0
M  V30 41 H 7.375419 6.142933 -9.543326 0
M  V30 42 H 7.330597 3.738095 -10.143952 0
M  V30 43 H 9.034357 3.550823 -19.263128 0
M  V30 44 H 10.587127 6.184639 -2.548962 0
M  V30 45 H 11.304824 7.515762 -1.654869 0
M  V30 46 H 5.782148 4.640969 -11.541774 0
M  V30 47 H 10.469085 4.694268 -12.571835 0
M  V30 48 H 11.536281 6.474090 -7.825805 0
M  V30 49 H 10.791627 5.334232 -6.750440 0
M  V30 50 H 6.865294 1.623165 -13.238374 0
M  V30 51 H 5.375414 2.571762 -12.785101 0
M  V30 52 H 7.559517 1.891883 -16.952969 0
M  V30 53 H 8.496490 1.464265 -15.509832 0
M  V30 54 H 6.739568 1.374964 -15.522620 0
M  V30 55 H 5.780598 4.231809 -14.559815 0
M  V30 56 H 9.581749 2.938256 -17.025913 0
M  V30 57 H 6.122348 7.590495 -14.052047 0
M  V30 58 H 4.975399 6.191838 -13.607022 0
M  V30 59 H 9.651695 3.308166 -10.958371 0
M  V30 60 H 12.235750 5.270944 -1.525353 0
M  V30 61 H 11.375409 8.505684 -3.757914 0
M  V30 62 H 12.903165 7.681687 -3.838922 0
M  V30 63 H 7.348456 6.759960 -21.468124 0
M  V30 64 H 6.580486 6.212559 -19.978857 0
M  V30 65 H 7.695494 7.590299 -19.952111 0
M  V30 66 H 10.431847 6.790181 -18.384994 0
M  V30 67 H 10.744440 5.343141 -19.337753 0
M  V30 68 H 5.171280 6.749821 -11.392581 0
M  V30 69 H 8.744151 6.214700 -10.404175 0
M  V30 70 H 6.247237 8.068592 -11.736469 0
M  V30 END ATOM
M  V30 BEGIN BOND
M  V30 1 1 8 6
M  V30 2 1 9 6
M  V30 3 1 10 9
M  V30 4 1 11 4
M  V30 5 1 11 7
M  V30 6 1 13 3
M  V30 7 1 13 10
M  V30 8 1 15 4
M  V30 9 1 16 8
M  V30 10 1 18 1
M  V30 11 1 19 1
M  V30 12 1 19 17
M  V30 13 1 20 2
M  V30 14 1 20 11
M  V30 15 1 21 1
M  V30 16 1 21 20
M  V30 17 1 22 3
M  V30 18 1 23 5
M  V30 19 1 23 10
M  V30 20 1 23 14
M  V30 21 1 24 5 CFG=3
M  V30 22 1 24 13
M  V30 23 1 24 17
M  V30 24 1 24 19
M  V30 25 1 25 12
M  V30 26 2 26 21
M  V30 27 1 27 12
M  V30 28 1 28 15
M  V30 29 1 29 2
M  V30 30 1 29 4
M  V30 31 1 30 27
M  V30 32 1 31 16
M  V30 33 1 31 30
M  V30 34 1 32 3
M  V30 35 1 32 22
M  V30 36 2 33 31
M  V30 37 1 34 2
M  V30 38 1 35 2
M  V30 39 1 3 36 CFG=3
M  V30 40 1 37 6
M  V30 41 1 38 6
M  V30 42 1 39 8
M  V30 43 1 40 8
M  V30 44 1 41 9
M  V30 45 1 10 42 CFG=1
M  V30 46 1 11 43 CFG=3
M  V30 47 1 44 12
M  V30 48 1 45 12
M  V30 49 1 13 46 CFG=1
M  V30 50 1 47 14
M  V30 51 1 48 16
M  V30 52 1 49 16
M  V30 53 1 50 17
M  V30 54 1 51 17
M  V30 55 1 52 18
M  V30 56 1 53 18
M  V30 57 1 54 18
M  V30 58 1 19 55 CFG=3
M  V30 59 1 20 56 CFG=1
M  V30 60 1 57 22
M  V30 61 1 58 22
M  V30 62 1 23 59 CFG=1
M  V30 63 1 60 25
M  V30 64 1 61 27
M  V30 65 1 62 27
M  V30 66 1 63 28
M  V30 67 1 64 28
M  V30 68 1 65 28
M  V30 69 1 66 29
M  V30 70 1 67 29
M  V30 71 1 68 32
M  V30 72 1 69 9
M  V30 73 1 70 32
M  V30 END BOND
M  V30 END CTAB
M  END
>  <i_epik_Tot_Q>  (1) 
2

>  <i_epik_Tot_abs_Q>  (1) 
2

>  <i_i_glide_confnum>  (1) 
7251

>  <i_i_glide_lignum>  (1) 
40

>  <i_i_glide_posenum>  (1) 
351

>  <i_i_glide_rotatable_bonds>  (1) 
15

>  <i_lp_mmshare_version>  (1) 
72125

>  <i_m_source_file_index>  (1) 
9

>  <i_f3d_flags>  (1) 
0

>  <num_sample>  (1) 
50

>  <b_lp_Chiralities_Consistent>  (1) 
1

>  <r_epik_Charging_Adjusted_Penalty>  (1) 
2.8797985042560583

>  <r_epik_Ionization_Penalty>  (1) 
1.6442763990741283

>  <r_epik_Ionization_Penalty_Charging>  (1) 
1.6439676131770962

>  <r_epik_Ionization_Penalty_Neutral>  (1) 
0.00030878589703216643

>  <r_epik_State_Penalty>  (1) 
1.2358308910789622

>  <r_glide_ring_energy>  (1) 
0

>  <r_i_docking_score>  (1) 
-5.503049297792094

>  <r_i_glide_ecoul>  (1) 
-12.847273618361889

>  <r_i_glide_eff_state_penalty>  (1) 
1.2358308910789622

>  <r_i_glide_einternal>  (1) 
12.935577813514293

>  <r_i_glide_emodel>  (1) 
-66.668696991199937

>  <r_i_glide_emodel_strain>  (1) 
1.5560851996361293

>  <r_i_glide_energy>  (1) 
-46.842868401703655

>  <r_i_glide_erotb>  (1) 
1.0700444368793263

>  <r_i_glide_esite>  (1) 
-0.19433195905037789

>  <r_i_glide_evdw>  (1) 
-33.995594783341765

>  <r_i_glide_gscore>  (1) 
-6.7388801888710557

>  <r_i_glide_gscore_strain>  (1) 
0

>  <r_i_glide_hbond>  (1) 
-0.42109294056967195

>  <r_i_glide_ligand_efficiency>  (1) 
-0.16675906963006346

>  <r_i_glide_ligand_efficiency_ln>  (1) 
-1.2238496705646245

>  <r_i_glide_ligand_efficiency_sa>  (1) 
-0.53488544067659294

>  <r_i_glide_lipo>  (1) 
-1.5965316617633141

>  <r_i_glide_metal>  (1) 
-0

>  <r_i_glide_rewards>  (1) 
-1.9700972824456455

>  <r_lp_Energy>  (1) 
49.698582999999999

>  <s_epik_Chemistry_Notes>  (1) 
This compound has an ester and may undergo hydrolysis at high or low pH. This compound contains an acetal/aminal-like group ( X-CH(R)-Y where X, Y are N, S, or O) that may be acid/base labile, releasing an aldehyde. This compound has a N-S or N-O group and may undergo hydrolysis at high or low pH.

>  <s_epik_cmdline>  (1) 
J2VwaWtfcHl0aG9uJywgJy1waHQnLCAnMS4wJywgJy1waCcsICc3LjQnLCAnLXRuJywgJzgnLCAnLW1hJywgJzUwMCcsICctaW1hZScsICc8aW5maWxlLm1hZT4nLCAnLW9tYWUnLCAnPG91dGZpbGUubWFlPic=

>  <s_epik_input>  (1) 
W0NIM11PTjFbQ0BIXShGKVtDQEBIXShbQ0gyXVtDSDJdMSlDKD1PKU4oW0NIM10pW0NASF0yW0NIMl1DMjNPW0NAQEhdKFtPSF0pW0NASF0oW0NASF0zW0NASF00W0NIMl1bTkhdNClbTkhdW0NIMl1bQ0gyXVtDSDJdQyg9TylPW0NIMl1bQ0gyXVtPSF0=

>  <s_glide_docking_method>  (1) 
confgen

>  <s_i_glide_gridfile>  (1) 
gpcr_drd2_6luq_protein_autoprepared_prepared

>  <s_lp_Force_Field>  (1) 
S-OPLS

>  <s_lp_Variant>  (1) 
DiffSBDD_8-9

>  <s_m_source_file>  (1) 
generated_generic_title2_ligand_DiffSBDD_2026-06-23_prepared.sdf

>  <GenAI_Model>  (1) 
DiffSBDD

>  <Protein>  (1) 
generic_title2

$$$$
DiffSBDD_32
     RDKit          3D

  0  0  0  0  0  0  0  0  0  0999 V3000
M  V30 BEGIN CTAB
M  V30 COUNTS 69 71 0 0 1
M  V30 BEGIN ATOM
M  V30 1 C 10.897012 8.561515 -6.921568 0
M  V30 2 C 11.359939 6.198158 -3.946517 0
M  V30 3 N 12.310589 8.778782 -2.951451 0
M  V30 4 C 7.988064 4.979147 -10.561536 0
M  V30 5 C 5.155965 -0.845780 -15.977628 0
M  V30 6 O 10.403533 6.208153 -6.656907 0
M  V30 7 O 8.444537 0.390231 -13.185040 0
M  V30 8 C 9.932725 7.071445 -10.276779 0
M  V30 9 C 7.978885 4.562335 -14.042515 0 CFG=2
M  V30 10 C 6.960723 5.590962 -14.585372 0
M  V30 11 C 7.318979 3.228621 -13.615628 0
M  V30 12 C 9.406989 6.379313 -8.988767 0 CFG=1
M  V30 13 C 8.518314 5.191274 -9.340161 0
M  V30 14 C 12.671649 7.528147 -2.315755 0
M  V30 15 C 10.575161 5.960959 -8.057774 0
M  V30 16 C 11.375445 9.760424 -6.385029 0
M  V30 17 C 5.446375 0.916375 -13.456062 0
M  V30 18 C 7.660596 0.028672 -14.291715 0
M  V30 19 C 8.195500 5.900187 -11.761770 0 CFG=1
M  V30 20 C 10.882395 7.394627 -6.136598 0
M  V30 21 N 6.975417 2.392110 -14.801284 0 CHG=1
M  V30 22 C 11.827116 9.822537 -5.080367 0
M  V30 23 C 5.897830 0.496495 -15.965172 0
M  V30 24 C 8.910244 7.224718 -11.408312 0
M  V30 25 C 11.360668 7.448263 -4.801253 0
M  V30 26 C 6.488947 0.989151 -14.602152 0 CFG=2
M  V30 27 O 5.795282 5.190042 -14.785051 0 CHG=-1
M  V30 28 O 7.375422 6.750556 -14.785053 0
M  V30 29 C 11.581595 6.480916 -2.459930 0
M  V30 30 C 8.893101 5.172457 -12.944520 0
M  V30 31 C 11.834318 8.682143 -4.272535 0
M  V30 32 H 10.539316 8.540420 -7.934849 0
M  V30 33 H 10.437980 5.644615 -4.100602 0
M  V30 34 H 12.174918 5.588472 -4.322137 0
M  V30 35 H 12.788572 9.620943 -2.658986 0
M  V30 36 H 7.363905 4.113333 -10.723464 0
M  V30 37 H 4.843458 -1.104509 -16.989194 0
M  V30 38 H 5.775417 -1.660105 -15.615477 0
M  V30 39 H 4.252764 -0.809781 -15.370264 0
M  V30 40 H 9.246097 0.803338 -13.469796 0
M  V30 41 H 10.368433 8.042629 -10.048996 0
M  V30 42 H 10.732035 6.476252 -10.697288 0
M  V30 43 H 8.644240 4.340388 -14.877765 0
M  V30 44 H 6.427328 3.421614 -13.017021 0
M  V30 45 H 8.009551 2.715228 -12.955382 0
M  V30 46 H 8.788035 7.081397 -8.432343 0
M  V30 47 H 8.310501 4.493037 -8.542565 0
M  V30 48 H 12.896018 7.716156 -1.265918 0
M  V30 49 H 13.587397 7.168295 -2.785032 0
M  V30 50 H 10.739306 4.890116 -8.152644 0
M  V30 51 H 11.497344 6.430769 -8.391239 0
M  V30 52 H 11.396087 10.644788 -6.980768 0
M  V30 53 H 5.033778 -0.085245 -13.345128 0
M  V30 54 H 5.897381 1.151989 -12.492430 0
M  V30 55 H 4.607587 1.596717 -13.585047 0
M  V30 56 H 8.310844 -0.133676 -15.151727 0
M  V30 57 H 7.225053 -0.927949 -14.026677 0
M  V30 58 H 7.188710 6.194783 -12.053547 0
M  V30 59 H 7.775918 2.362030 -15.413775 0
M  V30 60 H 12.175398 10.752271 -4.707261 0
M  V30 61 H 5.188602 1.190230 -16.385120 0
M  V30 62 H 6.697671 0.447907 -16.705666 0
M  V30 63 H 9.410791 7.642132 -12.281940 0
M  V30 64 H 8.175107 7.991593 -11.184929 0
M  V30 65 H 10.657915 6.805371 -1.984892 0
M  V30 66 H 11.881100 5.589311 -1.926577 0
M  V30 67 H 9.575097 4.413935 -12.558245 0
M  V30 68 H 9.554684 5.868201 -13.461590 0
M  V30 69 H 6.245663 2.916066 -15.268952 0
M  V30 END ATOM
M  V30 BEGIN BOND
M  V30 1 1 10 9
M  V30 2 1 11 9
M  V30 3 1 12 8
M  V30 4 2 13 4
M  V30 5 1 13 12
M  V30 6 1 14 3
M  V30 7 1 15 6
M  V30 8 1 15 12
M  V30 9 1 16 1
M  V30 10 1 18 7
M  V30 11 1 19 4
M  V30 12 2 20 1
M  V30 13 1 20 6
M  V30 14 1 21 11
M  V30 15 2 22 16
M  V30 16 1 23 5
M  V30 17 1 24 8
M  V30 18 1 24 19
M  V30 19 1 25 2
M  V30 20 1 25 20
M  V30 21 1 26 17 CFG=1
M  V30 22 1 26 18
M  V30 23 1 26 21
M  V30 24 1 26 23
M  V30 25 1 27 10
M  V30 26 2 28 10
M  V30 27 1 29 2
M  V30 28 1 29 14
M  V30 29 1 30 9
M  V30 30 1 30 19
M  V30 31 1 31 3
M  V30 32 1 31 22
M  V30 33 2 31 25
M  V30 34 1 32 1
M  V30 35 1 33 2
M  V30 36 1 34 2
M  V30 37 1 35 3
M  V30 38 1 36 4
M  V30 39 1 37 5
M  V30 40 1 38 5
M  V30 41 1 39 5
M  V30 42 1 40 7
M  V30 43 1 41 8
M  V30 44 1 42 8
M  V30 45 1 9 43 CFG=3
M  V30 46 1 44 11
M  V30 47 1 45 11
M  V30 48 1 12 46 CFG=1
M  V30 49 1 47 13
M  V30 50 1 48 14
M  V30 51 1 49 14
M  V30 52 1 50 15
M  V30 53 1 51 15
M  V30 54 1 52 16
M  V30 55 1 53 17
M  V30 56 1 54 17
M  V30 57 1 55 17
M  V30 58 1 56 18
M  V30 59 1 57 18
M  V30 60 1 19 58 CFG=3
M  V30 61 1 59 21
M  V30 62 1 60 22
M  V30 63 1 61 23
M  V30 64 1 62 23
M  V30 65 1 63 24
M  V30 66 1 64 24
M  V30 67 1 65 29
M  V30 68 1 66 29
M  V30 69 1 67 30
M  V30 70 1 68 30
M  V30 71 1 69 21
M  V30 END BOND
M  V30 END CTAB
M  END
>  <i_epik_Tot_Q>  (1) 
0

>  <i_epik_Tot_abs_Q>  (1) 
2

>  <i_i_glide_confnum>  (1) 
2174

>  <i_i_glide_lignum>  (1) 
94

>  <i_i_glide_posenum>  (1) 
118

>  <i_i_glide_rotatable_bonds>  (1) 
12

>  <i_lp_mmshare_version>  (1) 
72125

>  <i_m_source_file_index>  (1) 
33

>  <i_f3d_flags>  (1) 
0

>  <num_sample>  (1) 
50

>  <b_lp_Chiralities_Consistent>  (1) 
1

>  <r_epik_Charging_Adjusted_Penalty>  (1) 
0.0085461583227070953

>  <r_epik_Ionization_Penalty>  (1) 
0.0085468934256092942

>  <r_epik_Ionization_Penalty_Charging>  (1) 
0.0021751899630769768

>  <r_epik_Ionization_Penalty_Neutral>  (1) 
0.0063717034625323165

>  <r_epik_State_Penalty>  (1) 
0.0063709683596301176

>  <r_glide_ring_energy>  (1) 
0

>  <r_i_docking_score>  (1) 
-5.5012990996730684

>  <r_i_glide_ecoul>  (1) 
-1.3490986691808626

>  <r_i_glide_eff_state_penalty>  (1) 
0.0063709683596301176

>  <r_i_glide_einternal>  (1) 
12.554991761454286

>  <r_i_glide_emodel>  (1) 
-37.130595423592609

>  <r_i_glide_emodel_strain>  (1) 
1.7251763515831797

>  <r_i_glide_energy>  (1) 
-33.390590653846701

>  <r_i_glide_erotb>  (1) 
0.9651189096568249

>  <r_i_glide_esite>  (1) 
0

>  <r_i_glide_evdw>  (1) 
-32.041491984665839

>  <r_i_glide_gscore>  (1) 
-5.5076700680326987

>  <r_i_glide_gscore_strain>  (1) 
0

>  <r_i_glide_hbond>  (1) 
-0.039550385418473957

>  <r_i_glide_ligand_efficiency>  (1) 
-0.17746126127977641

>  <r_i_glide_ligand_efficiency_ln>  (1) 
-1.2407115415462397

>  <r_i_glide_ligand_efficiency_sa>  (1) 
-0.55747337273326358

>  <r_i_glide_lipo>  (1) 
-3.0897199716979262

>  <r_i_glide_metal>  (1) 
-0

>  <r_i_glide_rewards>  (1) 
-1.5390792209627009

>  <r_lp_Energy>  (1) 
27.112926999999999

>  <s_epik_cmdline>  (1) 
J2VwaWtfcHl0aG9uJywgJy1waHQnLCAnMS4wJywgJy1waCcsICc3LjQnLCAnLXRuJywgJzgnLCAnLW1hJywgJzUwMCcsICctaW1hZScsICc8aW5maWxlLm1hZT4nLCAnLW9tYWUnLCAnPG91dGZpbGUubWFlPic=

>  <s_epik_input>  (1) 
W0NIMl0xW0NIMl1bQ0gyXVtOSF1jKGMxMilbY0hdW2NIXVtjSF1jMk9bQ0gyXVtDQEhdM1tDSDJdW0NIMl1bQ0BIXShbQ0hdPVtDSF0zKVtDSDJdW0NASF0oQyg9TylbT0hdKVtDSDJdW05IXVtDQF0oW0NIM10pKFtDSDJdW09IXSlbQ0gyXVtDSDNd

>  <s_glide_docking_method>  (1) 
confgen

>  <s_i_glide_gridfile>  (1) 
gpcr_drd2_6luq_protein_autoprepared_prepared

>  <s_lp_Force_Field>  (1) 
S-OPLS

>  <s_lp_Variant>  (1) 
DiffSBDD_32-1

>  <s_m_source_file>  (1) 
generated_generic_title2_ligand_DiffSBDD_2026-06-23_prepared.sdf

>  <GenAI_Model>  (1) 
DiffSBDD

>  <Protein>  (1) 
generic_title2

$$$$
DiffSBDD_7
     RDKit          3D

  0  0  0  0  0  0  0  0  0  0999 V3000
M  V30 BEGIN CTAB
M  V30 COUNTS 54 59 0 0 1
M  V30 BEGIN ATOM
M  V30 1 C 10.621547 7.474040 -7.173593 0
M  V30 2 C 4.563839 8.004489 -16.611009 0
M  V30 3 N 8.730006 5.590229 -9.450734 0
M  V30 4 C 8.874249 5.224762 -12.289329 0
M  V30 5 C 5.733457 6.088671 -17.800849 0 CFG=1
M  V30 6 F 4.310978 5.535745 -21.287569 0
M  V30 7 C 12.187157 8.541792 -8.714942 0
M  V30 8 N 10.465342 7.003161 -9.502220 0
M  V30 9 C 11.741192 8.355892 -7.453146 0
M  V30 10 C 6.185328 6.649652 -15.316945 0 CFG=1
M  V30 11 N 9.691708 6.125725 -11.612606 0
M  V30 12 C 5.165005 6.625000 -16.453817 0 CFG=1
M  V30 13 C 5.912102 7.163009 -13.953888 0 CFG=2
M  V30 14 C 4.911582 7.495935 -19.922975 0
M  V30 15 C 9.634663 6.226338 -10.322972 0
M  V30 16 N 9.016386 5.980260 -8.163237 0
M  V30 17 C 11.555462 7.866863 -9.934925 0
M  V30 18 C 7.643215 2.611065 -13.337095 0
M  V30 19 C 4.794536 6.296750 -18.993767 0 CFG=1
M  V30 20 C 6.737328 3.609718 -13.818918 0
M  V30 21 C 10.051142 6.842490 -8.212466 0
M  V30 22 C 6.793541 4.942209 -13.663659 0
M  V30 23 N 9.365801 3.938563 -12.193286 0
M  V30 24 S 7.405791 7.392165 -12.886422 0
M  V30 25 C 5.232248 6.106989 -20.427160 0 CFG=1
M  V30 26 N 10.175445 7.283225 -5.885714 0
M  V30 27 O 6.975565 6.689122 -18.083532 0
M  V30 28 C 7.769701 5.684423 -12.928188 0
M  V30 29 C 8.768040 2.790225 -12.649678 0
M  V30 30 N 5.834460 5.716760 -14.245723 0
M  V30 31 H 5.328573 8.700874 -16.962564 0
M  V30 32 H 3.728094 7.990229 -17.310210 0
M  V30 33 H 4.175383 8.392376 -15.670268 0
M  V30 34 H 5.922779 5.021458 -17.703031 0
M  V30 35 H 13.025760 9.190292 -8.899633 0
M  V30 36 H 12.231890 8.865617 -6.638096 0
M  V30 37 H 7.228766 6.528757 -15.601542 0
M  V30 38 H 4.331701 5.990208 -16.162465 0
M  V30 39 H 4.975347 7.554959 -13.589674 0
M  V30 40 H 3.990691 7.967297 -20.262107 0
M  V30 41 H 5.742860 8.182091 -19.778281 0
M  V30 42 H 8.317443 5.935578 -7.434815 0
M  V30 43 H 11.167861 8.626424 -10.611987 0
M  V30 44 H 12.302359 7.282748 -10.467802 0
M  V30 45 H 7.392133 1.587758 -13.577581 0
M  V30 46 H 3.775727 5.990242 -18.784822 0
M  V30 47 H 5.909572 3.242048 -14.393587 0
M  V30 48 H 6.255353 5.833456 -20.676300 0
M  V30 49 H 10.600552 7.751084 -5.100842 0
M  V30 50 H 9.393154 6.679756 -5.676389 0
M  V30 51 H 7.388506 6.222037 -18.793350 0
M  V30 52 H 9.345260 1.924563 -12.385013 0
M  V30 53 H 7.876852 5.092346 -9.661567 0
M  V30 54 H 10.232929 3.827493 -11.690264 0
M  V30 END ATOM
M  V30 BEGIN BOND
M  V30 1 1 9 1
M  V30 2 2 9 7
M  V30 3 1 11 4
M  V30 4 1 12 2
M  V30 5 1 12 5
M  V30 6 1 12 10
M  V30 7 1 13 10
M  V30 8 1 15 3
M  V30 9 1 15 8
M  V30 10 2 15 11
M  V30 11 1 16 3
M  V30 12 1 17 7
M  V30 13 1 17 8
M  V30 14 1 19 5
M  V30 15 1 19 14
M  V30 16 1 20 18
M  V30 17 2 21 1
M  V30 18 1 21 8
M  V30 19 1 21 16
M  V30 20 2 22 20
M  V30 21 1 23 4
M  V30 22 1 24 13
M  V30 23 1 25 6
M  V30 24 1 25 14
M  V30 25 1 25 19
M  V30 26 1 26 1
M  V30 27 1 27 5
M  V30 28 2 28 4
M  V30 29 1 28 22
M  V30 30 1 28 24
M  V30 31 2 29 18
M  V30 32 1 29 23
M  V30 33 1 30 10
M  V30 34 1 30 13
M  V30 35 1 30 22
M  V30 36 1 31 2
M  V30 37 1 32 2
M  V30 38 1 33 2
M  V30 39 1 5 34 CFG=1
M  V30 40 1 35 7
M  V30 41 1 36 9
M  V30 42 1 10 37 CFG=3
M  V30 43 1 12 38 CFG=1
M  V30 44 1 13 39 CFG=3
M  V30 45 1 40 14
M  V30 46 1 41 14
M  V30 47 1 42 16
M  V30 48 1 43 17
M  V30 49 1 44 17
M  V30 50 1 45 18
M  V30 51 1 19 46 CFG=1
M  V30 52 1 47 20
M  V30 53 1 25 48 CFG=1
M  V30 54 1 49 26
M  V30 55 1 50 26
M  V30 56 1 51 27
M  V30 57 1 52 29
M  V30 58 1 53 3
M  V30 59 1 54 23
M  V30 END BOND
M  V30 END CTAB
M  END
>  <i_epik_Tot_Q>  (1) 
0

>  <i_epik_Tot_abs_Q>  (1) 
0

>  <i_i_glide_confnum>  (1) 
22

>  <i_i_glide_lignum>  (1) 
31

>  <i_i_glide_posenum>  (1) 
255

>  <i_i_glide_rotatable_bonds>  (1) 
5

>  <i_lp_mmshare_version>  (1) 
72125

>  <i_m_source_file_index>  (1) 
8

>  <i_f3d_flags>  (1) 
0

>  <num_sample>  (1) 
50

>  <b_lp_Chiralities_Consistent>  (1) 
1

>  <r_epik_Charging_Adjusted_Penalty>  (1) 
6.333210498382379e-06

>  <r_epik_Ionization_Penalty>  (1) 
0.0013272624448344454

>  <r_epik_Ionization_Penalty_Charging>  (1) 
6.333210498382379e-06

>  <r_epik_Ionization_Penalty_Neutral>  (1) 
0.0013209292343360629

>  <r_epik_State_Penalty>  (1) 
-0

>  <r_glide_ring_energy>  (1) 
0

>  <r_i_docking_score>  (1) 
-5.48937957132779

>  <r_i_glide_ecoul>  (1) 
-1.9452598387037803

>  <r_i_glide_eff_state_penalty>  (1) 
-0

>  <r_i_glide_einternal>  (1) 
6.1440784685993357

>  <r_i_glide_emodel>  (1) 
-44.790095599299647

>  <r_i_glide_emodel_strain>  (1) 
0.44065193924978985

>  <r_i_glide_energy>  (1) 
-38.236823339441671

>  <r_i_glide_erotb>  (1) 
0.43087853499794043

>  <r_i_glide_esite>  (1) 
-0.21740534697272473

>  <r_i_glide_evdw>  (1) 
-36.291563500737894

>  <r_i_glide_gscore>  (1) 
-5.48937957132779

>  <r_i_glide_gscore_strain>  (1) 
0

>  <r_i_glide_hbond>  (1) 
0

>  <r_i_glide_ligand_efficiency>  (1) 
-0.18297931904425965

>  <r_i_glide_ligand_efficiency_ln>  (1) 
-1.2472468501866352

>  <r_i_glide_ligand_efficiency_sa>  (1) 
-0.5685592880516257

>  <r_i_glide_lipo>  (1) 
-2.7676653251592924

>  <r_i_glide_metal>  (1) 
-0

>  <r_i_glide_rewards>  (1) 
-0.8288202833512508

>  <r_lp_Energy>  (1) 
40.425478999999996

>  <r_lp_tautomer_probability>  (1) 
1

>  <s_epik_Chemistry_Notes>  (1) 
This compound has an imine and may undergo hydrolysis. This compound contains an acetal/aminal-like group ( X-CH(R)-Y where X, Y are N, S, or O) that may be acid/base labile, releasing an aldehyde.

>  <s_epik_cmdline>  (1) 
J2VwaWtfcHl0aG9uJywgJy1waHQnLCAnMS4wJywgJy1waCcsICc3LjQnLCAnLXRuJywgJzgnLCAnLW1hJywgJzUwMCcsICctaW1hZScsICc8aW5maWxlLm1hZT4nLCAnLW9tYWUnLCAnPG91dGZpbGUubWFlPic=

>  <s_epik_input>  (1) 
W0NIMl0xW0NIXT1bQ0hdQyhbTkgyXSk9QyhOMTIpW05IXU49QzJbTkhdQyg9TltDSF09W0NIXVtDSF09MylbQ0BASF0oUzQpQzNOKFtDQEBIXTQ1KVtDQEhdNVtDQEBIXShbQ0gzXSlbQ0BIXShbT0hdKVtDQEhdNltDSDJdW0NAQEhdNkY=

>  <s_glide_docking_method>  (1) 
confgen

>  <s_i_glide_gridfile>  (1) 
gpcr_drd2_6luq_protein_autoprepared_prepared

>  <s_lp_Force_Field>  (1) 
S-OPLS

>  <s_lp_Variant>  (1) 
DiffSBDD_7-1

>  <s_m_source_file>  (1) 
generated_generic_title2_ligand_DiffSBDD_2026-06-23_prepared.sdf

>  <GenAI_Model>  (1) 
DiffSBDD

>  <Protein>  (1) 
generic_title2

$$$$
DiffSBDD_8
     RDKit          3D

  0  0  0  0  0  0  0  0  0  0999 V3000
M  V30 BEGIN CTAB
M  V30 COUNTS 70 73 0 0 1
M  V30 BEGIN ATOM
M  V30 1 N 7.260544 3.138113 -15.242648 0
M  V30 2 C 9.075221 4.703053 -18.159400 0
M  V30 3 C 6.925536 6.404114 -12.467375 0 CFG=1
M  V30 4 N 7.588337 3.957959 -19.784334 0
M  V30 5 O 8.783062 3.681623 -12.796715 0
M  V30 6 C 9.212294 5.647532 -8.727447 0
M  V30 7 F 6.946708 2.020978 -18.754402 0
M  V30 8 C 9.768531 6.912855 -8.071093 0
M  V30 9 N 8.575420 5.990228 -10.009687 0 CHG=1
M  V30 10 C 8.237797 4.852990 -10.874797 0 CFG=1
M  V30 11 C 7.140574 3.323617 -18.553148 0 CFG=1
M  V30 12 C 12.790132 8.036405 -2.907936 0
M  V30 13 C 7.048872 5.027057 -11.814183 0 CFG=2
M  V30 14 O 9.938018 5.643934 -12.417864 0
M  V30 15 O 6.390748 4.363614 -20.474369 0
M  V30 16 C 10.371157 6.631103 -6.692082 0
M  V30 17 C 6.679622 2.616137 -12.779782 0
M  V30 18 C 7.522898 1.707185 -15.473109 0
M  V30 19 C 6.585802 3.480220 -14.020235 0 CFG=1
M  V30 20 C 8.225840 3.610004 -17.490073 0 CFG=2
M  V30 21 C 7.569224 4.081169 -16.169046 0
M  V30 22 C 5.775400 6.753782 -13.370172 0
M  V30 23 C 9.371554 4.491852 -11.836928 0 CFG=2
M  V30 24 C 7.386098 3.951219 -12.828780 0 CFG=2
M  V30 25 O 11.920405 7.426281 -1.985030 0
M  V30 26 O 7.331634 5.278411 -15.993210 0
M  V30 27 C 11.964621 8.681408 -4.022636 0
M  V30 28 C 6.236334 3.497816 -21.587298 0
M  V30 29 C 8.215309 5.185586 -19.326062 0
M  V30 30 O 11.375435 7.639292 -4.785001 0
M  V30 31 C 10.935530 7.878133 -6.017368 0
M  V30 32 N 5.803976 7.190183 -11.985027 0 CHG=1
M  V30 33 O 10.968297 8.972058 -6.581796 0
M  V30 34 H 9.363173 5.522885 -17.499033 0
M  V30 35 H 9.999429 4.265726 -18.540509 0
M  V30 36 H 7.814527 7.024706 -12.547819 0
M  V30 37 H 10.015444 4.927008 -8.885988 0
M  V30 38 H 8.474170 5.176205 -8.076675 0
M  V30 39 H 8.975374 7.654557 -7.968192 0
M  V30 40 H 10.523138 7.353869 -8.723440 0
M  V30 41 H 7.761069 6.573357 -9.782971 0
M  V30 42 H 8.028692 3.990243 -10.249733 0
M  V30 43 H 6.176882 3.746584 -18.263045 0
M  V30 44 H 13.375263 8.794691 -2.386142 0
M  V30 45 H 13.484766 7.295799 -3.300394 0
M  V30 46 H 6.113393 4.776607 -11.309126 0
M  V30 47 H 10.634403 5.350047 -12.995974 0
M  V30 48 H 11.170698 5.894522 -6.776038 0
M  V30 49 H 9.612502 6.202030 -6.036854 0
M  V30 50 H 7.316160 1.732928 -12.770662 0
M  V30 51 H 5.780847 2.536710 -12.174837 0
M  V30 52 H 6.933513 1.061611 -14.823005 0
M  V30 53 H 7.253583 1.382463 -16.474677 0
M  V30 54 H 8.575522 1.477056 -15.305749 0
M  V30 55 H 5.628015 3.974150 -14.158562 0
M  V30 56 H 8.877143 2.748875 -17.340007 0
M  V30 57 H 5.855461 7.590251 -14.056893 0
M  V30 58 H 4.975388 6.039740 -13.528217 0
M  V30 59 H 10.175413 3.989993 -11.322476 0
M  V30 60 H 11.461825 6.721510 -2.420628 0
M  V30 61 H 11.203835 9.350953 -3.622915 0
M  V30 62 H 12.624980 9.278137 -4.653701 0
M  V30 63 H 5.328197 3.759139 -22.131089 0
M  V30 64 H 7.078030 3.585238 -22.275724 0
M  V30 65 H 6.145630 2.454491 -21.278939 0
M  V30 66 H 7.461909 5.893692 -18.974902 0
M  V30 67 H 8.799832 5.658639 -20.113940 0
M  V30 68 H 5.200819 6.705154 -11.335592 0
M  V30 69 H 9.213207 6.567149 -10.541413 0
M  V30 70 H 6.052018 8.150824 -11.789362 0
M  V30 END ATOM
M  V30 BEGIN BOND
M  V30 1 1 8 6
M  V30 2 1 9 6
M  V30 3 1 10 9
M  V30 4 1 11 4
M  V30 5 1 11 7
M  V30 6 1 13 3
M  V30 7 1 13 10
M  V30 8 1 15 4
M  V30 9 1 16 8
M  V30 10 1 18 1
M  V30 11 1 19 1
M  V30 12 1 19 17
M  V30 13 1 20 2
M  V30 14 1 20 11
M  V30 15 1 21 1
M  V30 16 1 21 20
M  V30 17 1 22 3
M  V30 18 1 23 5
M  V30 19 1 23 10
M  V30 20 1 23 14
M  V30 21 1 24 5 CFG=3
M  V30 22 1 24 13
M  V30 23 1 24 17
M  V30 24 1 24 19
M  V30 25 1 25 12
M  V30 26 2 26 21
M  V30 27 1 27 12
M  V30 28 1 28 15
M  V30 29 1 29 2
M  V30 30 1 29 4
M  V30 31 1 30 27
M  V30 32 1 31 16
M  V30 33 1 31 30
M  V30 34 1 32 3
M  V30 35 1 32 22
M  V30 36 2 33 31
M  V30 37 1 34 2
M  V30 38 1 35 2
M  V30 39 1 3 36 CFG=3
M  V30 40 1 37 6
M  V30 41 1 38 6
M  V30 42 1 39 8
M  V30 43 1 40 8
M  V30 44 1 41 9
M  V30 45 1 10 42 CFG=1
M  V30 46 1 11 43 CFG=1
M  V30 47 1 44 12
M  V30 48 1 45 12
M  V30 49 1 13 46 CFG=1
M  V30 50 1 47 14
M  V30 51 1 48 16
M  V30 52 1 49 16
M  V30 53 1 50 17
M  V30 54 1 51 17
M  V30 55 1 52 18
M  V30 56 1 53 18
M  V30 57 1 54 18
M  V30 58 1 19 55 CFG=3
M  V30 59 1 20 56 CFG=1
M  V30 60 1 57 22
M  V30 61 1 58 22
M  V30 62 1 23 59 CFG=1
M  V30 63 1 60 25
M  V30 64 1 61 27
M  V30 65 1 62 27
M  V30 66 1 63 28
M  V30 67 1 64 28
M  V30 68 1 65 28
M  V30 69 1 66 29
M  V30 70 1 67 29
M  V30 71 1 68 32
M  V30 72 1 69 9
M  V30 73 1 70 32
M  V30 END BOND
M  V30 END CTAB
M  END
>  <i_epik_Tot_Q>  (1) 
2

>  <i_epik_Tot_abs_Q>  (1) 
2

>  <i_i_glide_confnum>  (1) 
4317

>  <i_i_glide_lignum>  (1) 
41

>  <i_i_glide_posenum>  (1) 
65

>  <i_i_glide_rotatable_bonds>  (1) 
15

>  <i_lp_mmshare_version>  (1) 
72125

>  <i_m_source_file_index>  (1) 
9

>  <i_f3d_flags>  (1) 
0

>  <num_sample>  (1) 
50

>  <b_lp_Chiralities_Consistent>  (1) 
1

>  <r_epik_Charging_Adjusted_Penalty>  (1) 
2.8797985042560583

>  <r_epik_Ionization_Penalty>  (1) 
1.6442763990741283

>  <r_epik_Ionization_Penalty_Charging>  (1) 
1.6439676131770962

>  <r_epik_Ionization_Penalty_Neutral>  (1) 
0.00030878589703216643

>  <r_epik_State_Penalty>  (1) 
1.2358308910789622

>  <r_glide_ring_energy>  (1) 
0

>  <r_i_docking_score>  (1) 
-5.487335316991242

>  <r_i_glide_ecoul>  (1) 
-12.24272809312632

>  <r_i_glide_eff_state_penalty>  (1) 
1.2358308910789622

>  <r_i_glide_einternal>  (1) 
11.434479626642684

>  <r_i_glide_emodel>  (1) 
-72.628095040443625

>  <r_i_glide_emodel_strain>  (1) 
0.41784295016654482

>  <r_i_glide_energy>  (1) 
-48.933205779028867

>  <r_i_glide_erotb>  (1) 
1.0700444368793263

>  <r_i_glide_esite>  (1) 
-0.18452659339647459

>  <r_i_glide_evdw>  (1) 
-36.690477685902543

>  <r_i_glide_gscore>  (1) 
-6.7231662080702046

>  <r_i_glide_gscore_strain>  (1) 
0

>  <r_i_glide_hbond>  (1) 
-0.46723716881378197

>  <r_i_glide_ligand_efficiency>  (1) 
-0.166282888393674

>  <r_i_glide_ligand_efficiency_ln>  (1) 
-1.220354962597153

>  <r_i_glide_ligand_efficiency_sa>  (1) 
-0.53335807301357396

>  <r_i_glide_lipo>  (1) 
-1.6608629028236679

>  <r_i_glide_metal>  (1) 
-0

>  <r_i_glide_rewards>  (1) 
-1.809650881651532

>  <r_lp_Energy>  (1) 
49.368469999999995

>  <s_epik_Chemistry_Notes>  (1) 
This compound has an ester and may undergo hydrolysis at high or low pH. This compound contains an acetal/aminal-like group ( X-CH(R)-Y where X, Y are N, S, or O) that may be acid/base labile, releasing an aldehyde. This compound has a N-S or N-O group and may undergo hydrolysis at high or low pH.

>  <s_epik_cmdline>  (1) 
J2VwaWtfcHl0aG9uJywgJy1waHQnLCAnMS4wJywgJy1waCcsICc3LjQnLCAnLXRuJywgJzgnLCAnLW1hJywgJzUwMCcsICctaW1hZScsICc8aW5maWxlLm1hZT4nLCAnLW9tYWUnLCAnPG91dGZpbGUubWFlPic=

>  <s_epik_input>  (1) 
W0NIM11PTjFbQ0BIXShGKVtDQEBIXShbQ0gyXVtDSDJdMSlDKD1PKU4oW0NIM10pW0NASF0yW0NIMl1DMjNPW0NAQEhdKFtPSF0pW0NASF0oW0NASF0zW0NASF00W0NIMl1bTkhdNClbTkhdW0NIMl1bQ0gyXVtDSDJdQyg9TylPW0NIMl1bQ0gyXVtPSF0=

>  <s_glide_docking_method>  (1) 
confgen

>  <s_i_glide_gridfile>  (1) 
gpcr_drd2_6luq_protein_autoprepared_prepared

>  <s_lp_Force_Field>  (1) 
S-OPLS

>  <s_lp_Variant>  (1) 
DiffSBDD_8-10

>  <s_m_source_file>  (1) 
generated_generic_title2_ligand_DiffSBDD_2026-06-23_prepared.sdf

>  <GenAI_Model>  (1) 
DiffSBDD

>  <Protein>  (1) 
generic_title2

$$$$
DiffSBDD_45
     RDKit          3D

  0  0  0  0  0  0  0  0  0  0999 V3000
M  V30 BEGIN CTAB
M  V30 COUNTS 54 58 0 0 1
M  V30 BEGIN ATOM
M  V30 1 C 11.709292 7.897341 -10.170051 0
M  V30 2 C 5.358698 6.138245 -18.224275 0 CFG=1
M  V30 3 C 8.155192 3.847441 -12.927403 0
M  V30 4 C 8.587731 5.032013 -12.281306 0
M  V30 5 C 6.833606 6.034895 -17.915646 0
M  V30 6 C 7.114675 5.297844 -16.592512 0
M  V30 7 C 9.619396 6.714508 -10.804210 0
M  V30 8 C 10.537844 7.051065 -9.631816 0 CFG=2
M  V30 9 C 4.424233 6.907092 -17.336762 0 CFG=1
M  V30 10 C 8.294407 7.441087 -12.713059 0
M  V30 11 N 7.453325 5.479085 -14.124268 0
M  V30 12 C 5.400330 6.554893 -15.032581 0
M  V30 13 O 10.976662 10.077088 -4.241961 0
M  V30 14 C 9.060455 7.754256 -11.585581 0
M  V30 15 O 11.923034 8.994957 -8.045455 0
M  V30 16 C 9.892288 7.775215 -8.458063 0
M  V30 17 C 4.931263 7.583911 -16.081976 0
M  V30 18 F 9.775928 7.746639 -5.585140 0
M  V30 19 C 12.670037 8.381583 -9.079999 0
M  V30 20 C 6.841664 6.104106 -15.292074 0 CFG=2
M  V30 21 C 8.089483 6.101212 -13.054673 0
M  V30 22 O 4.876641 7.441335 -18.589557 0
M  V30 23 C 10.468192 8.715859 -6.171422 0 CFG=1
M  V30 24 C 11.553818 9.228372 -5.207584 0
M  V30 25 C 11.011479 8.089855 -7.440832 0 CFG=2
M  V30 26 C 9.361516 5.359353 -11.137888 0
M  V30 27 N 7.464394 4.104913 -14.013776 0
M  V30 28 H 11.312614 8.790330 -10.641093 0
M  V30 29 H 12.228356 7.356938 -10.957579 0
M  V30 30 H 4.945540 5.320176 -18.810392 0
M  V30 31 H 8.338058 2.820912 -12.643976 0
M  V30 32 H 7.277196 7.029270 -17.916865 0
M  V30 33 H 7.308565 5.498274 -18.737164 0
M  V30 34 H 8.172400 5.029402 -16.600323 0
M  V30 35 H 6.577882 4.353238 -16.572416 0
M  V30 36 H 10.936880 6.135089 -9.188817 0
M  V30 37 H 3.384217 6.587720 -17.321663 0
M  V30 38 H 7.886394 8.227933 -13.328547 0
M  V30 39 H 4.740757 5.690793 -14.971185 0
M  V30 40 H 5.373778 7.037913 -14.053617 0
M  V30 41 H 10.638095 10.846888 -4.674913 0
M  V30 42 H 9.242578 8.788746 -11.330502 0
M  V30 43 H 9.121814 7.143674 -8.014383 0
M  V30 44 H 9.400883 8.693626 -8.781709 0
M  V30 45 H 5.737775 8.271259 -16.341484 0
M  V30 46 H 4.147310 8.223012 -15.682397 0
M  V30 47 H 13.367277 9.102392 -9.493671 0
M  V30 48 H 13.283687 7.590226 -8.667077 0
M  V30 49 H 7.378120 7.040099 -15.402413 0
M  V30 50 H 9.775410 9.502093 -6.448558 0
M  V30 51 H 12.313794 9.809268 -5.730966 0
M  V30 52 H 12.064878 8.400684 -4.715276 0
M  V30 53 H 11.543649 7.177183 -7.159509 0
M  V30 54 H 9.776426 4.568160 -10.534134 0
M  V30 END ATOM
M  V30 BEGIN BOND
M  V30 1 1 4 3
M  V30 2 1 5 2
M  V30 3 1 6 5
M  V30 4 1 8 1
M  V30 5 1 8 7
M  V30 6 1 9 2
M  V30 7 1 14 7
M  V30 8 2 14 10
M  V30 9 1 16 8
M  V30 10 1 17 9
M  V30 11 1 17 12
M  V30 12 1 19 1
M  V30 13 1 19 15
M  V30 14 1 20 6
M  V30 15 1 20 11
M  V30 16 1 20 12
M  V30 17 2 21 4
M  V30 18 1 21 10
M  V30 19 1 21 11
M  V30 20 1 22 2
M  V30 21 1 22 9
M  V30 22 1 23 18
M  V30 23 1 24 13
M  V30 24 1 24 23
M  V30 25 1 25 15
M  V30 26 1 25 16
M  V30 27 1 25 23
M  V30 28 1 26 4
M  V30 29 2 26 7
M  V30 30 2 27 3
M  V30 31 1 27 11
M  V30 32 1 28 1
M  V30 33 1 29 1
M  V30 34 1 2 30 CFG=3
M  V30 35 1 31 3
M  V30 36 1 32 5
M  V30 37 1 33 5
M  V30 38 1 34 6
M  V30 39 1 35 6
M  V30 40 1 8 36 CFG=1
M  V30 41 1 9 37 CFG=3
M  V30 42 1 38 10
M  V30 43 1 39 12
M  V30 44 1 40 12
M  V30 45 1 41 13
M  V30 46 1 42 14
M  V30 47 1 43 16
M  V30 48 1 44 16
M  V30 49 1 45 17
M  V30 50 1 46 17
M  V30 51 1 47 19
M  V30 52 1 48 19
M  V30 53 1 20 49 CFG=3
M  V30 54 1 23 50 CFG=3
M  V30 55 1 51 24
M  V30 56 1 52 24
M  V30 57 1 25 53 CFG=1
M  V30 58 1 54 26
M  V30 END BOND
M  V30 END CTAB
M  END
>  <i_epik_Tot_Q>  (1) 
0

>  <i_epik_Tot_abs_Q>  (1) 
0

>  <i_i_glide_confnum>  (1) 
6

>  <i_i_glide_lignum>  (1) 
123

>  <i_i_glide_posenum>  (1) 
191

>  <i_i_glide_rotatable_bonds>  (1) 
5

>  <i_lp_mmshare_version>  (1) 
72125

>  <i_m_source_file_index>  (1) 
46

>  <i_f3d_flags>  (1) 
0

>  <num_sample>  (1) 
50

>  <b_lp_Chiralities_Consistent>  (1) 
1

>  <r_epik_Charging_Adjusted_Penalty>  (1) 
0

>  <r_epik_Ionization_Penalty>  (1) 
1.2822463511274088e-05

>  <r_epik_Ionization_Penalty_Charging>  (1) 
0

>  <r_epik_Ionization_Penalty_Neutral>  (1) 
1.2822463511274088e-05

>  <r_epik_State_Penalty>  (1) 
-0

>  <r_glide_ring_energy>  (1) 
0

>  <r_i_docking_score>  (1) 
-5.4837774736491234

>  <r_i_glide_ecoul>  (1) 
0.14661198288438268

>  <r_i_glide_eff_state_penalty>  (1) 
-0

>  <r_i_glide_einternal>  (1) 
3.5777891627279335

>  <r_i_glide_emodel>  (1) 
-32.701358905856083

>  <r_i_glide_emodel_strain>  (1) 
0.015445148496205263

>  <r_i_glide_energy>  (1) 
-28.485239204316155

>  <r_i_glide_erotb>  (1) 
0.55159765068717725

>  <r_i_glide_esite>  (1) 
-0.0084312522585070562

>  <r_i_glide_evdw>  (1) 
-28.631851187200539

>  <r_i_glide_gscore>  (1) 
-5.4837774736491234

>  <r_i_glide_gscore_strain>  (1) 
0

>  <r_i_glide_hbond>  (1) 
0

>  <r_i_glide_ligand_efficiency>  (1) 
-0.20310286939441197

>  <r_i_glide_ligand_efficiency_ln>  (1) 
-1.2765329887281611

>  <r_i_glide_ligand_efficiency_sa>  (1) 
-0.60930860818323607

>  <r_i_glide_lipo>  (1) 
-2.7275425834823555

>  <r_i_glide_metal>  (1) 
-0

>  <r_i_glide_rewards>  (1) 
-1.8898005266680673

>  <r_lp_Energy>  (1) 
29.727612999999998

>  <r_lp_tautomer_probability>  (1) 
1

>  <s_epik_cmdline>  (1) 
J2VwaWtfcHl0aG9uJywgJy1waHQnLCAnMS4wJywgJy1waCcsICc3LjQnLCAnLXRuJywgJzgnLCAnLW1hJywgJzUwMCcsICctaW1hZScsICc8aW5maWxlLm1hZT4nLCAnLW9tYWUnLCAnPG91dGZpbGUubWFlPic=

>  <s_epik_input>  (1) 
W09IXVtDSDJdW0NASF0oRilbQ0BASF0oW0NIMl0xKU9bQ0gyXVtDSDJdW0NASF0xYyhbY0hdMilbY0hdW2NIXWMoYzIzKW4obltjSF0zKVtDQEBIXShbQ0gyXVtDSDJdNClbQ0gyXVtDSDJdW0NAQEhdKE81KVtDQEhdNDU=

>  <s_glide_docking_method>  (1) 
confgen

>  <s_i_glide_gridfile>  (1) 
gpcr_drd2_6luq_protein_autoprepared_prepared

>  <s_lp_Force_Field>  (1) 
S-OPLS

>  <s_lp_Variant>  (1) 
DiffSBDD_45-2

>  <s_m_source_file>  (1) 
generated_generic_title2_ligand_DiffSBDD_2026-06-23_prepared.sdf

>  <GenAI_Model>  (1) 
DiffSBDD

>  <Protein>  (1) 
generic_title2

$$$$
DiffSBDD_19
     RDKit          3D

  0  0  0  0  0  0  0  0  0  0999 V3000
M  V30 BEGIN CTAB
M  V30 COUNTS 54 57 0 0 1
M  V30 BEGIN ATOM
M  V30 1 C 11.559036 8.236518 -7.421740 0
M  V30 2 C 11.035736 7.298625 -6.314994 0 CFG=1
M  V30 3 C 7.578142 5.208282 -14.612987 0
M  V30 4 C 8.416904 7.732858 -11.985018 0
M  V30 5 C 6.936119 3.935623 -14.016538 0 CFG=1
M  V30 6 C 9.730246 7.285647 -11.407115 0 CFG=1
M  V30 7 N 8.298029 5.925245 -13.584981 0
M  V30 8 N 11.387017 7.732369 -4.964195 0
M  V30 9 C 7.809444 7.086194 -12.983566 0
M  V30 10 O 9.600327 6.569003 -10.191687 0
M  V30 11 C 9.539551 7.044910 -6.492320 0
M  V30 12 N 9.503876 5.336916 -13.061349 0
M  V30 13 S 12.175412 9.190225 -2.876591 0
M  V30 14 C 11.775374 6.901452 -3.972959 0
M  V30 15 C 9.292064 6.407769 -7.864014 0
M  V30 16 C 9.101512 4.188200 -12.222499 0
M  V30 17 C 11.519956 9.179598 -4.669909 0
M  V30 18 O 4.975408 5.202339 -13.670066 0
M  V30 19 S 8.175812 2.920460 -13.185021 0
M  V30 20 C 10.389840 6.348073 -12.415860 0
M  V30 21 C 12.187448 7.451626 -2.871479 0
M  V30 22 C 11.259071 7.686874 -8.819553 0
M  V30 23 C 5.916931 4.461706 -11.623475 0
M  V30 24 C 5.700234 4.147738 -13.116518 0 CFG=2
M  V30 25 C 9.775422 7.321347 -9.002747 0 CFG=1
M  V30 26 H 11.085409 9.212697 -7.330396 0
M  V30 27 H 12.632730 8.390706 -7.319451 0
M  V30 28 H 11.541154 6.340749 -6.455548 0
M  V30 29 H 8.295287 4.921904 -15.383069 0
M  V30 30 H 6.854199 5.852847 -15.111666 0
M  V30 31 H 7.969884 8.620905 -11.562821 0
M  V30 32 H 6.591030 3.348418 -14.868426 0
M  V30 33 H 10.360066 8.164651 -11.296662 0
M  V30 34 H 6.869303 7.426076 -13.391210 0
M  V30 35 H 8.971265 7.971129 -6.394916 0
M  V30 36 H 9.184895 6.371830 -5.713130 0
M  V30 37 H 11.712276 5.841129 -4.172873 0
M  V30 38 H 8.229499 6.194764 -7.986733 0
M  V30 39 H 9.803583 5.445753 -7.918536 0
M  V30 40 H 8.533304 4.531996 -11.361357 0
M  V30 41 H 9.999649 3.716123 -11.833857 0
M  V30 42 H 12.253108 9.659993 -5.317579 0
M  V30 43 H 10.575410 9.709635 -4.751318 0
M  V30 44 H 5.409125 6.010318 -13.439247 0
M  V30 45 H 11.246783 5.845006 -11.985048 0
M  V30 46 H 10.832505 6.968266 -13.185022 0
M  V30 47 H 12.526339 6.915429 -1.997237 0
M  V30 48 H 11.840248 6.790249 -8.994927 0
M  V30 49 H 11.588221 8.418793 -9.556233 0
M  V30 50 H 6.400007 3.636143 -11.104868 0
M  V30 51 H 6.507234 5.360253 -11.460624 0
M  V30 52 H 4.975420 4.624208 -11.109591 0
M  V30 53 H 5.078938 3.254650 -13.184399 0
M  V30 54 H 9.168565 8.227235 -9.025465 0
M  V30 END ATOM
M  V30 BEGIN BOND
M  V30 1 1 2 1
M  V30 2 1 5 3
M  V30 3 1 6 4
M  V30 4 1 7 3
M  V30 5 1 8 2
M  V30 6 2 9 4
M  V30 7 1 9 7
M  V30 8 1 10 6
M  V30 9 1 11 2
M  V30 10 1 12 7
M  V30 11 1 14 8
M  V30 12 1 15 11
M  V30 13 1 16 12
M  V30 14 1 17 8
M  V30 15 1 17 13
M  V30 16 1 19 5
M  V30 17 1 19 16
M  V30 18 1 20 6
M  V30 19 1 20 12
M  V30 20 1 21 13
M  V30 21 2 21 14
M  V30 22 1 22 1
M  V30 23 1 24 5
M  V30 24 1 24 18
M  V30 25 1 24 23
M  V30 26 1 25 10
M  V30 27 1 25 15
M  V30 28 1 25 22
M  V30 29 1 26 1
M  V30 30 1 27 1
M  V30 31 1 2 28 CFG=3
M  V30 32 1 29 3
M  V30 33 1 30 3
M  V30 34 1 31 4
M  V30 35 1 5 32 CFG=3
M  V30 36 1 6 33 CFG=1
M  V30 37 1 34 9
M  V30 38 1 35 11
M  V30 39 1 36 11
M  V30 40 1 37 14
M  V30 41 1 38 15
M  V30 42 1 39 15
M  V30 43 1 40 16
M  V30 44 1 41 16
M  V30 45 1 42 17
M  V30 46 1 43 17
M  V30 47 1 44 18
M  V30 48 1 45 20
M  V30 49 1 46 20
M  V30 50 1 47 21
M  V30 51 1 48 22
M  V30 52 1 49 22
M  V30 53 1 50 23
M  V30 54 1 51 23
M  V30 55 1 52 23
M  V30 56 1 24 53 CFG=1
M  V30 57 1 25 54 CFG=3
M  V30 END BOND
M  V30 END CTAB
M  END
>  <i_epik_Tot_Q>  (1) 
0

>  <i_epik_Tot_abs_Q>  (1) 
0

>  <i_i_glide_confnum>  (1) 
46

>  <i_i_glide_lignum>  (1) 
63

>  <i_i_glide_posenum>  (1) 
375

>  <i_i_glide_rotatable_bonds>  (1) 
5

>  <i_lp_mmshare_version>  (1) 
72125

>  <i_m_source_file_index>  (1) 
20

>  <i_f3d_flags>  (1) 
0

>  <num_sample>  (1) 
50

>  <b_lp_Chiralities_Consistent>  (1) 
1

>  <r_epik_Charging_Adjusted_Penalty>  (1) 
6.6703818214750742e-05

>  <r_epik_Ionization_Penalty>  (1) 
7.3220417460206425e-05

>  <r_epik_Ionization_Penalty_Charging>  (1) 
6.6703818214750742e-05

>  <r_epik_Ionization_Penalty_Neutral>  (1) 
6.5165992454556827e-06

>  <r_epik_State_Penalty>  (1) 
-0

>  <r_glide_ring_energy>  (1) 
0

>  <r_i_docking_score>  (1) 
-5.4731819867482505

>  <r_i_glide_ecoul>  (1) 
0.23756817038541189

>  <r_i_glide_eff_state_penalty>  (1) 
-0

>  <r_i_glide_einternal>  (1) 
15.605318094763359

>  <r_i_glide_emodel>  (1) 
-39.713911936980288

>  <r_i_glide_emodel_strain>  (1) 
2.0020915995774899

>  <r_i_glide_energy>  (1) 
-40.906205065195493

>  <r_i_glide_erotb>  (1) 
0.52832890103692032

>  <r_i_glide_esite>  (1) 
0

>  <r_i_glide_evdw>  (1) 
-41.143773235580902

>  <r_i_glide_gscore>  (1) 
-5.4731819867482505

>  <r_i_glide_gscore_strain>  (1) 
0

>  <r_i_glide_hbond>  (1) 
0

>  <r_i_glide_ligand_efficiency>  (1) 
-0.21892727946993001

>  <r_i_glide_ligand_efficiency_ln>  (1) 
-1.2973081488880356

>  <r_i_glide_ligand_efficiency_sa>  (1) 
-0.64014724854876082

>  <r_i_glide_lipo>  (1) 
-2.8918310472171953

>  <r_i_glide_metal>  (1) 
-0

>  <r_i_glide_rewards>  (1) 
-1.0881264043467416

>  <r_lp_Energy>  (1) 
18.166922

>  <r_lp_tautomer_probability>  (1) 
1

>  <s_epik_Chemistry_Notes>  (1) 
This compound has an imine and may undergo hydrolysis. This compound contains an acetal/aminal-like group ( X-CH(R)-Y where X, Y are N, S, or O) that may be acid/base labile, releasing an aldehyde.

>  <s_epik_cmdline>  (1) 
J2VwaWtfcHl0aG9uJywgJy1waHQnLCAnMS4wJywgJy1waCcsICc3LjQnLCAnLXRuJywgJzgnLCAnLW1hJywgJzUwMCcsICctaW1hZScsICc8aW5maWxlLm1hZT4nLCAnLW9tYWUnLCAnPG91dGZpbGUubWFlPic=

>  <s_epik_input>  (1) 
W0NIMl0xU1tDSF09W0NIXU4xW0NAQEhdMltDSDJdW0NIMl1bQ0BIXShbQ0gyXVtDSDJdMilPW0NASF0oW0NIXT1bQ0hdMylbQ0gyXU4oTjM0KVtDSDJdU1tDQEhdKFtDSDJdNClbQ0BIXShbT0hdKVtDSDNd

>  <s_glide_docking_method>  (1) 
confgen

>  <s_i_glide_gridfile>  (1) 
gpcr_drd2_6luq_protein_autoprepared_prepared

>  <s_lp_Force_Field>  (1) 
S-OPLS

>  <s_lp_Variant>  (1) 
DiffSBDD_19-1

>  <s_m_source_file>  (1) 
generated_generic_title2_ligand_DiffSBDD_2026-06-23_prepared.sdf

>  <GenAI_Model>  (1) 
DiffSBDD

>  <Protein>  (1) 
generic_title2

$$$$
DiffSBDD_30
     RDKit          3D

  0  0  0  0  0  0  0  0  0  0999 V3000
M  V30 BEGIN CTAB
M  V30 COUNTS 45 45 0 0 1
M  V30 BEGIN ATOM
M  V30 1 C 9.463114 4.922027 -12.379716 0
M  V30 2 N 11.775418 9.166555 -7.176791 0 CHG=-1
M  V30 3 C 5.375498 0.932322 -13.984987 0
M  V30 4 O 10.294253 7.414214 -8.730940 0
M  V30 5 C 12.462182 9.861654 -6.125014 0
M  V30 6 C 6.725607 1.108745 -14.723895 0
M  V30 7 O 8.108557 0.713220 -12.785025 0
M  V30 8 F 6.575415 1.976694 -15.723727 0
M  V30 9 N 5.468777 -0.009773 -12.863787 0 CHG=1
M  V30 10 C 10.971013 8.285260 -6.514582 0
M  V30 11 C 8.523383 5.738042 -11.467506 0 CFG=2
M  V30 12 C 11.862374 9.190232 -4.903646 0
M  V30 13 C 9.120324 3.427115 -12.462134 0
M  V30 14 C 7.935346 1.585802 -13.876684 0 CFG=2
M  V30 15 F 12.175305 11.161577 -6.152265 0
M  V30 16 F 13.775384 9.642151 -6.188900 0
M  V30 17 C 10.045990 7.385453 -7.328714 0
M  V30 18 O 12.178619 9.531519 -3.764574 0
M  V30 19 N 9.375423 6.480928 -9.326256 0
M  V30 20 F 7.041932 -0.064303 -15.274759 0
M  V30 21 O 7.493590 6.292437 -12.261210 0
M  V30 22 C 9.274985 6.862345 -10.722457 0
M  V30 23 O 6.742453 3.444334 -12.778287 0
M  V30 24 N 10.975411 8.206852 -5.249085 0
M  V30 25 C 7.948390 3.072713 -13.409528 0 CFG=1
M  V30 26 H 9.536449 5.366874 -13.373380 0
M  V30 27 H 10.476726 4.975257 -11.985026 0
M  V30 28 H 5.014983 1.877309 -13.585003 0
M  V30 29 H 4.608055 0.566098 -14.667684 0
M  V30 30 H 8.821528 1.023220 -12.230795 0
M  V30 31 H 4.749672 0.178841 -12.183405 0
M  V30 32 H 6.390026 0.116225 -12.453157 0
M  V30 33 H 8.033650 5.076752 -10.749206 0
M  V30 34 H 10.019262 2.919336 -12.784993 0
M  V30 35 H 8.975388 3.036352 -11.458903 0
M  V30 36 H 8.809111 1.432173 -14.503991 0
M  V30 37 H 9.016316 7.692806 -7.132803 0
M  V30 38 H 10.154257 6.363656 -6.958769 0
M  V30 39 H 8.467404 6.724988 -8.929715 0
M  V30 40 H 6.980611 6.863312 -11.700597 0
M  V30 41 H 10.267606 7.026202 -11.143448 0
M  V30 42 H 8.745509 7.813834 -10.785253 0
M  V30 43 H 6.799146 4.374690 -12.584082 0
M  V30 44 H 8.031396 3.689042 -14.305877 0
M  V30 45 H 5.375409 -0.979138 -13.185042 0
M  V30 END ATOM
M  V30 BEGIN BOND
M  V30 1 1 5 2
M  V30 2 1 6 3
M  V30 3 1 8 6
M  V30 4 1 9 3
M  V30 5 1 10 2
M  V30 6 1 11 1
M  V30 7 1 12 5
M  V30 8 1 13 1
M  V30 9 1 14 6
M  V30 10 1 14 7
M  V30 11 1 15 5
M  V30 12 1 16 5
M  V30 13 1 17 4
M  V30 14 1 17 10
M  V30 15 2 18 12
M  V30 16 1 19 4
M  V30 17 1 20 6
M  V30 18 1 21 11
M  V30 19 1 22 11
M  V30 20 1 22 19
M  V30 21 2 24 10
M  V30 22 1 24 12
M  V30 23 1 25 13
M  V30 24 1 25 14
M  V30 25 1 25 23
M  V30 26 1 26 1
M  V30 27 1 27 1
M  V30 28 1 28 3
M  V30 29 1 29 3
M  V30 30 1 30 7
M  V30 31 1 31 9
M  V30 32 1 32 9
M  V30 33 1 11 33 CFG=1
M  V30 34 1 34 13
M  V30 35 1 35 13
M  V30 36 1 14 36 CFG=3
M  V30 37 1 37 17
M  V30 38 1 38 17
M  V30 39 1 39 19
M  V30 40 1 40 21
M  V30 41 1 41 22
M  V30 42 1 42 22
M  V30 43 1 43 23
M  V30 44 1 25 44 CFG=3
M  V30 45 1 45 9
M  V30 END BOND
M  V30 END CTAB
M  END
>  <i_epik_Tot_Q>  (1) 
0

>  <i_epik_Tot_abs_Q>  (1) 
2

>  <i_i_glide_confnum>  (1) 
768

>  <i_i_glide_lignum>  (1) 
92

>  <i_i_glide_posenum>  (1) 
113

>  <i_i_glide_rotatable_bonds>  (1) 
14

>  <i_lp_mmshare_version>  (1) 
72125

>  <i_m_source_file_index>  (1) 
31

>  <i_f3d_flags>  (1) 
0

>  <num_sample>  (1) 
50

>  <b_lp_Chiralities_Consistent>  (1) 
1

>  <r_epik_Charging_Adjusted_Penalty>  (1) 
1.1033345343036571

>  <r_epik_Ionization_Penalty>  (1) 
0.55249664061947246

>  <r_epik_Ionization_Penalty_Charging>  (1) 
0.55167603061160131

>  <r_epik_Ionization_Penalty_Neutral>  (1) 
0.00082061000787111938

>  <r_epik_State_Penalty>  (1) 
0.55165850369205582

>  <r_glide_ring_energy>  (1) 
0

>  <r_i_docking_score>  (1) 
-5.4656462291538093

>  <r_i_glide_ecoul>  (1) 
-13.321293947673519

>  <r_i_glide_eff_state_penalty>  (1) 
0.55165850369205582

>  <r_i_glide_einternal>  (1) 
14.07210749263902

>  <r_i_glide_emodel>  (1) 
-48.560958673352268

>  <r_i_glide_emodel_strain>  (1) 
2.3622235945771592

>  <r_i_glide_energy>  (1) 
-39.487884402392417

>  <r_i_glide_erotb>  (1) 
1.2301891588113794

>  <r_i_glide_esite>  (1) 
-0.23729448047755872

>  <r_i_glide_evdw>  (1) 
-26.1665904547189

>  <r_i_glide_gscore>  (1) 
-6.0173047328458651

>  <r_i_glide_gscore_strain>  (1) 
0

>  <r_i_glide_hbond>  (1) 
-0.58776335269866109

>  <r_i_glide_ligand_efficiency>  (1) 
-0.21862584916615238

>  <r_i_glide_ligand_efficiency_ln>  (1) 
-1.2955219485097214

>  <r_i_glide_ligand_efficiency_sa>  (1) 
-0.6392658609936801

>  <r_i_glide_lipo>  (1) 
-1.171969978904688

>  <r_i_glide_metal>  (1) 
-0

>  <r_i_glide_rewards>  (1) 
-1.9439424646893642

>  <r_lp_Energy>  (1) 
17.800135000000001

>  <s_epik_Chemistry_Notes>  (1) 
This compound has an imine and may undergo hydrolysis. This compound has a N-S or N-O group and may undergo hydrolysis at high or low pH.

>  <s_epik_cmdline>  (1) 
J2VwaWtfcHl0aG9uJywgJy1waHQnLCAnMS4wJywgJy1waCcsICc3LjQnLCAnLXRuJywgJzgnLCAnLW1hJywgJzUwMCcsICctaW1hZScsICc8aW5maWxlLm1hZT4nLCAnLW9tYWUnLCAnPG91dGZpbGUubWFlPic=

>  <s_epik_input>  (1) 
W05IMl1bQ0gyXUMoRikoRilbQ0BASF0oW09IXSlbQ0BASF0oW09IXSlbQ0gyXVtDSDJdW0NASF0oW09IXSlbQ0gyXVtOSF1PW0NIMl1DKD1OQzEoRilGKVtOSF1DMT1P

>  <s_glide_docking_method>  (1) 
confgen

>  <s_i_glide_gridfile>  (1) 
gpcr_drd2_6luq_protein_autoprepared_prepared

>  <s_lp_Force_Field>  (1) 
S-OPLS

>  <s_lp_Variant>  (1) 
DiffSBDD_30-4

>  <s_m_source_file>  (1) 
generated_generic_title2_ligand_DiffSBDD_2026-06-23_prepared.sdf

>  <GenAI_Model>  (1) 
DiffSBDD

>  <Protein>  (1) 
generic_title2

$$$$
DiffSBDD_36
     RDKit          3D

  0  0  0  0  0  0  0  0  0  0999 V3000
M  V30 BEGIN CTAB
M  V30 COUNTS 34 34 0 0 1
M  V30 BEGIN ATOM
M  V30 1 C 12.545291 8.122751 -8.410039 0
M  V30 2 O 8.377959 4.448932 -11.012926 0
M  V30 3 C 9.043181 5.669191 -11.233523 0 CFG=1
M  V30 4 C 11.638704 8.995047 -5.118432 0
M  V30 5 O 11.225396 7.590140 -10.913187 0
M  V30 6 C 12.355187 8.874648 -3.784041 0 CFG=1
M  V30 7 O 11.775409 9.590187 -2.858051 0 CHG=-1
M  V30 8 C 11.104708 7.904677 -5.666506 0
M  V30 9 C 8.152921 6.584105 -12.086032 0
M  V30 10 S 10.266644 7.635623 -9.799335 0
M  V30 11 C 11.590938 10.371032 -5.757816 0
M  V30 12 N 9.272524 6.243752 -9.910411 0
M  V30 13 O 12.575432 6.837578 -2.449921 0
M  V30 14 C 10.353508 7.863285 -7.000579 0
M  V30 15 C 12.160939 7.361359 -3.484642 0
M  V30 16 S 11.269337 6.424306 -4.784959 0
M  V30 17 C 11.197255 7.400257 -8.221537 0 CFG=2
M  V30 18 O 9.375655 8.790348 -9.656352 0
M  V30 19 H 13.226943 7.990018 -7.584890 0
M  V30 20 H 13.079105 7.747863 -9.282604 0
M  V30 21 H 12.397729 9.190121 -8.559631 0
M  V30 22 H 8.946343 3.741849 -11.279820 0
M  V30 23 H 9.993841 5.472663 -11.731075 0
M  V30 24 H 13.403383 9.005388 -4.024579 0
M  V30 25 H 8.637418 7.541663 -12.278471 0
M  V30 26 H 7.934664 6.129033 -13.052094 0
M  V30 27 H 7.203275 6.789795 -11.589220 0
M  V30 28 H 10.956515 11.046988 -5.183800 0
M  V30 29 H 12.581928 10.790213 -5.833218 0
M  V30 30 H 11.265102 10.340906 -6.784816 0
M  V30 31 H 8.358218 6.502057 -9.518411 0
M  V30 32 H 9.871595 8.819884 -7.188386 0
M  V30 33 H 9.516037 7.173800 -6.883657 0
M  V30 34 H 11.375396 6.330940 -8.125728 0
M  V30 END ATOM
M  V30 BEGIN BOND
M  V30 1 1 3 2
M  V30 2 1 6 4
M  V30 3 1 7 6
M  V30 4 2 8 4
M  V30 5 1 9 3
M  V30 6 2 10 5
M  V30 7 1 11 4
M  V30 8 1 12 3
M  V30 9 1 12 10
M  V30 10 1 14 8
M  V30 11 1 15 6
M  V30 12 2 15 13
M  V30 13 1 16 8
M  V30 14 1 16 15
M  V30 15 1 17 1
M  V30 16 1 17 10
M  V30 17 1 17 14
M  V30 18 2 18 10
M  V30 19 1 19 1
M  V30 20 1 20 1
M  V30 21 1 21 1
M  V30 22 1 22 2
M  V30 23 1 3 23 CFG=3
M  V30 24 1 6 24 CFG=3
M  V30 25 1 25 9
M  V30 26 1 26 9
M  V30 27 1 27 9
M  V30 28 1 28 11
M  V30 29 1 29 11
M  V30 30 1 30 11
M  V30 31 1 31 12
M  V30 32 1 32 14
M  V30 33 1 33 14
M  V30 34 1 17 34 CFG=1
M  V30 END BOND
M  V30 END CTAB
M  END
>  <i_epik_Tot_Q>  (1) 
-1

>  <i_epik_Tot_abs_Q>  (1) 
1

>  <i_i_glide_confnum>  (1) 
11

>  <i_i_glide_lignum>  (1) 
99

>  <i_i_glide_posenum>  (1) 
135

>  <i_i_glide_rotatable_bonds>  (1) 
6

>  <i_lp_mmshare_version>  (1) 
72125

>  <i_m_source_file_index>  (1) 
37

>  <i_f3d_flags>  (1) 
0

>  <num_sample>  (1) 
50

>  <b_lp_Chiralities_Consistent>  (1) 
1

>  <r_epik_Charging_Adjusted_Penalty>  (1) 
0.051395495470861363

>  <r_epik_Ionization_Penalty>  (1) 
0.025821951155603234

>  <r_epik_Ionization_Penalty_Charging>  (1) 
0.025697747735430668

>  <r_epik_Ionization_Penalty_Neutral>  (1) 
0.00012420342017256702

>  <r_epik_State_Penalty>  (1) 
0.025697747735430692

>  <r_glide_ring_energy>  (1) 
0

>  <r_i_docking_score>  (1) 
-5.4646105292344167

>  <r_i_glide_ecoul>  (1) 
-3.4678057055350506

>  <r_i_glide_eff_state_penalty>  (1) 
0.025697747735430692

>  <r_i_glide_einternal>  (1) 
6.6708997993153396

>  <r_i_glide_emodel>  (1) 
-40.723856604285679

>  <r_i_glide_emodel_strain>  (1) 
0.51785015409205748

>  <r_i_glide_energy>  (1) 
-33.426450474568419

>  <r_i_glide_erotb>  (1) 
1.0552049389146296

>  <r_i_glide_esite>  (1) 
-0.25174087792853689

>  <r_i_glide_evdw>  (1) 
-29.958644769033366

>  <r_i_glide_gscore>  (1) 
-5.4903082769698477

>  <r_i_glide_gscore_strain>  (1) 
0

>  <r_i_glide_hbond>  (1) 
-0.1524658712565064

>  <r_i_glide_ligand_efficiency>  (1) 
-0.30358947384635648

>  <r_i_glide_ligand_efficiency_ln>  (1) 
-1.4046499587457342

>  <r_i_glide_ligand_efficiency_sa>  (1) 
-0.79562950095524565

>  <r_i_glide_lipo>  (1) 
-1.9506309288700332

>  <r_i_glide_metal>  (1) 
-0

>  <r_i_glide_rewards>  (1) 
-2.172572443547474

>  <r_lp_Energy>  (1) 
-5.848738

>  <s_epik_Chemistry_Notes>  (1) 
This compound contains an acetal/aminal-like group ( X-CH(R)-Y where X, Y are N, S, or O) that may be acid/base labile, releasing an aldehyde.

>  <s_epik_cmdline>  (1) 
J2VwaWtfcHl0aG9uJywgJy1waHQnLCAnMS4wJywgJy1waCcsICc3LjQnLCAnLXRuJywgJzgnLCAnLW1hJywgJzUwMCcsICctaW1hZScsICc8aW5maWxlLm1hZT4nLCAnLW9tYWUnLCAnPG91dGZpbGUubWFlPic=

>  <s_epik_input>  (1) 
W09IXVtDQEBIXShbQ0gzXSlbTkhdUyg9TykoPU8pW0NAQEhdKFtDSDNdKVtDSDJdQyg9QzFbQ0gzXSlTQyg9TylbQ0BASF0xW09IXQ==

>  <s_glide_docking_method>  (1) 
confgen

>  <s_i_glide_gridfile>  (1) 
gpcr_drd2_6luq_protein_autoprepared_prepared

>  <s_lp_Force_Field>  (1) 
S-OPLS

>  <s_lp_Variant>  (1) 
DiffSBDD_36-1

>  <s_m_source_file>  (1) 
generated_generic_title2_ligand_DiffSBDD_2026-06-23_prepared.sdf

>  <GenAI_Model>  (1) 
DiffSBDD

>  <Protein>  (1) 
generic_title2

$$$$
DiffSBDD_8
     RDKit          3D

  0  0  0  0  0  0  0  0  0  0999 V3000
M  V30 BEGIN CTAB
M  V30 COUNTS 70 73 0 0 1
M  V30 BEGIN ATOM
M  V30 1 N 7.381251 3.913935 -15.389581 0
M  V30 2 C 7.245852 6.590900 -18.124964 0
M  V30 3 C 6.769307 6.230750 -11.870889 0 CFG=1
M  V30 4 N 6.520209 5.061684 -19.675111 0
M  V30 5 O 9.090525 4.505515 -13.178045 0
M  V30 6 C 9.464122 5.650238 -8.565962 0
M  V30 7 F 7.907907 3.391190 -19.010900 0
M  V30 8 C 9.817227 6.943245 -7.809415 0
M  V30 9 N 8.876175 5.990396 -9.877832 0 CHG=1
M  V30 10 C 8.706300 4.896280 -10.869461 0 CFG=1
M  V30 11 C 6.992781 4.248427 -18.560485 0 CFG=1
M  V30 12 C 12.891935 8.464174 -2.675108 0
M  V30 13 C 7.361055 4.854610 -11.601161 0 CFG=2
M  V30 14 O 10.142664 6.325847 -12.226946 0
M  V30 15 O 5.330568 4.426982 -20.176817 0
M  V30 16 C 10.542640 6.712943 -6.469497 0
M  V30 17 C 7.558940 2.684550 -13.067152 0
M  V30 18 C 8.188876 2.856389 -16.018546 0
M  V30 19 C 6.909278 3.666757 -14.043427 0 CFG=1
M  V30 20 C 7.593319 5.220843 -17.515353 0 CFG=2
M  V30 21 C 7.039521 5.043528 -16.067997 0
M  V30 22 C 5.502997 6.487769 -12.632287 0
M  V30 23 C 9.708290 4.998978 -12.036685 0 CFG=2
M  V30 24 C 7.751041 4.166794 -12.885761 0 CFG=2
M  V30 25 O 12.005947 8.377097 -1.585021 0
M  V30 26 O 6.323221 5.915554 -15.571280 0
M  V30 27 C 12.148478 8.934889 -3.929927 0
M  V30 28 C 5.648322 3.932259 -21.468290 0
M  V30 29 C 6.089878 6.307085 -19.072469 0
M  V30 30 O 11.631547 7.817578 -4.637721 0
M  V30 31 C 10.975285 8.018958 -5.790914 0
M  V30 32 N 5.501298 6.390632 -11.185385 0 CHG=1
M  V30 33 O 10.730593 9.122129 -6.280456 0
M  V30 34 H 6.975410 7.356916 -17.401974 0
M  V30 35 H 8.097941 6.975506 -18.687818 0
M  V30 36 H 7.412339 7.098839 -11.732172 0
M  V30 37 H 10.358366 5.045765 -8.708354 0
M  V30 38 H 8.757705 5.049962 -7.990489 0
M  V30 39 H 8.907816 7.517663 -7.623792 0
M  V30 40 H 10.439326 7.567419 -8.453817 0
M  V30 41 H 8.009653 6.500239 -9.702426 0
M  V30 42 H 8.868290 3.937003 -10.386394 0
M  V30 43 H 6.178045 3.664824 -18.135123 0
M  V30 44 H 13.659807 9.186212 -2.399945 0
M  V30 45 H 13.377366 7.501765 -2.839895 0
M  V30 46 H 6.649205 4.233639 -11.054246 0
M  V30 47 H 10.768592 6.311132 -12.939217 0
M  V30 48 H 11.428261 6.097120 -6.624420 0
M  V30 49 H 9.893361 6.166564 -5.786520 0
M  V30 50 H 8.466137 2.132153 -13.295394 0
M  V30 51 H 6.880615 2.170250 -12.389824 0
M  V30 52 H 7.612410 2.361628 -16.798298 0
M  V30 53 H 9.112360 3.246139 -16.447053 0
M  V30 54 H 8.485151 2.049320 -15.358787 0
M  V30 55 H 5.829645 3.737575 -13.929787 0
M  V30 56 H 8.680684 5.147506 -17.488123 0
M  V30 57 H 5.249682 7.498761 -12.943435 0
M  V30 58 H 4.975424 5.658769 -13.091766 0
M  V30 59 H 10.577131 4.389815 -11.851864 0
M  V30 60 H 11.703497 9.242377 -1.350249 0
M  V30 61 H 11.354027 9.638735 -3.675643 0
M  V30 62 H 12.848884 9.459768 -4.580956 0
M  V30 63 H 4.760166 3.509674 -21.936848 0
M  V30 64 H 6.020398 4.725366 -22.120719 0
M  V30 65 H 6.402063 3.144810 -21.415256 0
M  V30 66 H 5.160041 6.167217 -18.518393 0
M  V30 67 H 5.946801 7.093653 -19.814633 0
M  V30 68 H 5.211221 5.524765 -10.753881 0
M  V30 69 H 9.498652 6.641689 -10.339520 0
M  V30 70 H 5.607705 7.212544 -10.595448 0
M  V30 END ATOM
M  V30 BEGIN BOND
M  V30 1 1 8 6
M  V30 2 1 9 6
M  V30 3 1 10 9
M  V30 4 1 11 4
M  V30 5 1 11 7
M  V30 6 1 13 3
M  V30 7 1 13 10
M  V30 8 1 15 4
M  V30 9 1 16 8
M  V30 10 1 18 1
M  V30 11 1 19 1
M  V30 12 1 19 17
M  V30 13 1 20 2
M  V30 14 1 20 11
M  V30 15 1 21 1
M  V30 16 1 21 20
M  V30 17 1 22 3
M  V30 18 1 23 5
M  V30 19 1 23 10
M  V30 20 1 23 14
M  V30 21 1 24 5 CFG=3
M  V30 22 1 24 13
M  V30 23 1 24 17
M  V30 24 1 24 19
M  V30 25 1 25 12
M  V30 26 2 26 21
M  V30 27 1 27 12
M  V30 28 1 28 15
M  V30 29 1 29 2
M  V30 30 1 29 4
M  V30 31 1 30 27
M  V30 32 1 31 16
M  V30 33 1 31 30
M  V30 34 1 32 3
M  V30 35 1 32 22
M  V30 36 2 33 31
M  V30 37 1 34 2
M  V30 38 1 35 2
M  V30 39 1 3 36 CFG=1
M  V30 40 1 37 6
M  V30 41 1 38 6
M  V30 42 1 39 8
M  V30 43 1 40 8
M  V30 44 1 41 9
M  V30 45 1 10 42 CFG=1
M  V30 46 1 11 43 CFG=1
M  V30 47 1 44 12
M  V30 48 1 45 12
M  V30 49 1 13 46 CFG=1
M  V30 50 1 47 14
M  V30 51 1 48 16
M  V30 52 1 49 16
M  V30 53 1 50 17
M  V30 54 1 51 17
M  V30 55 1 52 18
M  V30 56 1 53 18
M  V30 57 1 54 18
M  V30 58 1 19 55 CFG=3
M  V30 59 1 20 56 CFG=1
M  V30 60 1 57 22
M  V30 61 1 58 22
M  V30 62 1 23 59 CFG=1
M  V30 63 1 60 25
M  V30 64 1 61 27
M  V30 65 1 62 27
M  V30 66 1 63 28
M  V30 67 1 64 28
M  V30 68 1 65 28
M  V30 69 1 66 29
M  V30 70 1 67 29
M  V30 71 1 68 32
M  V30 72 1 69 9
M  V30 73 1 70 32
M  V30 END BOND
M  V30 END CTAB
M  END
>  <i_epik_Tot_Q>  (1) 
2

>  <i_epik_Tot_abs_Q>  (1) 
2

>  <i_i_glide_confnum>  (1) 
5725

>  <i_i_glide_lignum>  (1) 
41

>  <i_i_glide_posenum>  (1) 
48

>  <i_i_glide_rotatable_bonds>  (1) 
15

>  <i_lp_mmshare_version>  (1) 
72125

>  <i_m_source_file_index>  (1) 
9

>  <i_f3d_flags>  (1) 
0

>  <num_sample>  (1) 
50

>  <b_lp_Chiralities_Consistent>  (1) 
1

>  <r_epik_Charging_Adjusted_Penalty>  (1) 
2.8797985042560583

>  <r_epik_Ionization_Penalty>  (1) 
1.6442763990741283

>  <r_epik_Ionization_Penalty_Charging>  (1) 
1.6439676131770962

>  <r_epik_Ionization_Penalty_Neutral>  (1) 
0.00030878589703216643

>  <r_epik_State_Penalty>  (1) 
1.2358308910789622

>  <r_glide_ring_energy>  (1) 
0

>  <r_i_docking_score>  (1) 
-5.463273765390106

>  <r_i_glide_ecoul>  (1) 
-12.305976016158743

>  <r_i_glide_eff_state_penalty>  (1) 
1.2358308910789622

>  <r_i_glide_einternal>  (1) 
12.029584325189909

>  <r_i_glide_emodel>  (1) 
-69.991991078942632

>  <r_i_glide_emodel_strain>  (1) 
2.8405926384340319

>  <r_i_glide_energy>  (1) 
-49.124162395453737

>  <r_i_glide_erotb>  (1) 
1.0700444368793263

>  <r_i_glide_esite>  (1) 
-0.18018920514026979

>  <r_i_glide_evdw>  (1) 
-36.818186379294993

>  <r_i_glide_gscore>  (1) 
-6.6991046564690686

>  <r_i_glide_gscore_strain>  (1) 
0

>  <r_i_glide_hbond>  (1) 
-0.35470978349617049

>  <r_i_glide_ligand_efficiency>  (1) 
-0.16555375046636686

>  <r_i_glide_ligand_efficiency_ln>  (1) 
-1.2150037981051069

>  <r_i_glide_ligand_efficiency_sa>  (1) 
-0.53101933808043422

>  <r_i_glide_lipo>  (1) 
-1.9584383932432785

>  <r_i_glide_metal>  (1) 
-0

>  <r_i_glide_rewards>  (1) 
-1.589005990080115

>  <r_lp_Energy>  (1) 
49.368469999999995

>  <s_epik_Chemistry_Notes>  (1) 
This compound has an ester and may undergo hydrolysis at high or low pH. This compound contains an acetal/aminal-like group ( X-CH(R)-Y where X, Y are N, S, or O) that may be acid/base labile, releasing an aldehyde. This compound has a N-S or N-O group and may undergo hydrolysis at high or low pH.

>  <s_epik_cmdline>  (1) 
J2VwaWtfcHl0aG9uJywgJy1waHQnLCAnMS4wJywgJy1waCcsICc3LjQnLCAnLXRuJywgJzgnLCAnLW1hJywgJzUwMCcsICctaW1hZScsICc8aW5maWxlLm1hZT4nLCAnLW9tYWUnLCAnPG91dGZpbGUubWFlPic=

>  <s_epik_input>  (1) 
W0NIM11PTjFbQ0BIXShGKVtDQEBIXShbQ0gyXVtDSDJdMSlDKD1PKU4oW0NIM10pW0NASF0yW0NIMl1DMjNPW0NAQEhdKFtPSF0pW0NASF0oW0NASF0zW0NASF00W0NIMl1bTkhdNClbTkhdW0NIMl1bQ0gyXVtDSDJdQyg9TylPW0NIMl1bQ0gyXVtPSF0=

>  <s_glide_docking_method>  (1) 
confgen

>  <s_i_glide_gridfile>  (1) 
gpcr_drd2_6luq_protein_autoprepared_prepared

>  <s_lp_Force_Field>  (1) 
S-OPLS

>  <s_lp_Variant>  (1) 
DiffSBDD_8-10

>  <s_m_source_file>  (1) 
generated_generic_title2_ligand_DiffSBDD_2026-06-23_prepared.sdf

>  <GenAI_Model>  (1) 
DiffSBDD

>  <Protein>  (1) 
generic_title2

$$$$
DiffSBDD_38
     RDKit          3D

  0  0  0  0  0  0  0  0  0  0999 V3000
M  V30 BEGIN CTAB
M  V30 COUNTS 55 57 0 0 1
M  V30 BEGIN ATOM
M  V30 1 C 11.850602 8.879645 -8.819524 0
M  V30 2 C 11.375539 7.674960 -5.242201 0
M  V30 3 N 11.149681 7.517029 -6.653280 0
M  V30 4 C 7.716256 6.434147 -13.518447 0 CFG=2
M  V30 5 C 6.895095 6.242778 -14.772161 0 CFG=1
M  V30 6 C 8.120635 5.388171 -14.527580 0
M  V30 7 C 11.199977 8.114839 -9.954119 0
M  V30 8 C 9.269254 7.007852 -10.998468 0
M  V30 9 C 8.980170 4.487383 -11.286721 0
M  V30 10 C 11.066805 6.700340 -4.351273 0
M  V30 11 C 12.030823 9.007086 -4.831136 0
M  V30 12 C 8.263294 5.834051 -11.064134 0 CFG=2
M  V30 13 C 12.324730 7.956470 -2.530720 0
M  V30 14 C 9.862985 7.455945 -9.633770 0 CFG=1
M  V30 15 C 7.180414 6.066932 -12.139538 0
M  V30 16 C 12.182825 8.055086 -7.585054 0
M  V30 17 C 11.961675 9.224207 -3.308952 0
M  V30 18 C 10.087783 6.351875 -8.589325 0
M  V30 19 C 5.503330 5.678470 -14.667068 0
M  V30 20 C 11.393692 6.782229 -2.861872 0
M  V30 21 C 10.093478 6.765959 -7.112519 0
M  V30 22 O 9.178197 6.390365 -6.385202 0
M  V30 23 H 12.813408 9.190183 -9.224734 0
M  V30 24 H 11.375409 9.813291 -8.571795 0
M  V30 25 H 8.272948 7.365346 -13.520125 0
M  V30 26 H 6.979552 7.046291 -15.500960 0
M  V30 27 H 9.003813 5.589398 -15.130829 0
M  V30 28 H 7.968352 4.344684 -14.259915 0
M  V30 29 H 11.901566 7.359350 -10.312346 0
M  V30 30 H 11.059706 8.790212 -10.785009 0
M  V30 31 H 8.784900 7.900326 -11.396599 0
M  V30 32 H 10.069360 6.788744 -11.707803 0
M  V30 33 H 9.592695 4.502222 -12.188207 0
M  V30 34 H 9.635303 4.232160 -10.455191 0
M  V30 35 H 8.265030 3.673972 -11.399548 0
M  V30 36 H 10.625946 5.775515 -4.684738 0
M  V30 37 H 13.083519 9.086942 -5.082552 0
M  V30 38 H 11.533392 9.832915 -5.342648 0
M  V30 39 H 7.717097 5.775059 -10.123513 0
M  V30 40 H 13.348979 7.679864 -2.785941 0
M  V30 41 H 12.318762 8.154009 -1.458566 0
M  V30 42 H 9.191722 8.202148 -9.206114 0
M  V30 43 H 6.546756 5.182184 -12.210806 0
M  V30 44 H 6.527700 6.878219 -11.812750 0
M  V30 45 H 12.932986 8.661262 -7.093388 0
M  V30 46 H 12.750264 7.190223 -7.904745 0
M  V30 47 H 12.672372 9.990218 -3.021987 0
M  V30 48 H 10.975527 9.590018 -3.021501 0
M  V30 49 H 10.975410 5.770219 -8.785252 0
M  V30 50 H 9.279071 5.628682 -8.647056 0
M  V30 51 H 5.527461 4.629668 -14.373594 0
M  V30 52 H 4.975351 6.240942 -13.902445 0
M  V30 53 H 4.979576 5.775996 -15.617582 0
M  V30 54 H 10.526979 6.782755 -2.213219 0
M  V30 55 H 11.914853 5.860901 -2.601489 0
M  V30 END ATOM
M  V30 BEGIN BOND
M  V30 1 1 3 2
M  V30 2 1 5 4
M  V30 3 1 6 4
M  V30 4 1 6 5
M  V30 5 1 7 1
M  V30 6 2 10 2
M  V30 7 1 11 2
M  V30 8 1 12 8
M  V30 9 1 12 9
M  V30 10 1 14 7
M  V30 11 1 14 8
M  V30 12 1 15 4
M  V30 13 1 15 12
M  V30 14 1 16 1
M  V30 15 1 16 3
M  V30 16 1 17 11
M  V30 17 1 17 13
M  V30 18 1 18 14
M  V30 19 1 19 5
M  V30 20 1 20 10
M  V30 21 1 20 13
M  V30 22 1 21 3
M  V30 23 1 21 18
M  V30 24 2 22 21
M  V30 25 1 23 1
M  V30 26 1 24 1
M  V30 27 1 4 25 CFG=1
M  V30 28 1 5 26 CFG=3
M  V30 29 1 27 6
M  V30 30 1 28 6
M  V30 31 1 29 7
M  V30 32 1 30 7
M  V30 33 1 31 8
M  V30 34 1 32 8
M  V30 35 1 33 9
M  V30 36 1 34 9
M  V30 37 1 35 9
M  V30 38 1 36 10
M  V30 39 1 37 11
M  V30 40 1 38 11
M  V30 41 1 12 39 CFG=1
M  V30 42 1 40 13
M  V30 43 1 41 13
M  V30 44 1 14 42 CFG=1
M  V30 45 1 43 15
M  V30 46 1 44 15
M  V30 47 1 45 16
M  V30 48 1 46 16
M  V30 49 1 47 17
M  V30 50 1 48 17
M  V30 51 1 49 18
M  V30 52 1 50 18
M  V30 53 1 51 19
M  V30 54 1 52 19
M  V30 55 1 53 19
M  V30 56 1 54 20
M  V30 57 1 55 20
M  V30 END BOND
M  V30 END CTAB
M  END
>  <i_epik_Tot_Q>  (1) 
0

>  <i_epik_Tot_abs_Q>  (1) 
0

>  <i_i_glide_confnum>  (1) 
230

>  <i_i_glide_lignum>  (1) 
103

>  <i_i_glide_posenum>  (1) 
218

>  <i_i_glide_rotatable_bonds>  (1) 
5

>  <i_lp_mmshare_version>  (1) 
72125

>  <i_m_source_file_index>  (1) 
39

>  <i_f3d_flags>  (1) 
0

>  <num_sample>  (1) 
50

>  <b_lp_Chiralities_Consistent>  (1) 
1

>  <r_epik_Charging_Adjusted_Penalty>  (1) 
0

>  <r_epik_Ionization_Penalty>  (1) 
3.750095861585333e-08

>  <r_epik_Ionization_Penalty_Charging>  (1) 
0

>  <r_epik_Ionization_Penalty_Neutral>  (1) 
3.750095861585333e-08

>  <r_epik_State_Penalty>  (1) 
-0

>  <r_glide_ring_energy>  (1) 
0

>  <r_i_docking_score>  (1) 
-5.4524499106229252

>  <r_i_glide_ecoul>  (1) 
0.57901357971801726

>  <r_i_glide_eff_state_penalty>  (1) 
-0

>  <r_i_glide_einternal>  (1) 
19.158028064683435

>  <r_i_glide_emodel>  (1) 
-14.495212989389209

>  <r_i_glide_emodel_strain>  (1) 
6.3099214388742411

>  <r_i_glide_energy>  (1) 
-25.757863933190439

>  <r_i_glide_erotb>  (1) 
1.0003538244760346

>  <r_i_glide_esite>  (1) 
0

>  <r_i_glide_evdw>  (1) 
-26.336877512908455

>  <r_i_glide_gscore>  (1) 
-5.4524499106229252

>  <r_i_glide_gscore_strain>  (1) 
0.57748035971856027

>  <r_i_glide_hbond>  (1) 
0

>  <r_i_glide_ligand_efficiency>  (1) 
-0.24783863230104206

>  <r_i_glide_ligand_efficiency_ln>  (1) 
-1.3327776410990397

>  <r_i_glide_ligand_efficiency_sa>  (1) 
-0.6944535953633586

>  <r_i_glide_lipo>  (1) 
-3.0764819444613116

>  <r_i_glide_metal>  (1) 
-0

>  <r_i_glide_rewards>  (1) 
-2.7238103116684877

>  <r_lp_Energy>  (1) 
35.460141

>  <r_lp_tautomer_probability>  (1) 
1

>  <s_epik_cmdline>  (1) 
J2VwaWtfcHl0aG9uJywgJy1waHQnLCAnMS4wJywgJy1waCcsICc3LjQnLCAnLXRuJywgJzgnLCAnLW1hJywgJzUwMCcsICctaW1hZScsICc8aW5maWxlLm1hZT4nLCAnLW9tYWUnLCAnPG91dGZpbGUubWFlPic=

>  <s_epik_input>  (1) 
W0NIMl0xW0NIMl1bQ0gyXVtDSDJdW0NIXT1DMU4yW0NIMl1bQ0gyXVtDSDJdW0NASF0oW0NIMl1DMj1PKVtDSDJdW0NASF0oW0NIM10pW0NIMl1bQ0BASF0zW0NAQEhdKFtDSDJdMylbQ0gzXQ==

>  <s_glide_docking_method>  (1) 
confgen

>  <s_i_glide_gridfile>  (1) 
gpcr_drd2_6luq_protein_autoprepared_prepared

>  <s_lp_Force_Field>  (1) 
S-OPLS

>  <s_lp_Variant>  (1) 
DiffSBDD_38-1

>  <s_m_source_file>  (1) 
generated_generic_title2_ligand_DiffSBDD_2026-06-23_prepared.sdf

>  <GenAI_Model>  (1) 
DiffSBDD

>  <Protein>  (1) 
generic_title2

$$$$
DiffSBDD_19
     RDKit          3D

  0  0  0  0  0  0  0  0  0  0999 V3000
M  V30 BEGIN CTAB
M  V30 COUNTS 54 57 0 0 1
M  V30 BEGIN ATOM
M  V30 1 C 11.158547 6.373260 -6.785051 0
M  V30 2 C 10.622626 7.600142 -6.053578 0 CFG=1
M  V30 3 C 7.701053 5.247849 -14.559607 0
M  V30 4 C 8.489395 7.847243 -11.985011 0
M  V30 5 C 7.035385 3.998340 -13.944502 0 CFG=1
M  V30 6 C 9.774577 7.392781 -11.346645 0 CFG=1
M  V30 7 N 8.394357 5.990212 -13.532821 0
M  V30 8 N 11.375425 7.871165 -4.819267 0
M  V30 9 C 7.903137 7.178222 -12.985166 0
M  V30 10 O 9.520751 6.708519 -10.122881 0
M  V30 11 C 10.588748 8.751423 -7.071782 0
M  V30 12 N 9.569817 5.408908 -12.948412 0
M  V30 13 S 12.440465 7.632818 -2.385021 0
M  V30 14 C 11.904648 9.062292 -4.454162 0
M  V30 15 C 9.787815 8.390188 -8.341457 0
M  V30 16 C 9.091615 4.359857 -12.030828 0
M  V30 17 C 11.526646 6.784196 -3.823870 0
M  V30 18 O 4.975401 5.190234 -13.898037 0
M  V30 19 S 8.229811 3.039514 -12.964318 0
M  V30 20 C 10.452885 6.453587 -12.367226 0
M  V30 21 C 12.471092 9.116874 -3.286273 0
M  V30 22 C 10.257116 5.990255 -7.966373 0
M  V30 23 C 5.807037 4.724280 -11.710831 0
M  V30 24 C 5.718616 4.246758 -13.173847 0 CFG=2
M  V30 25 C 10.307190 7.106217 -9.008080 0 CFG=1
M  V30 26 H 12.175457 6.552892 -7.128270 0
M  V30 27 H 11.215324 5.550606 -6.094459 0
M  V30 28 H 9.596864 7.393337 -5.744173 0
M  V30 29 H 8.442262 4.933937 -15.295453 0
M  V30 30 H 6.999270 5.882254 -15.100857 0
M  V30 31 H 8.044040 8.754941 -11.603850 0
M  V30 32 H 6.765438 3.360553 -14.787469 0
M  V30 33 H 10.401185 8.270069 -11.185013 0
M  V30 34 H 6.983082 7.518878 -13.435611 0
M  V30 35 H 11.600142 9.051965 -7.348966 0
M  V30 36 H 10.114460 9.590224 -6.586381 0
M  V30 37 H 11.817670 9.877415 -5.155742 0
M  V30 38 H 9.806570 9.198794 -9.064968 0
M  V30 39 H 8.747955 8.258100 -8.047215 0
M  V30 40 H 8.440440 4.784676 -11.270117 0
M  V30 41 H 9.943183 3.930058 -11.510581 0
M  V30 42 H 10.564179 6.388375 -3.500646 0
M  V30 43 H 12.142059 5.969660 -4.200711 0
M  V30 44 H 5.365497 6.040541 -13.760035 0
M  V30 45 H 11.354165 5.990236 -11.985025 0
M  V30 46 H 10.830562 7.061543 -13.185016 0
M  V30 47 H 12.933624 9.990233 -2.862153 0
M  V30 48 H 9.231160 5.834186 -7.628150 0
M  V30 49 H 10.575406 5.042802 -8.395281 0
M  V30 50 H 6.246443 3.964836 -11.065247 0
M  V30 51 H 6.380206 5.639019 -11.589512 0
M  V30 52 H 4.821852 4.940607 -11.308894 0
M  V30 53 H 5.148521 3.317147 -13.185041 0
M  V30 54 H 11.342374 7.235856 -9.329516 0
M  V30 END ATOM
M  V30 BEGIN BOND
M  V30 1 1 2 1
M  V30 2 1 5 3
M  V30 3 1 6 4
M  V30 4 1 7 3
M  V30 5 1 8 2
M  V30 6 2 9 4
M  V30 7 1 9 7
M  V30 8 1 10 6
M  V30 9 1 11 2
M  V30 10 1 12 7
M  V30 11 1 14 8
M  V30 12 1 15 11
M  V30 13 1 16 12
M  V30 14 1 17 8
M  V30 15 1 17 13
M  V30 16 1 19 5
M  V30 17 1 19 16
M  V30 18 1 20 6
M  V30 19 1 20 12
M  V30 20 1 21 13
M  V30 21 2 21 14
M  V30 22 1 22 1
M  V30 23 1 24 5
M  V30 24 1 24 18
M  V30 25 1 24 23
M  V30 26 1 25 10
M  V30 27 1 25 15
M  V30 28 1 25 22
M  V30 29 1 26 1
M  V30 30 1 27 1
M  V30 31 1 2 28 CFG=1
M  V30 32 1 29 3
M  V30 33 1 30 3
M  V30 34 1 31 4
M  V30 35 1 5 32 CFG=3
M  V30 36 1 6 33 CFG=1
M  V30 37 1 34 9
M  V30 38 1 35 11
M  V30 39 1 36 11
M  V30 40 1 37 14
M  V30 41 1 38 15
M  V30 42 1 39 15
M  V30 43 1 40 16
M  V30 44 1 41 16
M  V30 45 1 42 17
M  V30 46 1 43 17
M  V30 47 1 44 18
M  V30 48 1 45 20
M  V30 49 1 46 20
M  V30 50 1 47 21
M  V30 51 1 48 22
M  V30 52 1 49 22
M  V30 53 1 50 23
M  V30 54 1 51 23
M  V30 55 1 52 23
M  V30 56 1 24 53 CFG=1
M  V30 57 1 25 54 CFG=3
M  V30 END BOND
M  V30 END CTAB
M  END
>  <i_epik_Tot_Q>  (1) 
0

>  <i_epik_Tot_abs_Q>  (1) 
0

>  <i_i_glide_confnum>  (1) 
20

>  <i_i_glide_lignum>  (1) 
63

>  <i_i_glide_posenum>  (1) 
150

>  <i_i_glide_rotatable_bonds>  (1) 
5

>  <i_lp_mmshare_version>  (1) 
72125

>  <i_m_source_file_index>  (1) 
20

>  <i_f3d_flags>  (1) 
0

>  <num_sample>  (1) 
50

>  <b_lp_Chiralities_Consistent>  (1) 
1

>  <r_epik_Charging_Adjusted_Penalty>  (1) 
6.6703818214750742e-05

>  <r_epik_Ionization_Penalty>  (1) 
7.3220417460206425e-05

>  <r_epik_Ionization_Penalty_Charging>  (1) 
6.6703818214750742e-05

>  <r_epik_Ionization_Penalty_Neutral>  (1) 
6.5165992454556827e-06

>  <r_epik_State_Penalty>  (1) 
-0

>  <r_glide_ring_energy>  (1) 
0

>  <r_i_docking_score>  (1) 
-5.4318415455583882

>  <r_i_glide_ecoul>  (1) 
-0.32137711278445846

>  <r_i_glide_eff_state_penalty>  (1) 
-0

>  <r_i_glide_einternal>  (1) 
14.566204968154945

>  <r_i_glide_emodel>  (1) 
-40.040417645472687

>  <r_i_glide_emodel_strain>  (1) 
0.40221204518095988

>  <r_i_glide_energy>  (1) 
-39.178326904279999

>  <r_i_glide_erotb>  (1) 
0.52832890103692032

>  <r_i_glide_esite>  (1) 
0

>  <r_i_glide_evdw>  (1) 
-38.856949791495538

>  <r_i_glide_gscore>  (1) 
-5.4318415455583882

>  <r_i_glide_gscore_strain>  (1) 
0

>  <r_i_glide_hbond>  (1) 
0

>  <r_i_glide_ligand_efficiency>  (1) 
-0.21727366182233554

>  <r_i_glide_ligand_efficiency_ln>  (1) 
-1.2875092254529867

>  <r_i_glide_ligand_efficiency_sa>  (1) 
-0.63531204121497276

>  <r_i_glide_lipo>  (1) 
-2.9205475759592407

>  <r_i_glide_metal>  (1) 
-0

>  <r_i_glide_rewards>  (1) 
-1.0485688141436218

>  <r_lp_Energy>  (1) 
18.166922

>  <r_lp_tautomer_probability>  (1) 
1

>  <s_epik_Chemistry_Notes>  (1) 
This compound has an imine and may undergo hydrolysis. This compound contains an acetal/aminal-like group ( X-CH(R)-Y where X, Y are N, S, or O) that may be acid/base labile, releasing an aldehyde.

>  <s_epik_cmdline>  (1) 
J2VwaWtfcHl0aG9uJywgJy1waHQnLCAnMS4wJywgJy1waCcsICc3LjQnLCAnLXRuJywgJzgnLCAnLW1hJywgJzUwMCcsICctaW1hZScsICc8aW5maWxlLm1hZT4nLCAnLW9tYWUnLCAnPG91dGZpbGUubWFlPic=

>  <s_epik_input>  (1) 
W0NIMl0xU1tDSF09W0NIXU4xW0NAQEhdMltDSDJdW0NIMl1bQ0BIXShbQ0gyXVtDSDJdMilPW0NASF0oW0NIXT1bQ0hdMylbQ0gyXU4oTjM0KVtDSDJdU1tDQEhdKFtDSDJdNClbQ0BIXShbT0hdKVtDSDNd

>  <s_glide_docking_method>  (1) 
confgen

>  <s_i_glide_gridfile>  (1) 
gpcr_drd2_6luq_protein_autoprepared_prepared

>  <s_lp_Force_Field>  (1) 
S-OPLS

>  <s_lp_Variant>  (1) 
DiffSBDD_19-1

>  <s_m_source_file>  (1) 
generated_generic_title2_ligand_DiffSBDD_2026-06-23_prepared.sdf

>  <GenAI_Model>  (1) 
DiffSBDD

>  <Protein>  (1) 
generic_title2

$$$$
DiffSBDD_2
     RDKit          3D

  0  0  0  0  0  0  0  0  0  0999 V3000
M  V30 BEGIN CTAB
M  V30 COUNTS 61 63 0 0 1
M  V30 BEGIN ATOM
M  V30 1 C 9.917780 6.564409 -6.837160 0 CFG=1
M  V30 2 C 8.709784 5.856730 -11.268973 0
M  V30 3 C 11.285049 5.898891 -6.562305 0
M  V30 4 C 7.298703 1.005207 -13.696088 0
M  V30 5 N 5.673771 6.406166 -15.992759 0
M  V30 6 C 7.987504 5.504483 -12.549988 0 CFG=2
M  V30 7 C 10.579623 7.341608 -9.059139 0
M  V30 8 C 6.541836 5.082845 -12.587169 0 CFG=2
M  V30 9 C 5.238707 7.587163 -18.071624 0
M  V30 10 C 6.166015 5.590228 -15.127061 0
M  V30 11 C 5.864930 6.389724 -17.369421 0
M  V30 12 C 7.587355 3.502524 -14.321387 0 CFG=1
M  V30 13 C 8.234441 5.176449 -9.970130 0
M  V30 14 C 9.265217 5.208535 -8.824981 0
M  V30 15 C 7.609887 4.082344 -12.918646 0 CFG=1
M  V30 16 C 8.633404 5.187719 -15.908582 0
M  V30 17 C 10.585344 8.790236 -8.574641 0
M  V30 18 C 10.876706 8.899114 -7.067430 0
M  V30 19 O 6.450717 5.529575 -18.026296 0
M  V30 20 C 6.696412 2.244382 -14.380873 0
M  V30 21 C 7.297021 4.550313 -15.441772 0 CFG=2
M  V30 22 C 9.907243 8.000026 -6.285107 0
M  V30 23 N 9.564751 6.567562 -8.289869 0 CFG=1 CHG=1
M  V30 24 C 5.630693 5.575025 -13.688544 0
M  V30 25 H 9.147478 5.999966 -6.307925 0
M  V30 26 H 9.765178 5.640309 -11.437617 0
M  V30 27 H 8.600314 6.935047 -11.155353 0
M  V30 28 H 11.375498 5.612930 -5.514151 0
M  V30 29 H 11.409449 5.013555 -7.178985 0
M  V30 30 H 12.145623 6.522439 -6.786676 0
M  V30 31 H 6.634376 0.146317 -13.802253 0
M  V30 32 H 8.256108 0.732398 -14.140569 0
M  V30 33 H 7.458264 1.158357 -12.629289 0
M  V30 34 H 8.269503 6.187720 -13.342447 0
M  V30 35 H 10.381928 7.362954 -10.122029 0
M  V30 36 H 11.570052 6.898001 -8.969545 0
M  V30 37 H 6.038286 4.952847 -11.631222 0
M  V30 38 H 4.169179 7.426774 -18.211175 0
M  V30 39 H 5.693336 7.746117 -19.050016 0
M  V30 40 H 5.375375 8.487897 -17.475611 0
M  V30 41 H 8.575408 3.120240 -14.514927 0
M  V30 42 H 7.282513 5.590227 -9.639212 0
M  V30 43 H 8.027209 4.129255 -10.169155 0
M  V30 44 H 8.851152 4.598608 -8.021003 0
M  V30 45 H 10.175413 4.702855 -9.132435 0
M  V30 46 H 7.836598 3.337789 -12.162693 0
M  V30 47 H 8.500990 5.989872 -16.628727 0
M  V30 48 H 9.232547 5.590143 -15.096840 0
M  V30 49 H 9.253382 4.436330 -16.399238 0
M  V30 50 H 11.303661 9.380476 -9.146014 0
M  V30 51 H 9.594571 9.190257 -8.786741 0
M  V30 52 H 11.913582 8.630542 -6.873527 0
M  V30 53 H 10.797194 9.922841 -6.707753 0
M  V30 54 H 5.743551 2.469682 -13.915081 0
M  V30 55 H 6.499750 1.974863 -15.418676 0
M  V30 56 H 6.965632 3.957222 -16.290082 0
M  V30 57 H 10.175422 7.996062 -5.228055 0
M  V30 58 H 8.895780 8.406140 -6.348638 0
M  V30 59 H 5.315908 6.585095 -13.424978 0
M  V30 60 H 4.732006 4.959247 -13.675254 0
M  V30 61 H 8.687760 7.074949 -8.372662 0
M  V30 END ATOM
M  V30 BEGIN BOND
M  V30 1 1 3 1
M  V30 2 1 6 2
M  V30 3 1 8 6
M  V30 4 2 10 5
M  V30 5 1 11 5
M  V30 6 1 11 9
M  V30 7 1 13 2
M  V30 8 1 14 13
M  V30 9 1 15 6
M  V30 10 1 15 8
M  V30 11 1 15 12
M  V30 12 1 17 7
M  V30 13 1 18 17
M  V30 14 2 19 11
M  V30 15 1 20 4
M  V30 16 1 20 12
M  V30 17 1 21 10
M  V30 18 1 21 12
M  V30 19 1 21 16
M  V30 20 1 22 1
M  V30 21 1 22 18
M  V30 22 1 23 1
M  V30 23 1 23 7
M  V30 24 1 23 14
M  V30 25 1 24 8
M  V30 26 1 24 10
M  V30 27 1 1 25 CFG=1
M  V30 28 1 26 2
M  V30 29 1 27 2
M  V30 30 1 28 3
M  V30 31 1 29 3
M  V30 32 1 30 3
M  V30 33 1 31 4
M  V30 34 1 32 4
M  V30 35 1 33 4
M  V30 36 1 6 34 CFG=3
M  V30 37 1 35 7
M  V30 38 1 36 7
M  V30 39 1 8 37 CFG=1
M  V30 40 1 38 9
M  V30 41 1 39 9
M  V30 42 1 40 9
M  V30 43 1 12 41 CFG=3
M  V30 44 1 42 13
M  V30 45 1 43 13
M  V30 46 1 44 14
M  V30 47 1 45 14
M  V30 48 1 15 46 CFG=1
M  V30 49 1 47 16
M  V30 50 1 48 16
M  V30 51 1 49 16
M  V30 52 1 50 17
M  V30 53 1 51 17
M  V30 54 1 52 18
M  V30 55 1 53 18
M  V30 56 1 54 20
M  V30 57 1 55 20
M  V30 58 1 21 56 CFG=3
M  V30 59 1 57 22
M  V30 60 1 58 22
M  V30 61 1 59 24
M  V30 62 1 60 24
M  V30 63 1 23 61 CFG=1
M  V30 END BOND
M  V30 END CTAB
M  END
>  <i_epik_Tot_Q>  (1) 
1

>  <i_epik_Tot_abs_Q>  (1) 
1

>  <i_i_glide_confnum>  (1) 
167

>  <i_i_glide_lignum>  (1) 
23

>  <i_i_glide_posenum>  (1) 
318

>  <i_i_glide_rotatable_bonds>  (1) 
6

>  <i_lp_mmshare_version>  (1) 
72125

>  <i_m_source_file_index>  (1) 
3

>  <i_f3d_flags>  (1) 
0

>  <num_sample>  (1) 
50

>  <b_lp_Chiralities_Consistent>  (1) 
1

>  <r_epik_Charging_Adjusted_Penalty>  (1) 
0.0011657924221308697

>  <r_epik_Ionization_Penalty>  (1) 
0.0011657924221308697

>  <r_epik_Ionization_Penalty_Charging>  (1) 
0.0011657924221308697

>  <r_epik_Ionization_Penalty_Neutral>  (1) 
0

>  <r_epik_State_Penalty>  (1) 
-0

>  <r_glide_ring_energy>  (1) 
0

>  <r_i_docking_score>  (1) 
-5.4299902924781556

>  <r_i_glide_ecoul>  (1) 
-2.9459154439852719

>  <r_i_glide_eff_state_penalty>  (1) 
-0

>  <r_i_glide_einternal>  (1) 
3.2184279430261302

>  <r_i_glide_emodel>  (1) 
-42.929406799455634

>  <r_i_glide_emodel_strain>  (1) 
0.31626960319768216

>  <r_i_glide_energy>  (1) 
-30.913792763429228

>  <r_i_glide_erotb>  (1) 
0.84713914833173298

>  <r_i_glide_esite>  (1) 
-0.082158417653527438

>  <r_i_glide_evdw>  (1) 
-27.967877319443957

>  <r_i_glide_gscore>  (1) 
-5.4299902924781556

>  <r_i_glide_gscore_strain>  (1) 
0

>  <r_i_glide_hbond>  (1) 
-0.13816321382890512

>  <r_i_glide_ligand_efficiency>  (1) 
-0.22624959551992316

>  <r_i_glide_ligand_efficiency_ln>  (1) 
-1.2996458430086695

>  <r_i_glide_ligand_efficiency_sa>  (1) 
-0.65261676384166822

>  <r_i_glide_lipo>  (1) 
-1.6423554804503864

>  <r_i_glide_metal>  (1) 
-0

>  <r_i_glide_rewards>  (1) 
-2.5741711463070791

>  <r_lp_Energy>  (1) 
47.613637999999995

>  <r_lp_tautomer_probability>  (1) 
1

>  <s_epik_Chemistry_Notes>  (1) 
This compound has an imine and may undergo hydrolysis.

>  <s_epik_cmdline>  (1) 
J2VwaWtfcHl0aG9uJywgJy1waHQnLCAnMS4wJywgJy1waCcsICc3LjQnLCAnLXRuJywgJzgnLCAnLW1hJywgJzUwMCcsICctaW1hZScsICc8aW5maWxlLm1hZT4nLCAnLW9tYWUnLCAnPG91dGZpbGUubWFlPic=

>  <s_epik_input>  (1) 
W0NIM11bQ0BIXTFbQ0gyXVtDSDJdW0NIMl1bQ0gyXU4xW0NIMl1bQ0gyXVtDSDJdW0NASF0yW0NAQEhdKFtDQEBIXTIzKVtDQEBIXShbQ0gyXVtDSDNdKVtDQEhdKFtDSDNdKS9DKFtDSDJdMyk9TlxDKD1PKVtDSDNd

>  <s_glide_docking_method>  (1) 
confgen

>  <s_i_glide_gridfile>  (1) 
gpcr_drd2_6luq_protein_autoprepared_prepared

>  <s_lp_Force_Field>  (1) 
S-OPLS

>  <s_lp_Variant>  (1) 
DiffSBDD_2-3

>  <s_m_source_file>  (1) 
generated_generic_title2_ligand_DiffSBDD_2026-06-23_prepared.sdf

>  <GenAI_Model>  (1) 
DiffSBDD

>  <Protein>  (1) 
generic_title2

$$$$
DiffSBDD_12
     RDKit          3D

  0  0  0  0  0  0  0  0  0  0999 V3000
M  V30 BEGIN CTAB
M  V30 COUNTS 55 56 0 0 1
M  V30 BEGIN ATOM
M  V30 1 C 4.961991 7.349458 -18.345256 0 CFG=2
M  V30 2 C 11.594671 8.762266 -8.124761 0 CFG=1
M  V30 3 C 11.088438 8.631516 -6.676131 0
M  V30 4 C 9.947885 6.906637 -8.663454 0
M  V30 5 C 9.552950 6.678072 -7.218283 0
M  V30 6 C 8.030640 6.076214 -13.115670 0
M  V30 7 C 6.298857 7.791352 -20.509816 0
M  V30 8 C 5.017520 7.231198 -19.878526 0
M  V30 9 C 13.109198 8.565179 -8.210863 0
M  V30 10 C 6.894837 5.702370 -15.340618 0
M  V30 11 C 9.283947 6.391805 -10.938568 0
M  V30 12 C 6.746096 5.588305 -13.819052 0 CFG=1
M  V30 13 C 7.694607 4.402338 -11.253517 0
M  V30 14 C 5.985935 6.467162 -17.615252 0
M  V30 15 C 6.409910 4.136453 -13.420095 0
M  V30 16 C 5.865377 6.558671 -16.081373 0
M  V30 17 C 6.373142 3.957710 -11.896466 0
M  V30 18 O 9.290453 6.077527 -9.546775 0
M  V30 19 F 3.742508 6.985794 -17.950981 0
M  V30 20 C 10.852825 7.826123 -9.070701 0
M  V30 21 C 10.586690 7.254740 -6.232343 0
M  V30 22 O 7.804586 5.128469 -15.940227 0
M  V30 23 O 11.097420 9.589741 -5.904650 0
M  V30 24 C 7.989978 5.872979 -11.588316 0 CFG=2
M  V30 25 H 5.080641 8.389889 -18.045926 0
M  V30 26 H 11.379344 9.771446 -8.464468 0
M  V30 27 H 8.576627 7.137454 -7.054058 0
M  V30 28 H 9.427724 5.608587 -7.048693 0
M  V30 29 H 8.176242 7.134916 -13.334383 0
M  V30 30 H 8.899656 5.553119 -13.519638 0
M  V30 31 H 6.266078 7.690895 -21.594917 0
M  V30 32 H 6.419271 8.850684 -20.284383 0
M  V30 33 H 7.187110 7.264861 -20.161402 0
M  V30 34 H 4.888798 6.188666 -20.171681 0
M  V30 35 H 4.172589 7.771605 -20.303403 0
M  V30 36 H 13.375438 7.544068 -7.984947 0
M  V30 37 H 13.482542 8.788263 -9.210203 0
M  V30 38 H 13.645456 9.189774 -7.498068 0
M  V30 39 H 9.297836 7.467476 -11.117319 0
M  V30 40 H 10.164122 5.958627 -11.414089 0
M  V30 41 H 5.921596 6.230814 -13.508479 0
M  V30 42 H 8.514014 3.765702 -11.590293 0
M  V30 43 H 7.623502 4.278332 -10.172731 0
M  V30 44 H 6.992363 6.762622 -17.912924 0
M  V30 45 H 5.860974 5.430378 -17.932156 0
M  V30 46 H 7.146203 3.449190 -13.840585 0
M  V30 47 H 5.444522 3.852151 -13.838507 0
M  V30 48 H 4.871783 6.238652 -15.769243 0
M  V30 49 H 5.982778 7.593616 -15.758706 0
M  V30 50 H 6.175409 2.915051 -11.653061 0
M  V30 51 H 5.548402 4.535257 -11.475411 0
M  V30 52 H 11.089230 7.927934 -10.117387 0
M  V30 53 H 10.163842 7.316603 -5.229725 0
M  V30 54 H 11.448396 6.589552 -6.175325 0
M  V30 55 H 7.164989 6.461559 -11.186449 0
M  V30 END ATOM
M  V30 BEGIN BOND
M  V30 1 1 3 2
M  V30 2 1 5 4
M  V30 3 1 8 1
M  V30 4 1 8 7
M  V30 5 1 9 2
M  V30 6 1 12 6
M  V30 7 1 12 10
M  V30 8 1 14 1
M  V30 9 1 15 12
M  V30 10 1 16 10
M  V30 11 1 16 14
M  V30 12 1 17 13
M  V30 13 1 17 15
M  V30 14 1 18 4
M  V30 15 1 18 11
M  V30 16 1 19 1
M  V30 17 1 20 2
M  V30 18 2 20 4
M  V30 19 1 21 3
M  V30 20 1 21 5
M  V30 21 2 22 10
M  V30 22 2 23 3
M  V30 23 1 24 6
M  V30 24 1 24 11
M  V30 25 1 24 13
M  V30 26 1 1 25 CFG=3
M  V30 27 1 2 26 CFG=3
M  V30 28 1 27 5
M  V30 29 1 28 5
M  V30 30 1 29 6
M  V30 31 1 30 6
M  V30 32 1 31 7
M  V30 33 1 32 7
M  V30 34 1 33 7
M  V30 35 1 34 8
M  V30 36 1 35 8
M  V30 37 1 36 9
M  V30 38 1 37 9
M  V30 39 1 38 9
M  V30 40 1 39 11
M  V30 41 1 40 11
M  V30 42 1 12 41 CFG=1
M  V30 43 1 42 13
M  V30 44 1 43 13
M  V30 45 1 44 14
M  V30 46 1 45 14
M  V30 47 1 46 15
M  V30 48 1 47 15
M  V30 49 1 48 16
M  V30 50 1 49 16
M  V30 51 1 50 17
M  V30 52 1 51 17
M  V30 53 1 52 20
M  V30 54 1 53 21
M  V30 55 1 54 21
M  V30 56 1 24 55 CFG=1
M  V30 END BOND
M  V30 END CTAB
M  END
>  <i_epik_Tot_Q>  (1) 
0

>  <i_epik_Tot_abs_Q>  (1) 
0

>  <i_i_glide_confnum>  (1) 
122

>  <i_i_glide_lignum>  (1) 
48

>  <i_i_glide_posenum>  (1) 
380

>  <i_i_glide_rotatable_bonds>  (1) 
8

>  <i_lp_mmshare_version>  (1) 
72125

>  <i_m_source_file_index>  (1) 
13

>  <i_f3d_flags>  (1) 
0

>  <num_sample>  (1) 
50

>  <b_lp_Chiralities_Consistent>  (1) 
1

>  <r_epik_Charging_Adjusted_Penalty>  (1) 
0

>  <r_epik_Ionization_Penalty>  (1) 
4.1955247269604324e-12

>  <r_epik_Ionization_Penalty_Charging>  (1) 
0

>  <r_epik_Ionization_Penalty_Neutral>  (1) 
4.1955247269604324e-12

>  <r_epik_State_Penalty>  (1) 
-0

>  <r_glide_ring_energy>  (1) 
0

>  <r_i_docking_score>  (1) 
-5.4158768848981129

>  <r_i_glide_ecoul>  (1) 
-0.45673253480797305

>  <r_i_glide_eff_state_penalty>  (1) 
-0

>  <r_i_glide_einternal>  (1) 
1.4898643869167358

>  <r_i_glide_emodel>  (1) 
-43.362857396803683

>  <r_i_glide_emodel_strain>  (1) 
0.79971217975467823

>  <r_i_glide_energy>  (1) 
-34.065596715711415

>  <r_i_glide_erotb>  (1) 
1.1556109002290837

>  <r_i_glide_esite>  (1) 
0

>  <r_i_glide_evdw>  (1) 
-33.608864180903439

>  <r_i_glide_gscore>  (1) 
-5.4158768848981129

>  <r_i_glide_gscore_strain>  (1) 
0

>  <r_i_glide_hbond>  (1) 
0

>  <r_i_glide_ligand_efficiency>  (1) 
-0.22566153687075471

>  <r_i_glide_ligand_efficiency_ln>  (1) 
-1.2962678569526909

>  <r_i_glide_ligand_efficiency_sa>  (1) 
-0.65092050917351074

>  <r_i_glide_lipo>  (1) 
-2.2321453840705332

>  <r_i_glide_metal>  (1) 
-0

>  <r_i_glide_rewards>  (1) 
-2.590389311790295

>  <r_lp_Energy>  (1) 
11.614072

>  <r_lp_tautomer_probability>  (1) 
1

>  <s_epik_cmdline>  (1) 
J2VwaWtfcHl0aG9uJywgJy1waHQnLCAnMS4wJywgJy1waCcsICc3LjQnLCAnLXRuJywgJzgnLCAnLW1hJywgJzUwMCcsICctaW1hZScsICc8aW5maWxlLm1hZT4nLCAnLW9tYWUnLCAnPG91dGZpbGUubWFlPic=

>  <s_epik_input>  (1) 
W0NIM11bQ0gyXVtDQEBIXShGKVtDSDJdW0NIMl1DKD1PKVtDQEBIXTFbQ0gyXVtDQEBIXShbQ0gyXVtDSDJdW0NIMl0xKVtDSDJdT0MoPVtDSF0yKVtDSDJdW0NIMl1DKD1PKVtDQEhdMltDSDNd

>  <s_glide_docking_method>  (1) 
confgen

>  <s_i_glide_gridfile>  (1) 
gpcr_drd2_6luq_protein_autoprepared_prepared

>  <s_lp_Force_Field>  (1) 
S-OPLS

>  <s_lp_Variant>  (1) 
DiffSBDD_12-1

>  <s_m_source_file>  (1) 
generated_generic_title2_ligand_DiffSBDD_2026-06-23_prepared.sdf

>  <GenAI_Model>  (1) 
DiffSBDD

>  <Protein>  (1) 
generic_title2

$$$$
DiffSBDD_38
     RDKit          3D

  0  0  0  0  0  0  0  0  0  0999 V3000
M  V30 BEGIN CTAB
M  V30 COUNTS 55 57 0 0 1
M  V30 BEGIN ATOM
M  V30 1 C 11.202448 7.797892 -10.314849 0
M  V30 2 C 8.654505 5.669167 -11.649771 0
M  V30 3 N 9.109461 6.397540 -10.453457 0
M  V30 4 C 11.733321 7.329457 -3.443452 0 CFG=2
M  V30 5 C 11.870733 7.542075 -1.950351 0 CFG=1
M  V30 6 C 12.728591 6.534025 -2.648194 0
M  V30 7 C 11.580412 7.917626 -8.831954 0
M  V30 8 C 11.435388 6.932163 -6.432748 0
M  V30 9 C 10.184713 9.069808 -5.854901 0
M  V30 10 C 8.602683 6.259312 -12.869090 0
M  V30 11 C 8.267320 4.192094 -11.451037 0
M  V30 12 C 11.541062 8.360258 -5.815297 0 CFG=1
M  V30 13 C 7.359993 4.266663 -13.826732 0
M  V30 14 C 10.969555 6.847938 -7.902721 0 CFG=1
M  V30 15 C 12.140335 8.442136 -4.385021 0
M  V30 16 C 9.687230 7.768583 -10.610595 0
M  V30 17 C 8.097740 3.430967 -12.780074 0
M  V30 18 C 9.440167 6.774225 -8.012270 0
M  V30 19 C 12.575434 8.729013 -1.334162 0
M  V30 20 C 8.145765 5.547708 -14.130196 0
M  V30 21 C 8.975410 5.885225 -9.171810 0
M  V30 22 O 8.495439 4.790227 -8.913978 0
M  V30 23 H 11.628935 8.678966 -10.785019 0
M  V30 24 H 11.693065 6.954145 -10.793552 0
M  V30 25 H 10.844199 6.783484 -3.741392 0
M  V30 26 H 11.042324 7.155516 -1.357731 0
M  V30 27 H 12.512267 5.493362 -2.447761 0
M  V30 28 H 13.775404 6.779588 -2.785026 0
M  V30 29 H 11.281624 8.913970 -8.512661 0
M  V30 30 H 12.666918 7.897009 -8.740848 0
M  V30 31 H 10.773229 6.313368 -5.829536 0
M  V30 32 H 12.373699 6.390208 -6.385028 0
M  V30 33 H 9.377509 8.390231 -5.585022 0
M  V30 34 H 10.175407 9.940077 -5.197584 0
M  V30 35 H 9.951399 9.429333 -6.849228 0
M  V30 36 H 8.880295 7.279305 -12.999903 0
M  V30 37 H 9.035713 3.651130 -10.897586 0
M  V30 38 H 7.315014 4.140479 -10.920676 0
M  V30 39 H 12.217751 8.954439 -6.428872 0
M  V30 40 H 7.212917 3.690413 -14.740401 0
M  V30 41 H 6.366484 4.520412 -13.454303 0
M  V30 42 H 11.342981 5.890336 -8.247828 0
M  V30 43 H 13.225651 8.503515 -4.385024 0
M  V30 44 H 11.845939 9.388624 -3.932250 0
M  V30 45 H 9.563413 8.267303 -11.557013 0
M  V30 46 H 9.161920 8.479546 -9.975146 0
M  V30 47 H 9.080490 3.165369 -13.167574 0
M  V30 48 H 7.572150 2.490667 -12.611728 0
M  V30 49 H 8.975398 7.756092 -8.025817 0
M  V30 50 H 9.025834 6.309322 -7.116540 0
M  V30 51 H 13.253007 9.190192 -2.050039 0
M  V30 52 H 11.855851 9.474478 -0.995116 0
M  V30 53 H 13.182617 8.390227 -0.495933 0
M  V30 54 H 7.528784 6.228246 -14.717732 0
M  V30 55 H 9.027368 5.320566 -14.730420 0
M  V30 END ATOM
M  V30 BEGIN BOND
M  V30 1 1 3 2
M  V30 2 1 5 4
M  V30 3 1 6 4
M  V30 4 1 6 5
M  V30 5 1 7 1
M  V30 6 2 10 2
M  V30 7 1 11 2
M  V30 8 1 12 8
M  V30 9 1 12 9
M  V30 10 1 14 7
M  V30 11 1 14 8
M  V30 12 1 15 4
M  V30 13 1 15 12
M  V30 14 1 16 1
M  V30 15 1 16 3
M  V30 16 1 17 11
M  V30 17 1 17 13
M  V30 18 1 18 14
M  V30 19 1 19 5
M  V30 20 1 20 10
M  V30 21 1 20 13
M  V30 22 1 21 3
M  V30 23 1 21 18
M  V30 24 2 22 21
M  V30 25 1 23 1
M  V30 26 1 24 1
M  V30 27 1 4 25 CFG=1
M  V30 28 1 5 26 CFG=1
M  V30 29 1 27 6
M  V30 30 1 28 6
M  V30 31 1 29 7
M  V30 32 1 30 7
M  V30 33 1 31 8
M  V30 34 1 32 8
M  V30 35 1 33 9
M  V30 36 1 34 9
M  V30 37 1 35 9
M  V30 38 1 36 10
M  V30 39 1 37 11
M  V30 40 1 38 11
M  V30 41 1 12 39 CFG=3
M  V30 42 1 40 13
M  V30 43 1 41 13
M  V30 44 1 14 42 CFG=3
M  V30 45 1 43 15
M  V30 46 1 44 15
M  V30 47 1 45 16
M  V30 48 1 46 16
M  V30 49 1 47 17
M  V30 50 1 48 17
M  V30 51 1 49 18
M  V30 52 1 50 18
M  V30 53 1 51 19
M  V30 54 1 52 19
M  V30 55 1 53 19
M  V30 56 1 54 20
M  V30 57 1 55 20
M  V30 END BOND
M  V30 END CTAB
M  END
>  <i_epik_Tot_Q>  (1) 
0

>  <i_epik_Tot_abs_Q>  (1) 
0

>  <i_i_glide_confnum>  (1) 
401

>  <i_i_glide_lignum>  (1) 
104

>  <i_i_glide_posenum>  (1) 
55

>  <i_i_glide_rotatable_bonds>  (1) 
5

>  <i_lp_mmshare_version>  (1) 
72125

>  <i_m_source_file_index>  (1) 
39

>  <i_f3d_flags>  (1) 
0

>  <num_sample>  (1) 
50

>  <b_lp_Chiralities_Consistent>  (1) 
1

>  <r_epik_Charging_Adjusted_Penalty>  (1) 
0

>  <r_epik_Ionization_Penalty>  (1) 
3.750095861585333e-08

>  <r_epik_Ionization_Penalty_Charging>  (1) 
0

>  <r_epik_Ionization_Penalty_Neutral>  (1) 
3.750095861585333e-08

>  <r_epik_State_Penalty>  (1) 
-0

>  <r_glide_ring_energy>  (1) 
0.00030315173059249431

>  <r_i_docking_score>  (1) 
-5.410050281574124

>  <r_i_glide_ecoul>  (1) 
-0.52026675022589397

>  <r_i_glide_eff_state_penalty>  (1) 
-0

>  <r_i_glide_einternal>  (1) 
5.201859052759886

>  <r_i_glide_emodel>  (1) 
-27.18256791163077

>  <r_i_glide_emodel_strain>  (1) 
1.1986323572228343

>  <r_i_glide_energy>  (1) 
-23.053036015366132

>  <r_i_glide_erotb>  (1) 
1.0003538244760346

>  <r_i_glide_esite>  (1) 
-0.18401432209970189

>  <r_i_glide_evdw>  (1) 
-22.532769265140239

>  <r_i_glide_gscore>  (1) 
-5.410050281574124

>  <r_i_glide_gscore_strain>  (1) 
0

>  <r_i_glide_hbond>  (1) 
0

>  <r_i_glide_ligand_efficiency>  (1) 
-0.24591137643518746

>  <r_i_glide_ligand_efficiency_ln>  (1) 
-1.3224136251954661

>  <r_i_glide_ligand_efficiency_sa>  (1) 
-0.68905334862699763

>  <r_i_glide_lipo>  (1) 
-2.7818847854322866

>  <r_i_glide_metal>  (1) 
-0

>  <r_i_glide_rewards>  (1) 
-2.2398265227272738

>  <r_lp_Energy>  (1) 
35.882517999999997

>  <r_lp_tautomer_probability>  (1) 
1

>  <s_epik_cmdline>  (1) 
J2VwaWtfcHl0aG9uJywgJy1waHQnLCAnMS4wJywgJy1waCcsICc3LjQnLCAnLXRuJywgJzgnLCAnLW1hJywgJzUwMCcsICctaW1hZScsICc8aW5maWxlLm1hZT4nLCAnLW9tYWUnLCAnPG91dGZpbGUubWFlPic=

>  <s_epik_input>  (1) 
W0NIMl0xW0NIMl1bQ0gyXVtDSDJdW0NIXT1DMU4yW0NIMl1bQ0gyXVtDSDJdW0NASF0oW0NIMl1DMj1PKVtDSDJdW0NASF0oW0NIM10pW0NIMl1bQ0BASF0zW0NAQEhdKFtDSDJdMylbQ0gzXQ==

>  <s_glide_docking_method>  (1) 
confgen

>  <s_i_glide_gridfile>  (1) 
gpcr_drd2_6luq_protein_autoprepared_prepared

>  <s_lp_Force_Field>  (1) 
S-OPLS

>  <s_lp_Variant>  (1) 
DiffSBDD_38-2

>  <s_m_source_file>  (1) 
generated_generic_title2_ligand_DiffSBDD_2026-06-23_prepared.sdf

>  <GenAI_Model>  (1) 
DiffSBDD

>  <Protein>  (1) 
generic_title2

$$$$
DiffSBDD_31
     RDKit          3D

  0  0  0  0  0  0  0  0  0  0999 V3000
M  V30 BEGIN CTAB
M  V30 COUNTS 59 61 0 0 1
M  V30 BEGIN ATOM
M  V30 1 C 4.846597 7.033993 -21.605774 0
M  V30 2 C 7.199209 5.543168 -16.318454 0
M  V30 3 C 8.556091 5.225806 -16.089233 0
M  V30 4 C 8.963812 5.156081 -11.379909 0
M  V30 5 C 4.307385 7.012095 -17.246745 0
M  V30 6 O 9.375409 8.564678 -7.707206 0
M  V30 7 C 6.487722 4.864862 -18.722020 0
M  V30 8 C 9.089996 5.873718 -9.051803 0
M  V30 9 C 10.437028 7.903391 -8.345532 0 CFG=2
M  V30 10 C 6.144850 5.262919 -20.182872 0
M  V30 11 C 5.732408 7.184940 -17.815371 0 CFG=1
M  V30 12 C 5.164151 6.482040 -20.200911 0 CFG=1
M  V30 13 C 9.913863 6.955360 -9.421830 0
M  V30 14 O 6.575457 3.684062 -18.385048 0
M  V30 15 F 11.093025 7.145901 -7.432181 0
M  V30 16 C 8.485656 4.148212 -12.413544 0
M  V30 17 C 6.751258 6.009804 -17.716997 0 CFG=1
M  V30 18 C 8.612342 4.983584 -10.027410 0
M  V30 19 C 7.480253 5.580587 -20.897070 0
M  V30 20 C 8.975494 4.790218 -14.818389 0
M  V30 21 C 5.636004 7.630655 -19.285192 0
M  V30 22 C 6.267933 5.421199 -15.260515 0
M  V30 23 C 10.246489 7.149463 -10.785332 0
M  V30 24 C 8.041598 4.661164 -13.771072 0
M  V30 25 C 9.775414 6.245720 -11.761054 0
M  V30 26 C 6.689974 4.981186 -13.993146 0
M  V30 27 C 5.494222 4.052862 -20.901836 0
M  V30 28 C 11.446782 8.964049 -8.811359 0
M  V30 29 H 5.733127 7.439190 -22.093504 0
M  V30 30 H 4.416560 6.277064 -22.260013 0
M  V30 31 H 4.117229 7.842157 -21.546592 0
M  V30 32 H 9.274767 5.315801 -16.890688 0
M  V30 33 H 3.952119 5.990237 -17.313332 0
M  V30 34 H 4.264519 7.333537 -16.208322 0
M  V30 35 H 3.579052 7.636210 -17.766158 0
M  V30 36 H 8.571381 8.309631 -8.151690 0
M  V30 37 H 8.825024 5.727613 -8.014219 0
M  V30 38 H 6.172345 7.990238 -17.233646 0
M  V30 39 H 4.212780 6.124743 -19.805914 0
M  V30 40 H 9.285453 3.421274 -12.559270 0
M  V30 41 H 7.655144 3.585549 -11.986336 0
M  V30 42 H 7.670288 6.442823 -18.111975 0
M  V30 43 H 7.981961 4.159229 -9.737098 0
M  V30 44 H 7.334557 5.774589 -21.959838 0
M  V30 45 H 7.986733 6.448270 -20.473854 0
M  V30 46 H 8.174576 4.741293 -20.826828 0
M  V30 47 H 10.013647 4.544805 -14.649303 0
M  V30 48 H 6.603522 7.990169 -19.629755 0
M  V30 49 H 4.963356 8.485480 -19.368425 0
M  V30 50 H 5.233258 5.647482 -15.418708 0
M  V30 51 H 10.871327 7.975823 -11.082145 0
M  V30 52 H 10.046599 6.382587 -12.795989 0
M  V30 53 H 5.972538 4.878940 -13.191961 0
M  V30 54 H 5.307567 4.253801 -21.956206 0
M  V30 55 H 6.134602 3.169919 -20.872506 0
M  V30 56 H 4.542895 3.779785 -20.444440 0
M  V30 57 H 11.011637 9.628971 -9.554275 0
M  V30 58 H 11.775448 9.578807 -7.972997 0
M  V30 59 H 12.336143 8.505384 -9.244248 0
M  V30 END ATOM
M  V30 BEGIN BOND
M  V30 1 1 3 2
M  V30 2 1 9 6
M  V30 3 1 10 7
M  V30 4 1 11 5
M  V30 5 1 12 1
M  V30 6 1 12 10
M  V30 7 1 13 8
M  V30 8 1 13 9
M  V30 9 2 14 7
M  V30 10 1 9 15 CFG=1
M  V30 11 1 16 4
M  V30 12 1 17 2
M  V30 13 1 17 7
M  V30 14 1 17 11
M  V30 15 1 18 4
M  V30 16 2 18 8
M  V30 17 1 19 10
M  V30 18 2 20 3
M  V30 19 1 21 11
M  V30 20 1 21 12
M  V30 21 2 22 2
M  V30 22 2 23 13
M  V30 23 1 24 16
M  V30 24 1 24 20
M  V30 25 2 25 4
M  V30 26 1 25 23
M  V30 27 1 26 22
M  V30 28 2 26 24
M  V30 29 1 27 10
M  V30 30 1 28 9
M  V30 31 1 29 1
M  V30 32 1 30 1
M  V30 33 1 31 1
M  V30 34 1 32 3
M  V30 35 1 33 5
M  V30 36 1 34 5
M  V30 37 1 35 5
M  V30 38 1 36 6
M  V30 39 1 37 8
M  V30 40 1 11 38 CFG=1
M  V30 41 1 12 39 CFG=1
M  V30 42 1 40 16
M  V30 43 1 41 16
M  V30 44 1 17 42 CFG=3
M  V30 45 1 43 18
M  V30 46 1 44 19
M  V30 47 1 45 19
M  V30 48 1 46 19
M  V30 49 1 47 20
M  V30 50 1 48 21
M  V30 51 1 49 21
M  V30 52 1 50 22
M  V30 53 1 51 23
M  V30 54 1 52 25
M  V30 55 1 53 26
M  V30 56 1 54 27
M  V30 57 1 55 27
M  V30 58 1 56 27
M  V30 59 1 57 28
M  V30 60 1 58 28
M  V30 61 1 59 28
M  V30 END BOND
M  V30 END CTAB
M  END
>  <i_epik_Tot_Q>  (1) 
0

>  <i_epik_Tot_abs_Q>  (1) 
0

>  <i_i_glide_confnum>  (1) 
47

>  <i_i_glide_lignum>  (1) 
93

>  <i_i_glide_posenum>  (1) 
388

>  <i_i_glide_rotatable_bonds>  (1) 
5

>  <i_lp_mmshare_version>  (1) 
72125

>  <i_m_source_file_index>  (1) 
32

>  <i_f3d_flags>  (1) 
0

>  <num_sample>  (1) 
50

>  <b_lp_Chiralities_Consistent>  (1) 
1

>  <r_epik_Charging_Adjusted_Penalty>  (1) 
0

>  <r_epik_Ionization_Penalty>  (1) 
1.3037473646551527e-05

>  <r_epik_Ionization_Penalty_Charging>  (1) 
0

>  <r_epik_Ionization_Penalty_Neutral>  (1) 
1.3037473646551527e-05

>  <r_epik_State_Penalty>  (1) 
-0

>  <r_glide_ring_energy>  (1) 
0

>  <r_i_docking_score>  (1) 
-5.4017383242148531

>  <r_i_glide_ecoul>  (1) 
-1.5201936993315392

>  <r_i_glide_eff_state_penalty>  (1) 
-0

>  <r_i_glide_einternal>  (1) 
9.5643790920349083

>  <r_i_glide_emodel>  (1) 
-29.452169186117676

>  <r_i_glide_emodel_strain>  (1) 
2.1472038494736374

>  <r_i_glide_energy>  (1) 
-31.070592716296023

>  <r_i_glide_erotb>  (1) 
0.5309461335497756

>  <r_i_glide_esite>  (1) 
0

>  <r_i_glide_evdw>  (1) 
-29.550399016964484

>  <r_i_glide_gscore>  (1) 
-5.4017383242148531

>  <r_i_glide_gscore_strain>  (1) 
0

>  <r_i_glide_hbond>  (1) 
-0.1466257860547579

>  <r_i_glide_ligand_efficiency>  (1) 
-0.19291922586481619

>  <r_i_glide_ligand_efficiency_ln>  (1) 
-1.2468798071576714

>  <r_i_glide_ligand_efficiency_sa>  (1) 
-0.58581639372389094

>  <r_i_glide_lipo>  (1) 
-2.2591061731914048

>  <r_i_glide_metal>  (1) 
-0

>  <r_i_glide_rewards>  (1) 
-1.8214034927705116

>  <r_lp_Energy>  (1) 
34.726877999999999

>  <r_lp_tautomer_probability>  (1) 
1

>  <s_epik_cmdline>  (1) 
J2VwaWtfcHl0aG9uJywgJy1waHQnLCAnMS4wJywgJy1waCcsICc3LjQnLCAnLXRuJywgJzgnLCAnLW1hJywgJzUwMCcsICctaW1hZScsICc8aW5maWxlLm1hZT4nLCAnLW9tYWUnLCAnPG91dGZpbGUubWFlPic=

>  <s_epik_input>  (1) 
W0NIM11bQ0BASF0xW0NIMl1bQ0BASF0oW0NIM10pW0NASF0oQyg9TylDMShbQ0gzXSlbQ0gzXSljMltjSF1bY0hdYyhbY0hdW2NIXTIpW0NIMl1jM1tjSF1bY0hdYyhbQ0BdKEYpKFtPSF0pW0NIM10pW2NIXVtjSF0z

>  <s_glide_docking_method>  (1) 
confgen

>  <s_i_glide_gridfile>  (1) 
gpcr_drd2_6luq_protein_autoprepared_prepared

>  <s_lp_Force_Field>  (1) 
S-OPLS

>  <s_lp_Variant>  (1) 
DiffSBDD_31-1

>  <s_m_source_file>  (1) 
generated_generic_title2_ligand_DiffSBDD_2026-06-23_prepared.sdf

>  <GenAI_Model>  (1) 
DiffSBDD

>  <Protein>  (1) 
generic_title2

$$$$
DiffSBDD_0
     RDKit          3D

  0  0  0  0  0  0  0  0  0  0999 V3000
M  V30 BEGIN CTAB
M  V30 COUNTS 70 74 0 0 1
M  V30 BEGIN ATOM
M  V30 1 C 5.781010 7.685101 -22.407955 0
M  V30 2 N 6.623504 5.559574 -13.414197 0
M  V30 3 C 9.543885 7.647300 -11.751992 0 CFG=1
M  V30 4 C 6.411533 5.824790 -15.833750 0
M  V30 5 F 4.175219 5.303418 -21.636955 0
M  V30 6 C 6.084115 6.853219 -13.045031 0
M  V30 7 C 5.992688 8.292792 -21.012641 0
M  V30 8 C 7.322783 6.143548 -17.953010 0
M  V30 9 C 5.656740 5.985023 -19.939358 0 CFG=1
M  V30 10 C 10.360729 7.130944 -9.270673 0
M  V30 11 C 7.111708 4.782449 -12.292637 0 CFG=2
M  V30 12 C 7.104108 1.376632 -13.633983 0
M  V30 13 C 10.626286 7.358323 -10.734755 0 CFG=1
M  V30 14 O 6.575658 5.312199 -17.088830 0
M  V30 15 C 5.474675 5.377957 -21.350058 0 CFG=2
M  V30 16 C 10.455419 6.458485 -11.949946 0 CFG=1
M  V30 17 N 8.175494 7.070808 -11.585060 0 CFG=2 CHG=1
M  V30 18 C 7.091735 5.738712 -19.413770 0
M  V30 19 C 6.535696 2.539206 -12.813689 0
M  V30 20 C 8.241509 5.569296 -11.568173 0 CFG=2
M  V30 21 O 7.775378 0.475023 -12.785053 0
M  V30 22 C 5.242402 7.477899 -19.946866 0
M  V30 23 N 10.729686 8.031491 -8.315146 0
M  V30 24 C 7.223186 7.731840 -12.519717 0
M  V30 25 N 9.775921 6.017722 -8.826088 0
M  V30 26 O 9.770266 6.172342 -7.430160 0
M  V30 27 C 10.373872 7.358568 -7.236014 0
M  V30 28 O 7.564611 3.501482 -12.610109 0
M  V30 29 N 10.575561 7.694674 -5.909993 0
M  V30 30 C 6.759587 5.131654 -14.738664 0
M  V30 31 C 6.181477 6.199682 -22.446962 0
M  V30 32 C 11.230441 8.839358 -5.304561 0
M  V30 33 C 9.643415 5.197503 -12.058620 0
M  V30 34 H 4.731675 7.783329 -22.689165 0
M  V30 35 H 6.352509 8.244396 -23.149894 0
M  V30 36 H 9.640865 8.525874 -12.384514 0
M  V30 37 H 5.979717 6.814865 -15.838793 0
M  V30 38 H 5.549446 7.346478 -13.854614 0
M  V30 39 H 5.349710 6.702779 -12.252790 0
M  V30 40 H 5.641133 9.324994 -21.002516 0
M  V30 41 H 7.056948 8.333258 -20.779207 0
M  V30 42 H 7.074823 7.190248 -17.807341 0
M  V30 43 H 8.377718 6.016252 -17.704015 0
M  V30 44 H 4.978269 5.456412 -19.267259 0
M  V30 45 H 6.266737 4.675750 -11.608287 0
M  V30 46 H 7.770459 1.732892 -14.420455 0
M  V30 47 H 6.294484 0.832178 -14.121955 0
M  V30 48 H 11.501720 8.002782 -10.788231 0
M  V30 49 H 5.832152 4.347448 -21.369301 0
M  V30 50 H 11.247735 6.541710 -12.691905 0
M  V30 51 H 7.813546 6.267159 -20.036115 0
M  V30 52 H 7.337299 4.680624 -19.515470 0
M  V30 53 H 5.704306 2.978365 -13.366195 0
M  V30 54 H 6.131089 2.200704 -11.863374 0
M  V30 55 H 8.155899 5.258427 -10.530066 0
M  V30 56 H 8.423158 0.948582 -12.276297 0
M  V30 57 H 4.175514 7.550273 -20.153456 0
M  V30 58 H 5.369990 7.931963 -18.965963 0
M  V30 59 H 7.760037 8.100039 -13.396153 0
M  V30 60 H 6.829406 8.598047 -11.984999 0
M  V30 61 H 10.217052 7.023195 -5.245662 0
M  V30 62 H 7.190249 4.147054 -14.829141 0
M  V30 63 H 5.953244 5.780881 -23.427738 0
M  V30 64 H 7.261677 6.114074 -22.330740 0
M  V30 65 H 11.585384 8.592047 -4.303729 0
M  V30 66 H 12.085750 9.144729 -5.907851 0
M  V30 67 H 10.550006 9.686530 -5.233510 0
M  V30 68 H 9.630139 4.894646 -13.107024 0
M  V30 69 H 10.088871 4.389752 -11.478870 0
M  V30 70 H 7.819075 7.336322 -10.658013 0
M  V30 END ATOM
M  V30 BEGIN BOND
M  V30 1 1 6 2
M  V30 2 1 7 1
M  V30 3 1 11 2
M  V30 4 1 13 3
M  V30 5 1 13 10
M  V30 6 1 14 4
M  V30 7 1 14 8
M  V30 8 1 15 5
M  V30 9 1 15 9
M  V30 10 1 16 3
M  V30 11 1 16 13
M  V30 12 1 17 3
M  V30 13 1 18 8
M  V30 14 1 18 9
M  V30 15 1 19 12
M  V30 16 1 20 11
M  V30 17 1 20 17
M  V30 18 1 21 12
M  V30 19 1 22 7
M  V30 20 1 22 9
M  V30 21 1 23 10
M  V30 22 1 24 6
M  V30 23 1 24 17
M  V30 24 2 25 10
M  V30 25 1 26 25
M  V30 26 2 27 23
M  V30 27 1 27 26
M  V30 28 1 28 11
M  V30 29 1 28 19
M  V30 30 1 29 27
M  V30 31 1 30 2
M  V30 32 2 30 4
M  V30 33 1 31 1
M  V30 34 1 31 15
M  V30 35 1 32 29
M  V30 36 1 33 16
M  V30 37 1 33 20
M  V30 38 1 34 1
M  V30 39 1 35 1
M  V30 40 1 3 36 CFG=3
M  V30 41 1 37 4
M  V30 42 1 38 6
M  V30 43 1 39 6
M  V30 44 1 40 7
M  V30 45 1 41 7
M  V30 46 1 42 8
M  V30 47 1 43 8
M  V30 48 1 9 44 CFG=1
M  V30 49 1 11 45 CFG=1
M  V30 50 1 46 12
M  V30 51 1 47 12
M  V30 52 1 13 48 CFG=1
M  V30 53 1 15 49 CFG=1
M  V30 54 1 16 50 CFG=3
M  V30 55 1 51 18
M  V30 56 1 52 18
M  V30 57 1 53 19
M  V30 58 1 54 19
M  V30 59 1 20 55 CFG=1
M  V30 60 1 56 21
M  V30 61 1 57 22
M  V30 62 1 58 22
M  V30 63 1 59 24
M  V30 64 1 60 24
M  V30 65 1 61 29
M  V30 66 1 62 30
M  V30 67 1 63 31
M  V30 68 1 64 31
M  V30 69 1 65 32
M  V30 70 1 66 32
M  V30 71 1 67 32
M  V30 72 1 68 33
M  V30 73 1 69 33
M  V30 74 1 17 70 CFG=1
M  V30 END BOND
M  V30 END CTAB
M  END
>  <i_epik_Tot_Q>  (1) 
1

>  <i_epik_Tot_abs_Q>  (1) 
1

>  <i_i_glide_confnum>  (1) 
106

>  <i_i_glide_lignum>  (1) 
1

>  <i_i_glide_posenum>  (1) 
40

>  <i_i_glide_rotatable_bonds>  (1) 
11

>  <i_lp_mmshare_version>  (1) 
72125

>  <i_m_source_file_index>  (1) 
1

>  <i_f3d_flags>  (1) 
0

>  <num_sample>  (1) 
50

>  <b_lp_Chiralities_Consistent>  (1) 
1

>  <r_epik_Charging_Adjusted_Penalty>  (1) 
0.41344222577729461

>  <r_epik_Ionization_Penalty>  (1) 
0.0027644559619576371

>  <r_epik_Ionization_Penalty_Charging>  (1) 
0.0027623868246906495

>  <r_epik_Ionization_Penalty_Neutral>  (1) 
2.0691372669875143e-06

>  <r_epik_State_Penalty>  (1) 
0.41067983895260396

>  <r_glide_ring_energy>  (1) 
1.3007136337365919

>  <r_i_docking_score>  (1) 
-5.3989822954226012

>  <r_i_glide_ecoul>  (1) 
-8.9666916842390094

>  <r_i_glide_eff_state_penalty>  (1) 
0.41067983895260396

>  <r_i_glide_einternal>  (1) 
18.525210350335897

>  <r_i_glide_emodel>  (1) 
-44.459368054380136

>  <r_i_glide_emodel_strain>  (1) 
6.2197950511415598

>  <r_i_glide_energy>  (1) 
-47.507062461630376

>  <r_i_glide_erotb>  (1) 
0.74142510397790429

>  <r_i_glide_esite>  (1) 
-0.19461969695941506

>  <r_i_glide_evdw>  (1) 
-38.540370777391367

>  <r_i_glide_gscore>  (1) 
-5.8096621343752055

>  <r_i_glide_gscore_strain>  (1) 
0.55494876278538996

>  <r_i_glide_hbond>  (1) 
-0.44693729129802834

>  <r_i_glide_ligand_efficiency>  (1) 
-0.16360552410371518

>  <r_i_glide_ligand_efficiency_ln>  (1) 
-1.2007057080677499

>  <r_i_glide_ligand_efficiency_sa>  (1) 
-0.52477033513962612

>  <r_i_glide_lipo>  (1) 
-1.9093802495859067

>  <r_i_glide_metal>  (1) 
-0

>  <r_i_glide_rewards>  (1) 
-1.2830764717897307

>  <r_lp_Energy>  (1) 
39.475147

>  <r_lp_tautomer_probability>  (1) 
0.5

>  <s_epik_Chemistry_Notes>  (1) 
This compound has an imine and may undergo hydrolysis. This compound contains an acetal/aminal-like group ( X-CH(R)-Y where X, Y are N, S, or O) that may be acid/base labile, releasing an aldehyde.

>  <s_epik_cmdline>  (1) 
J2VwaWtfcHl0aG9uJywgJy1waHQnLCAnMS4wJywgJy1waCcsICc3LjQnLCAnLXRuJywgJzgnLCAnLW1hJywgJzUwMCcsICctaW1hZScsICc8aW5maWxlLm1hZT4nLCAnLW9tYWUnLCAnPG91dGZpbGUubWFlPic=

>  <s_epik_input>  (1) 
W0NIMl0xW0NIMl1bQ0gyXVtDSDJdW0NASF0oRilbQ0BIXTFbQ0gyXVtDSDJdTy9bQ0hdPVtDSF0vTihbQ0BIXTJPW0NIMl1bQ0gyXVtPSF0pW0NIMl1bQ0gyXU4zW0NAQEhdMltDSDJdW0NAQEhdKFtDQEBIXTM0KVtDQEBIXTRjNW5jKG9uNSlbTkhdW0NIM10=

>  <s_glide_docking_method>  (1) 
confgen

>  <s_i_glide_gridfile>  (1) 
gpcr_drd2_6luq_protein_autoprepared_prepared

>  <s_lp_Force_Field>  (1) 
S-OPLS

>  <s_lp_Variant>  (1) 
DiffSBDD_0-1

>  <s_m_source_file>  (1) 
generated_generic_title2_ligand_DiffSBDD_2026-06-23_prepared.sdf

>  <GenAI_Model>  (1) 
DiffSBDD

>  <Protein>  (1) 
generic_title2

$$$$
DiffSBDD_25
     RDKit          3D

  0  0  0  0  0  0  0  0  0  0999 V3000
M  V30 BEGIN CTAB
M  V30 COUNTS 43 45 0 0 1
M  V30 BEGIN ATOM
M  V30 1 C 10.321421 7.513836 -6.454960 0 CFG=2
M  V30 2 C 12.391064 9.049229 -3.617383 0
M  V30 3 C 12.576808 7.945233 -2.775222 0
M  V30 4 C 11.123508 7.664073 -5.185151 0
M  V30 5 N 8.772950 5.132086 -12.611524 0 CHG=1
M  V30 6 N 10.175742 6.067383 -8.666733 0
M  V30 7 C 11.333385 6.553295 -4.330481 0
M  V30 8 C 9.137072 6.574001 -6.473510 0
M  V30 9 C 7.549382 5.190305 -10.485539 0
M  V30 10 C 8.911830 5.394944 -11.167495 0 CFG=2
M  V30 11 C 9.824994 7.234298 -9.460632 0 CFG=1
M  V30 12 C 10.384859 6.217081 -7.243312 0 CFG=2
M  V30 13 C 12.051882 6.699028 -3.130987 0
M  V30 14 C 11.858747 7.618779 -10.657015 0
M  V30 15 C 10.881230 6.983839 -11.656880 0
M  V30 16 C 11.001961 8.209815 -9.562409 0
M  V30 17 C 11.664851 8.915702 -4.819022 0
M  V30 18 C 9.535441 6.803650 -10.926818 0 CFG=1
M  V30 19 H 10.166928 8.468849 -6.950802 0
M  V30 20 H 12.802526 9.996007 -3.339773 0
M  V30 21 H 13.128514 8.056081 -1.854197 0
M  V30 22 H 8.143761 5.810171 -13.015414 0
M  V30 23 H 9.678856 5.199828 -13.055164 0
M  V30 24 H 9.484658 5.344899 -8.806358 0
M  V30 25 H 10.929158 5.590582 -4.590504 0
M  V30 26 H 8.940538 5.988605 -5.585622 0
M  V30 27 H 8.225601 6.865654 -7.008560 0
M  V30 28 H 7.613150 5.346477 -9.408376 0
M  V30 29 H 6.805561 5.894091 -10.862764 0
M  V30 30 H 7.161577 4.183569 -10.641452 0
M  V30 31 H 9.599125 4.632491 -10.796091 0
M  V30 32 H 8.975458 7.732775 -9.009625 0
M  V30 33 H 11.023049 5.466134 -6.789605 0
M  V30 34 H 12.197608 5.847136 -2.483359 0
M  V30 35 H 12.554658 8.333888 -11.100757 0
M  V30 36 H 12.473040 6.863756 -10.170628 0
M  V30 37 H 10.743879 7.589128 -12.549765 0
M  V30 38 H 11.294175 6.034242 -11.992379 0
M  V30 39 H 10.635476 9.188432 -9.860605 0
M  V30 40 H 11.577470 8.345992 -8.649079 0
M  V30 41 H 11.518239 9.774285 -5.457132 0
M  V30 42 H 8.847325 7.549158 -11.331431 0
M  V30 43 H 8.402819 4.203540 -12.751910 0
M  V30 END ATOM
M  V30 BEGIN BOND
M  V30 1 2 3 2
M  V30 2 1 4 1
M  V30 3 1 7 4
M  V30 4 1 8 1
M  V30 5 1 10 5
M  V30 6 1 10 9
M  V30 7 1 11 6
M  V30 8 1 12 1
M  V30 9 1 12 6
M  V30 10 1 12 8
M  V30 11 1 13 3
M  V30 12 2 13 7
M  V30 13 1 15 14
M  V30 14 1 16 11
M  V30 15 1 16 14
M  V30 16 1 17 2
M  V30 17 2 17 4
M  V30 18 1 18 10
M  V30 19 1 18 11
M  V30 20 1 18 15
M  V30 21 1 1 19 CFG=3
M  V30 22 1 20 2
M  V30 23 1 21 3
M  V30 24 1 22 5
M  V30 25 1 23 5
M  V30 26 1 24 6
M  V30 27 1 25 7
M  V30 28 1 26 8
M  V30 29 1 27 8
M  V30 30 1 28 9
M  V30 31 1 29 9
M  V30 32 1 30 9
M  V30 33 1 10 31 CFG=1
M  V30 34 1 11 32 CFG=1
M  V30 35 1 12 33 CFG=1
M  V30 36 1 34 13
M  V30 37 1 35 14
M  V30 38 1 36 14
M  V30 39 1 37 15
M  V30 40 1 38 15
M  V30 41 1 39 16
M  V30 42 1 40 16
M  V30 43 1 41 17
M  V30 44 1 18 42 CFG=3
M  V30 45 1 43 5
M  V30 END BOND
M  V30 END CTAB
M  END
>  <i_epik_Tot_Q>  (1) 
1

>  <i_epik_Tot_abs_Q>  (1) 
1

>  <i_i_glide_confnum>  (1) 
79

>  <i_i_glide_lignum>  (1) 
75

>  <i_i_glide_posenum>  (1) 
102

>  <i_i_glide_rotatable_bonds>  (1) 
4

>  <i_lp_mmshare_version>  (1) 
72125

>  <i_m_source_file_index>  (1) 
26

>  <i_f3d_flags>  (1) 
0

>  <num_sample>  (1) 
50

>  <b_lp_Chiralities_Consistent>  (1) 
1

>  <r_epik_Charging_Adjusted_Penalty>  (1) 
0.70247939945427629

>  <r_epik_Ionization_Penalty>  (1) 
0.7024793994542764

>  <r_epik_Ionization_Penalty_Charging>  (1) 
0.00054833754919439773

>  <r_epik_Ionization_Penalty_Neutral>  (1) 
0.70193106190508203

>  <r_epik_State_Penalty>  (1) 
0.70193106190508192

>  <r_glide_ring_energy>  (1) 
0.097090295733864004

>  <r_i_docking_score>  (1) 
-5.3783272075831086

>  <r_i_glide_ecoul>  (1) 
-5.128764867629144

>  <r_i_glide_eff_state_penalty>  (1) 
0.70193106190508192

>  <r_i_glide_einternal>  (1) 
12.688653535279448

>  <r_i_glide_emodel>  (1) 
-29.532920992034075

>  <r_i_glide_emodel_strain>  (1) 
1.1897585598539564

>  <r_i_glide_energy>  (1) 
-26.683442217146872

>  <r_i_glide_erotb>  (1) 
0.86719654817177239

>  <r_i_glide_esite>  (1) 
0

>  <r_i_glide_evdw>  (1) 
-21.554677349517728

>  <r_i_glide_gscore>  (1) 
-6.0802582694881906

>  <r_i_glide_gscore_strain>  (1) 
0

>  <r_i_glide_hbond>  (1) 
0

>  <r_i_glide_ligand_efficiency>  (1) 
-0.29879595597683939

>  <r_i_glide_ligand_efficiency_ln>  (1) 
-1.3824712758277888

>  <r_i_glide_ligand_efficiency_sa>  (1) 
-0.78306693025072216

>  <r_i_glide_lipo>  (1) 
-2.4644361064033413

>  <r_i_glide_metal>  (1) 
-0

>  <r_i_glide_rewards>  (1) 
-2.6359701136363638

>  <r_lp_Energy>  (1) 
26.397838999999998

>  <s_epik_cmdline>  (1) 
J2VwaWtfcHl0aG9uJywgJy1waHQnLCAnMS4wJywgJy1waCcsICc3LjQnLCAnLXRuJywgJzgnLCAnLW1hJywgJzUwMCcsICctaW1hZScsICc8aW5maWxlLm1hZT4nLCAnLW9tYWUnLCAnPG91dGZpbGUubWFlPic=

>  <s_epik_input>  (1) 
W2NIXTFbY0hdW2NIXVtjSF1bY0hdYzFbQ0BIXTJbQ0gyXVtDQEhdMltOSF1bQ0BIXTNbQ0gyXVtDSDJdW0NIMl1bQ0BIXTNbQ0BIXShbTkgyXSlbQ0gzXQ==

>  <s_glide_docking_method>  (1) 
confgen

>  <s_i_glide_gridfile>  (1) 
gpcr_drd2_6luq_protein_autoprepared_prepared

>  <s_lp_Force_Field>  (1) 
S-OPLS

>  <s_lp_Variant>  (1) 
DiffSBDD_25-4

>  <s_m_source_file>  (1) 
generated_generic_title2_ligand_DiffSBDD_2026-06-23_prepared.sdf

>  <GenAI_Model>  (1) 
DiffSBDD

>  <Protein>  (1) 
generic_title2

$$$$
DiffSBDD_2
     RDKit          3D

  0  0  0  0  0  0  0  0  0  0999 V3000
M  V30 BEGIN CTAB
M  V30 COUNTS 61 63 0 0 1
M  V30 BEGIN ATOM
M  V30 1 C 9.788637 6.901022 -10.035398 0 CFG=1
M  V30 2 C 6.057295 6.318980 -13.094869 0
M  V30 3 C 9.786550 8.296741 -10.671776 0
M  V30 4 C 3.491397 7.188347 -17.660324 0
M  V30 5 N 7.478038 3.483014 -18.036405 0
M  V30 6 C 6.394143 5.734717 -14.449382 0 CFG=2
M  V30 7 C 8.556948 4.790339 -9.600899 0
M  V30 8 C 7.716244 5.892850 -15.162120 0 CFG=2
M  V30 9 C 7.690529 1.064386 -18.159828 0
M  V30 10 C 7.514947 4.606365 -17.411777 0
M  V30 11 C 8.289111 2.399381 -17.732573 0
M  V30 12 C 5.788168 6.393462 -16.877142 0 CFG=1
M  V30 13 C 6.708793 5.599829 -11.909956 0
M  V30 14 C 8.207764 5.923369 -11.756904 0
M  V30 15 C 6.523865 6.712648 -15.593897 0 CFG=1
M  V30 16 C 6.082712 5.570422 -19.299622 0
M  V30 17 C 8.658144 5.004934 -8.088910 0
M  V30 18 C 9.940244 5.760658 -7.739050 0
M  V30 19 O 9.392479 2.435173 -17.185087 0
M  V30 20 C 4.924699 7.594216 -17.319665 0
M  V30 21 C 6.772617 5.848686 -17.942420 0 CFG=2
M  V30 22 C 9.981586 7.080614 -8.509440 0
M  V30 23 N 8.575413 6.080554 -10.328585 0 CFG=2 CHG=1
M  V30 24 C 8.282437 4.822389 -16.085637 0
M  V30 25 H 10.635138 6.390220 -10.462490 0
M  V30 26 H 6.309882 7.379861 -13.071037 0
M  V30 27 H 4.975499 6.273278 -12.985282 0
M  V30 28 H 10.712749 8.790211 -10.385321 0
M  V30 29 H 9.780741 8.292709 -11.760179 0
M  V30 30 H 8.954100 8.905511 -10.320409 0
M  V30 31 H 2.932847 8.032487 -18.057700 0
M  V30 32 H 3.469249 6.391122 -18.395539 0
M  V30 33 H 2.975429 6.825239 -16.773689 0
M  V30 34 H 5.887424 4.790720 -14.642315 0
M  V30 35 H 7.624934 4.263962 -9.805861 0
M  V30 36 H 9.375682 4.162901 -9.959057 0
M  V30 37 H 8.477859 6.389524 -14.571338 0
M  V30 38 H 7.625260 1.004474 -19.246420 0
M  V30 39 H 6.689811 0.943103 -17.745122 0
M  V30 40 H 8.306070 0.236505 -17.808221 0
M  V30 41 H 5.092922 5.590335 -16.640147 0
M  V30 42 H 6.175933 5.927457 -11.015309 0
M  V30 43 H 6.548290 4.523244 -11.973422 0
M  V30 44 H 8.829737 5.167216 -12.238537 0
M  V30 45 H 8.389703 6.849311 -12.290887 0
M  V30 46 H 6.629343 7.772120 -15.363798 0
M  V30 47 H 6.794465 5.195406 -20.036014 0
M  V30 48 H 5.289883 4.828637 -19.196729 0
M  V30 49 H 5.643027 6.469158 -19.729958 0
M  V30 50 H 7.789412 5.561073 -7.732386 0
M  V30 51 H 8.636586 4.041967 -7.585036 0
M  V30 52 H 9.982353 5.956956 -6.666563 0
M  V30 53 H 10.814271 5.158495 -7.985018 0
M  V30 54 H 4.859449 8.338327 -16.524676 0
M  V30 55 H 5.375403 8.114245 -18.163641 0
M  V30 56 H 7.528597 6.612754 -18.126116 0
M  V30 57 H 9.200312 7.735925 -8.118876 0
M  V30 58 H 10.926902 7.584605 -8.305946 0
M  V30 59 H 8.311621 3.906792 -15.495384 0
M  V30 60 H 9.313330 5.084975 -16.322769 0
M  V30 61 H 7.821659 6.653669 -9.931638 0
M  V30 END ATOM
M  V30 BEGIN BOND
M  V30 1 1 3 1
M  V30 2 1 6 2
M  V30 3 1 8 6
M  V30 4 2 10 5
M  V30 5 1 11 5
M  V30 6 1 11 9
M  V30 7 1 13 2
M  V30 8 1 14 13
M  V30 9 1 15 6
M  V30 10 1 15 8
M  V30 11 1 15 12
M  V30 12 1 17 7
M  V30 13 1 18 17
M  V30 14 2 19 11
M  V30 15 1 20 4
M  V30 16 1 20 12
M  V30 17 1 21 10
M  V30 18 1 21 12
M  V30 19 1 21 16
M  V30 20 1 22 1
M  V30 21 1 22 18
M  V30 22 1 23 1
M  V30 23 1 23 7
M  V30 24 1 23 14
M  V30 25 1 24 8
M  V30 26 1 24 10
M  V30 27 1 1 25 CFG=3
M  V30 28 1 26 2
M  V30 29 1 27 2
M  V30 30 1 28 3
M  V30 31 1 29 3
M  V30 32 1 30 3
M  V30 33 1 31 4
M  V30 34 1 32 4
M  V30 35 1 33 4
M  V30 36 1 6 34 CFG=3
M  V30 37 1 35 7
M  V30 38 1 36 7
M  V30 39 1 8 37 CFG=1
M  V30 40 1 38 9
M  V30 41 1 39 9
M  V30 42 1 40 9
M  V30 43 1 12 41 CFG=1
M  V30 44 1 42 13
M  V30 45 1 43 13
M  V30 46 1 44 14
M  V30 47 1 45 14
M  V30 48 1 15 46 CFG=1
M  V30 49 1 47 16
M  V30 50 1 48 16
M  V30 51 1 49 16
M  V30 52 1 50 17
M  V30 53 1 51 17
M  V30 54 1 52 18
M  V30 55 1 53 18
M  V30 56 1 54 20
M  V30 57 1 55 20
M  V30 58 1 21 56 CFG=3
M  V30 59 1 57 22
M  V30 60 1 58 22
M  V30 61 1 59 24
M  V30 62 1 60 24
M  V30 63 1 23 61 CFG=1
M  V30 END BOND
M  V30 END CTAB
M  END
>  <i_epik_Tot_Q>  (1) 
1

>  <i_epik_Tot_abs_Q>  (1) 
1

>  <i_i_glide_confnum>  (1) 
108

>  <i_i_glide_lignum>  (1) 
22

>  <i_i_glide_posenum>  (1) 
117

>  <i_i_glide_rotatable_bonds>  (1) 
6

>  <i_lp_mmshare_version>  (1) 
72125

>  <i_m_source_file_index>  (1) 
3

>  <i_f3d_flags>  (1) 
0

>  <num_sample>  (1) 
50

>  <b_lp_Chiralities_Consistent>  (1) 
1

>  <r_epik_Charging_Adjusted_Penalty>  (1) 
0.0011657924221308697

>  <r_epik_Ionization_Penalty>  (1) 
0.0011657924221308697

>  <r_epik_Ionization_Penalty_Charging>  (1) 
0.0011657924221308697

>  <r_epik_Ionization_Penalty_Neutral>  (1) 
0

>  <r_epik_State_Penalty>  (1) 
-0

>  <r_glide_ring_energy>  (1) 
0

>  <r_i_docking_score>  (1) 
-5.3618667363338774

>  <r_i_glide_ecoul>  (1) 
-5.6786763043471611

>  <r_i_glide_eff_state_penalty>  (1) 
-0

>  <r_i_glide_einternal>  (1) 
7.0086732852285092

>  <r_i_glide_emodel>  (1) 
-38.827741447154949

>  <r_i_glide_emodel_strain>  (1) 
1.4703721772524716

>  <r_i_glide_energy>  (1) 
-30.665317425485213

>  <r_i_glide_erotb>  (1) 
0.84713914833173298

>  <r_i_glide_esite>  (1) 
-0.098503634195877765

>  <r_i_glide_evdw>  (1) 
-24.986641121138053

>  <r_i_glide_gscore>  (1) 
-5.3618667363338774

>  <r_i_glide_gscore_strain>  (1) 
0

>  <r_i_glide_hbond>  (1) 
-0.20000000000000001

>  <r_i_glide_ligand_efficiency>  (1) 
-0.22341111401391156

>  <r_i_glide_ligand_efficiency_ln>  (1) 
-1.2833407500370442

>  <r_i_glide_ligand_efficiency_sa>  (1) 
-0.64442916637692671

>  <r_i_glide_lipo>  (1) 
-1.6104329059785458

>  <r_i_glide_metal>  (1) 
-0

>  <r_i_glide_rewards>  (1) 
-2.1989358427822099

>  <r_lp_Energy>  (1) 
45.021229999999996

>  <r_lp_tautomer_probability>  (1) 
1

>  <s_epik_Chemistry_Notes>  (1) 
This compound has an imine and may undergo hydrolysis.

>  <s_epik_cmdline>  (1) 
J2VwaWtfcHl0aG9uJywgJy1waHQnLCAnMS4wJywgJy1waCcsICc3LjQnLCAnLXRuJywgJzgnLCAnLW1hJywgJzUwMCcsICctaW1hZScsICc8aW5maWxlLm1hZT4nLCAnLW9tYWUnLCAnPG91dGZpbGUubWFlPic=

>  <s_epik_input>  (1) 
W0NIM11bQ0BIXTFbQ0gyXVtDSDJdW0NIMl1bQ0gyXU4xW0NIMl1bQ0gyXVtDSDJdW0NASF0yW0NAQEhdKFtDQEBIXTIzKVtDQEBIXShbQ0gyXVtDSDNdKVtDQEhdKFtDSDNdKVxDKFtDSDJdMyk9TlxDKD1PKVtDSDNd

>  <s_glide_docking_method>  (1) 
confgen

>  <s_i_glide_gridfile>  (1) 
gpcr_drd2_6luq_protein_autoprepared_prepared

>  <s_lp_Force_Field>  (1) 
S-OPLS

>  <s_lp_Variant>  (1) 
DiffSBDD_2-2

>  <s_m_source_file>  (1) 
generated_generic_title2_ligand_DiffSBDD_2026-06-23_prepared.sdf

>  <GenAI_Model>  (1) 
DiffSBDD

>  <Protein>  (1) 
generic_title2

$$$$
DiffSBDD_30
     RDKit          3D

  0  0  0  0  0  0  0  0  0  0999 V3000
M  V30 BEGIN CTAB
M  V30 COUNTS 45 45 0 0 1
M  V30 BEGIN ATOM
M  V30 1 C 9.229907 4.731868 -11.151427 0
M  V30 2 N 11.773840 7.751152 -4.385008 0 CHG=-1
M  V30 3 C 5.700551 1.054284 -13.311253 0
M  V30 4 O 9.275534 6.359687 -6.613883 0
M  V30 5 C 12.071444 9.149149 -4.275284 0
M  V30 6 C 6.165517 2.477188 -13.713194 0
M  V30 7 O 8.332824 2.176211 -12.819980 0
M  V30 8 F 5.103660 3.272742 -13.584974 0
M  V30 9 N 6.573097 -0.009747 -13.837201 0 CHG=1
M  V30 10 C 11.116920 7.662767 -5.584943 0
M  V30 11 C 9.190631 5.990149 -10.281740 0 CFG=2
M  V30 12 C 11.590165 9.641520 -5.625690 0
M  V30 13 C 9.056976 4.948850 -12.672382 0
M  V30 14 C 7.251109 3.093917 -12.822323 0 CFG=1
M  V30 15 F 13.375424 9.356332 -4.131612 0
M  V30 16 F 11.375402 9.712603 -3.287262 0
M  V30 17 C 10.574093 6.314202 -6.009778 0
M  V30 18 O 11.775444 10.790225 -5.984940 0
M  V30 19 N 9.375414 6.822776 -7.982724 0
M  V30 20 F 6.575402 2.481660 -14.985586 0
M  V30 21 O 10.175367 6.895316 -10.746794 0
M  V30 22 C 9.472026 5.635344 -8.808212 0
M  V30 23 O 6.738095 5.481446 -12.889994 0
M  V30 24 N 10.969550 8.666150 -6.334220 0
M  V30 25 C 7.704518 4.513278 -13.256233 0 CFG=1
M  V30 26 H 10.175410 4.232220 -11.001034 0
M  V30 27 H 8.502943 4.031275 -10.752023 0
M  V30 28 H 5.651999 0.953531 -12.227145 0
M  V30 29 H 4.696816 0.865883 -13.695552 0
M  V30 30 H 8.968932 2.440098 -12.167147 0
M  V30 31 H 6.193780 -0.918419 -13.585030 0
M  V30 32 H 7.501003 0.113322 -13.453219 0
M  V30 33 H 8.200770 6.427842 -10.385027 0
M  V30 34 H 9.270721 5.977916 -12.961899 0
M  V30 35 H 9.822687 4.364635 -13.180895 0
M  V30 36 H 6.834075 3.190228 -11.821338 0
M  V30 37 H 10.493006 5.704371 -5.110886 0
M  V30 38 H 11.302003 5.814532 -6.650414 0
M  V30 39 H 8.474327 7.260140 -8.172709 0
M  V30 40 H 9.760607 7.496264 -11.346910 0
M  V30 41 H 8.738681 4.905838 -8.461835 0
M  V30 42 H 10.458512 5.189365 -8.690948 0
M  V30 43 H 6.752948 5.605686 -11.951421 0
M  V30 44 H 7.793438 4.545731 -14.342544 0
M  V30 45 H 6.620041 0.061231 -14.843203 0
M  V30 END ATOM
M  V30 BEGIN BOND
M  V30 1 1 5 2
M  V30 2 1 6 3
M  V30 3 1 8 6
M  V30 4 1 9 3
M  V30 5 1 10 2
M  V30 6 1 11 1
M  V30 7 1 12 5
M  V30 8 1 13 1
M  V30 9 1 14 6
M  V30 10 1 14 7
M  V30 11 1 15 5
M  V30 12 1 16 5
M  V30 13 1 17 4
M  V30 14 1 17 10
M  V30 15 2 18 12
M  V30 16 1 19 4
M  V30 17 1 20 6
M  V30 18 1 21 11
M  V30 19 1 22 11
M  V30 20 1 22 19
M  V30 21 2 24 10
M  V30 22 1 24 12
M  V30 23 1 25 13
M  V30 24 1 25 14
M  V30 25 1 25 23
M  V30 26 1 26 1
M  V30 27 1 27 1
M  V30 28 1 28 3
M  V30 29 1 29 3
M  V30 30 1 30 7
M  V30 31 1 31 9
M  V30 32 1 32 9
M  V30 33 1 11 33 CFG=1
M  V30 34 1 34 13
M  V30 35 1 35 13
M  V30 36 1 14 36 CFG=1
M  V30 37 1 37 17
M  V30 38 1 38 17
M  V30 39 1 39 19
M  V30 40 1 40 21
M  V30 41 1 41 22
M  V30 42 1 42 22
M  V30 43 1 43 23
M  V30 44 1 25 44 CFG=3
M  V30 45 1 45 9
M  V30 END BOND
M  V30 END CTAB
M  END
>  <i_epik_Tot_Q>  (1) 
0

>  <i_epik_Tot_abs_Q>  (1) 
2

>  <i_i_glide_confnum>  (1) 
2184

>  <i_i_glide_lignum>  (1) 
91

>  <i_i_glide_posenum>  (1) 
39

>  <i_i_glide_rotatable_bonds>  (1) 
14

>  <i_lp_mmshare_version>  (1) 
72125

>  <i_m_source_file_index>  (1) 
31

>  <i_f3d_flags>  (1) 
0

>  <num_sample>  (1) 
50

>  <b_lp_Chiralities_Consistent>  (1) 
1

>  <r_epik_Charging_Adjusted_Penalty>  (1) 
1.1033345343036571

>  <r_epik_Ionization_Penalty>  (1) 
0.55249664061947246

>  <r_epik_Ionization_Penalty_Charging>  (1) 
0.55167603061160131

>  <r_epik_Ionization_Penalty_Neutral>  (1) 
0.00082061000787111938

>  <r_epik_State_Penalty>  (1) 
0.55165850369205582

>  <r_glide_ring_energy>  (1) 
0

>  <r_i_docking_score>  (1) 
-5.3551256858197487

>  <r_i_glide_ecoul>  (1) 
-9.199811153259299

>  <r_i_glide_eff_state_penalty>  (1) 
0.55165850369205582

>  <r_i_glide_einternal>  (1) 
14.798330896370352

>  <r_i_glide_emodel>  (1) 
-46.233321067099695

>  <r_i_glide_emodel_strain>  (1) 
2.2372237596446922

>  <r_i_glide_energy>  (1) 
-36.486444735406813

>  <r_i_glide_erotb>  (1) 
1.2301891588113794

>  <r_i_glide_esite>  (1) 
-0.15360786999627246

>  <r_i_glide_evdw>  (1) 
-27.286633582147516

>  <r_i_glide_gscore>  (1) 
-5.9067841895118045

>  <r_i_glide_gscore_strain>  (1) 
0

>  <r_i_glide_hbond>  (1) 
-0.3717268604586802

>  <r_i_glide_ligand_efficiency>  (1) 
-0.21420502743278994

>  <r_i_glide_ligand_efficiency_ln>  (1) 
-1.26932526770613

>  <r_i_glide_ligand_efficiency_sa>  (1) 
-0.62633929982785141

>  <r_i_glide_lipo>  (1) 
-1.4213572800004817

>  <r_i_glide_metal>  (1) 
-0

>  <r_i_glide_rewards>  (1) 
-2.4459779857714774

>  <r_lp_Energy>  (1) 
22.548693

>  <s_epik_Chemistry_Notes>  (1) 
This compound has an imine and may undergo hydrolysis. This compound has a N-S or N-O group and may undergo hydrolysis at high or low pH.

>  <s_epik_cmdline>  (1) 
J2VwaWtfcHl0aG9uJywgJy1waHQnLCAnMS4wJywgJy1waCcsICc3LjQnLCAnLXRuJywgJzgnLCAnLW1hJywgJzUwMCcsICctaW1hZScsICc8aW5maWxlLm1hZT4nLCAnLW9tYWUnLCAnPG91dGZpbGUubWFlPic=

>  <s_epik_input>  (1) 
W05IMl1bQ0gyXUMoRikoRilbQ0BASF0oW09IXSlbQ0BASF0oW09IXSlbQ0gyXVtDSDJdW0NASF0oW09IXSlbQ0gyXVtOSF1PW0NIMl1DKD1OQzEoRilGKVtOSF1DMT1P

>  <s_glide_docking_method>  (1) 
confgen

>  <s_i_glide_gridfile>  (1) 
gpcr_drd2_6luq_protein_autoprepared_prepared

>  <s_lp_Force_Field>  (1) 
S-OPLS

>  <s_lp_Variant>  (1) 
DiffSBDD_30-3

>  <s_m_source_file>  (1) 
generated_generic_title2_ligand_DiffSBDD_2026-06-23_prepared.sdf

>  <GenAI_Model>  (1) 
DiffSBDD

>  <Protein>  (1) 
generic_title2

$$$$
DiffSBDD_8
     RDKit          3D

  0  0  0  0  0  0  0  0  0  0999 V3000
M  V30 BEGIN CTAB
M  V30 COUNTS 70 73 0 0 1
M  V30 BEGIN ATOM
M  V30 1 N 7.313159 3.801774 -15.542188 0
M  V30 2 C 9.099252 1.692150 -18.202500 0
M  V30 3 C 6.917289 6.499267 -12.505635 0 CFG=1
M  V30 4 N 10.866178 3.183617 -18.332694 0
M  V30 5 O 8.864786 4.009758 -13.107417 0
M  V30 6 C 9.152099 5.571974 -8.781023 0
M  V30 7 F 9.765991 5.083398 -17.718702 0
M  V30 8 C 9.743088 6.777230 -8.033002 0
M  V30 9 N 8.575327 5.990055 -10.073348 0 CHG=1
M  V30 10 C 8.276195 4.897483 -11.018555 0 CFG=1
M  V30 11 C 9.936930 3.800378 -17.397488 0 CFG=1
M  V30 12 C 12.328942 7.468701 -2.487634 0
M  V30 13 C 7.079267 5.089052 -11.945827 0 CFG=2
M  V30 14 O 10.064093 5.833806 -12.383605 0
M  V30 15 O 12.180183 3.423577 -17.800875 0
M  V30 16 C 10.299887 6.387465 -6.653962 0
M  V30 17 C 6.913784 2.712362 -13.134865 0
M  V30 18 C 7.186402 5.097822 -16.219569 0
M  V30 19 C 6.648907 3.717128 -14.258876 0 CFG=1
M  V30 20 C 8.631118 2.986005 -17.504589 0 CFG=2
M  V30 21 C 7.969806 2.750619 -16.118214 0
M  V30 22 C 5.750622 6.854060 -13.386919 0
M  V30 23 C 9.426271 4.635166 -12.004262 0 CFG=2
M  V30 24 C 7.452967 4.117496 -13.044813 0 CFG=2
M  V30 25 O 12.973943 8.390217 -1.635403 0
M  V30 26 O 8.051279 1.645464 -15.584364 0
M  V30 27 C 12.017927 8.127237 -3.835974 0
M  V30 28 C 12.799888 4.367348 -18.657727 0
M  V30 29 C 10.624247 1.761232 -18.173712 0
M  V30 30 O 11.373989 7.178903 -4.672032 0
M  V30 31 C 10.957945 7.537903 -5.892679 0
M  V30 32 N 5.775877 7.230016 -11.984701 0 CHG=1
M  V30 33 O 11.076817 8.663382 -6.379085 0
M  V30 34 H 8.732857 0.764318 -17.761434 0
M  V30 35 H 8.757403 1.693846 -19.238181 0
M  V30 36 H 7.798258 7.133861 -12.573214 0
M  V30 37 H 9.926612 4.823409 -8.948956 0
M  V30 38 H 8.372727 5.095510 -8.182804 0
M  V30 39 H 8.974879 7.542691 -7.910581 0
M  V30 40 H 10.536529 7.226746 -8.633009 0
M  V30 41 H 7.754595 6.566712 -9.858965 0
M  V30 42 H 8.097743 3.990034 -10.449773 0
M  V30 43 H 10.344338 3.765979 -16.385679 0
M  V30 44 H 12.979498 6.604788 -2.621849 0
M  V30 45 H 11.417739 7.109980 -2.009270 0
M  V30 46 H 6.149491 4.766860 -11.473657 0
M  V30 47 H 10.774010 5.587445 -12.966287 0
M  V30 48 H 11.039555 5.595363 -6.766495 0
M  V30 49 H 9.497126 5.990698 -6.031995 0
M  V30 50 H 7.651112 1.918856 -13.235974 0
M  V30 51 H 6.069984 2.455790 -12.499299 0
M  V30 52 H 8.102382 5.677045 -16.114206 0
M  V30 53 H 6.904932 5.031638 -17.270319 0
M  V30 54 H 6.397614 5.692089 -15.759346 0
M  V30 55 H 5.616780 4.052060 -14.276713 0
M  V30 56 H 7.930897 3.452884 -18.195394 0
M  V30 57 H 5.806233 7.710832 -14.049941 0
M  V30 58 H 4.975297 6.119663 -13.574779 0
M  V30 59 H 10.175413 3.990339 -11.566643 0
M  V30 60 H 12.422445 9.149547 -1.509605 0
M  V30 61 H 11.374756 8.995980 -3.690016 0
M  V30 62 H 12.936786 8.479937 -4.303420 0
M  V30 63 H 13.809997 4.579740 -18.305297 0
M  V30 64 H 12.869524 3.986005 -19.678146 0
M  V30 65 H 12.250362 5.310637 -18.674113 0
M  V30 66 H 11.012040 1.406885 -17.216803 0
M  V30 67 H 11.088391 1.183982 -18.973690 0
M  V30 68 H 5.191618 6.701837 -11.352871 0
M  V30 69 H 9.243454 6.585771 -10.544664 0
M  V30 70 H 5.991499 8.190038 -11.750555 0
M  V30 END ATOM
M  V30 BEGIN BOND
M  V30 1 1 8 6
M  V30 2 1 9 6
M  V30 3 1 10 9
M  V30 4 1 11 4
M  V30 5 1 11 7
M  V30 6 1 13 3
M  V30 7 1 13 10
M  V30 8 1 15 4
M  V30 9 1 16 8
M  V30 10 1 18 1
M  V30 11 1 19 1
M  V30 12 1 19 17
M  V30 13 1 20 2
M  V30 14 1 20 11
M  V30 15 1 21 1
M  V30 16 1 21 20
M  V30 17 1 22 3
M  V30 18 1 23 5
M  V30 19 1 23 10
M  V30 20 1 23 14
M  V30 21 1 24 5 CFG=3
M  V30 22 1 24 13
M  V30 23 1 24 17
M  V30 24 1 24 19
M  V30 25 1 25 12
M  V30 26 2 26 21
M  V30 27 1 27 12
M  V30 28 1 28 15
M  V30 29 1 29 2
M  V30 30 1 29 4
M  V30 31 1 30 27
M  V30 32 1 31 16
M  V30 33 1 31 30
M  V30 34 1 32 3
M  V30 35 1 32 22
M  V30 36 2 33 31
M  V30 37 1 34 2
M  V30 38 1 35 2
M  V30 39 1 3 36 CFG=3
M  V30 40 1 37 6
M  V30 41 1 38 6
M  V30 42 1 39 8
M  V30 43 1 40 8
M  V30 44 1 41 9
M  V30 45 1 10 42 CFG=1
M  V30 46 1 11 43 CFG=1
M  V30 47 1 44 12
M  V30 48 1 45 12
M  V30 49 1 13 46 CFG=1
M  V30 50 1 47 14
M  V30 51 1 48 16
M  V30 52 1 49 16
M  V30 53 1 50 17
M  V30 54 1 51 17
M  V30 55 1 52 18
M  V30 56 1 53 18
M  V30 57 1 54 18
M  V30 58 1 19 55 CFG=3
M  V30 59 1 20 56 CFG=3
M  V30 60 1 57 22
M  V30 61 1 58 22
M  V30 62 1 23 59 CFG=1
M  V30 63 1 60 25
M  V30 64 1 61 27
M  V30 65 1 62 27
M  V30 66 1 63 28
M  V30 67 1 64 28
M  V30 68 1 65 28
M  V30 69 1 66 29
M  V30 70 1 67 29
M  V30 71 1 68 32
M  V30 72 1 69 9
M  V30 73 1 70 32
M  V30 END BOND
M  V30 END CTAB
M  END
>  <i_epik_Tot_Q>  (1) 
2

>  <i_epik_Tot_abs_Q>  (1) 
2

>  <i_i_glide_confnum>  (1) 
6351

>  <i_i_glide_lignum>  (1) 
41

>  <i_i_glide_posenum>  (1) 
83

>  <i_i_glide_rotatable_bonds>  (1) 
15

>  <i_lp_mmshare_version>  (1) 
72125

>  <i_m_source_file_index>  (1) 
9

>  <i_f3d_flags>  (1) 
0

>  <num_sample>  (1) 
50

>  <b_lp_Chiralities_Consistent>  (1) 
1

>  <r_epik_Charging_Adjusted_Penalty>  (1) 
2.8797985042560583

>  <r_epik_Ionization_Penalty>  (1) 
1.6442763990741283

>  <r_epik_Ionization_Penalty_Charging>  (1) 
1.6439676131770962

>  <r_epik_Ionization_Penalty_Neutral>  (1) 
0.00030878589703216643

>  <r_epik_State_Penalty>  (1) 
1.2358308910789622

>  <r_glide_ring_energy>  (1) 
0

>  <r_i_docking_score>  (1) 
-5.3464742171209654

>  <r_i_glide_ecoul>  (1) 
-11.756643389503145

>  <r_i_glide_eff_state_penalty>  (1) 
1.2358308910789622

>  <r_i_glide_einternal>  (1) 
4.5563101023448915

>  <r_i_glide_emodel>  (1) 
-74.958094087345927

>  <r_i_glide_emodel_strain>  (1) 
1.078560271879752

>  <r_i_glide_energy>  (1) 
-49.109823075048077

>  <r_i_glide_erotb>  (1) 
1.0700444368793263

>  <r_i_glide_esite>  (1) 
-0.18466400747685552

>  <r_i_glide_evdw>  (1) 
-37.35317968554493

>  <r_i_glide_gscore>  (1) 
-6.5823051081999271

>  <r_i_glide_gscore_strain>  (1) 
0

>  <r_i_glide_hbond>  (1) 
-0.41607989589253169

>  <r_i_glide_ligand_efficiency>  (1) 
-0.16201437021578682

>  <r_i_glide_ligand_efficiency_ln>  (1) 
-1.1890281833257452

>  <r_i_glide_ligand_efficiency_sa>  (1) 
-0.51966665441978965

>  <r_i_glide_lipo>  (1) 
-1.6211904870575733

>  <r_i_glide_metal>  (1) 
-0

>  <r_i_glide_rewards>  (1) 
-1.7992596619495747

>  <r_lp_Energy>  (1) 
49.368469999999995

>  <s_epik_Chemistry_Notes>  (1) 
This compound has an ester and may undergo hydrolysis at high or low pH. This compound contains an acetal/aminal-like group ( X-CH(R)-Y where X, Y are N, S, or O) that may be acid/base labile, releasing an aldehyde. This compound has a N-S or N-O group and may undergo hydrolysis at high or low pH.

>  <s_epik_cmdline>  (1) 
J2VwaWtfcHl0aG9uJywgJy1waHQnLCAnMS4wJywgJy1waCcsICc3LjQnLCAnLXRuJywgJzgnLCAnLW1hJywgJzUwMCcsICctaW1hZScsICc8aW5maWxlLm1hZT4nLCAnLW9tYWUnLCAnPG91dGZpbGUubWFlPic=

>  <s_epik_input>  (1) 
W0NIM11PTjFbQ0BIXShGKVtDQEBIXShbQ0gyXVtDSDJdMSlDKD1PKU4oW0NIM10pW0NASF0yW0NIMl1DMjNPW0NAQEhdKFtPSF0pW0NASF0oW0NASF0zW0NASF00W0NIMl1bTkhdNClbTkhdW0NIMl1bQ0gyXVtDSDJdQyg9TylPW0NIMl1bQ0gyXVtPSF0=

>  <s_glide_docking_method>  (1) 
confgen

>  <s_i_glide_gridfile>  (1) 
gpcr_drd2_6luq_protein_autoprepared_prepared

>  <s_lp_Force_Field>  (1) 
S-OPLS

>  <s_lp_Variant>  (1) 
DiffSBDD_8-10

>  <s_m_source_file>  (1) 
generated_generic_title2_ligand_DiffSBDD_2026-06-23_prepared.sdf

>  <GenAI_Model>  (1) 
DiffSBDD

>  <Protein>  (1) 
generic_title2

$$$$
DiffSBDD_7
     RDKit          3D

  0  0  0  0  0  0  0  0  0  0999 V3000
M  V30 BEGIN CTAB
M  V30 COUNTS 54 59 0 0 1
M  V30 BEGIN ATOM
M  V30 1 C 10.600220 7.412108 -7.285602 0
M  V30 2 C 4.683551 7.590395 -17.362514 0
M  V30 3 N 8.648736 5.589511 -9.565283 0
M  V30 4 C 8.805675 5.241576 -12.453167 0
M  V30 5 C 6.114628 5.640807 -18.241372 0 CFG=1
M  V30 6 F 6.577422 8.532556 -20.660098 0
M  V30 7 C 12.117587 8.533334 -8.840396 0
M  V30 8 N 10.371137 7.017128 -9.625309 0
M  V30 9 C 11.709583 8.307115 -7.571459 0
M  V30 10 C 6.366034 6.500578 -15.816993 0 CFG=1
M  V30 11 N 9.541579 6.189485 -11.738325 0
M  V30 12 C 5.428417 6.296579 -17.009706 0 CFG=1
M  V30 13 C 5.970884 7.045516 -14.490910 0 CFG=2
M  V30 14 C 7.235041 6.174952 -20.552025 0
M  V30 15 C 9.520224 6.255814 -10.445175 0
M  V30 16 N 8.975946 5.940405 -8.273837 0
M  V30 17 C 11.449103 7.894288 -10.062964 0
M  V30 18 C 7.779303 2.565563 -13.571931 0
M  V30 19 C 6.884091 6.594615 -19.138875 0 CFG=1
M  V30 20 C 6.912988 3.524892 -14.184547 0
M  V30 21 C 10.000601 6.811149 -8.327576 0
M  V30 22 C 6.904004 4.862767 -14.049207 0
M  V30 23 N 9.299901 3.967350 -12.244270 0
M  V30 24 S 7.375364 7.347304 -13.307159 0
M  V30 25 C 6.201552 7.245315 -20.325093 0 CFG=1
M  V30 26 N 10.192297 7.178060 -5.988075 0
M  V30 27 O 6.975473 4.583891 -17.857884 0
M  V30 28 C 7.772277 5.652649 -13.233807 0
M  V30 29 C 8.796803 2.791848 -12.745522 0
M  V30 30 N 5.975479 5.590696 -14.740127 0
M  V30 31 H 5.375038 8.386823 -17.638235 0
M  V30 32 H 3.991886 7.440584 -18.191917 0
M  V30 33 H 4.097466 7.949869 -16.515970 0
M  V30 34 H 5.331822 5.186863 -18.850780 0
M  V30 35 H 12.949574 9.190453 -9.029826 0
M  V30 36 H 12.223836 8.793145 -6.755960 0
M  V30 37 H 7.427893 6.390715 -16.024478 0
M  V30 38 H 4.650773 5.595177 -16.704948 0
M  V30 39 H 4.976198 7.382104 -14.212092 0
M  V30 40 H 8.203516 6.481256 -20.941045 0
M  V30 41 H 6.881809 5.203109 -20.891310 0
M  V30 42 H 8.305008 5.861003 -7.522720 0
M  V30 43 H 11.040667 8.672298 -10.706072 0
M  V30 44 H 12.175370 7.324874 -10.639637 0
M  V30 45 H 7.590225 1.530314 -13.818540 0
M  V30 46 H 7.644717 7.176727 -18.623617 0
M  V30 47 H 6.175427 3.117045 -14.849523 0
M  V30 48 H 5.154539 7.051151 -20.547953 0
M  V30 49 H 10.643361 7.618047 -5.200829 0
M  V30 50 H 9.421764 6.560779 -5.774432 0
M  V30 51 H 7.639209 4.921647 -17.275982 0
M  V30 52 H 9.357299 1.949624 -12.385055 0
M  V30 53 H 7.797356 5.083336 -9.763736 0
M  V30 54 H 10.100112 3.892516 -11.634068 0
M  V30 END ATOM
M  V30 BEGIN BOND
M  V30 1 1 9 1
M  V30 2 2 9 7
M  V30 3 1 11 4
M  V30 4 1 12 2
M  V30 5 1 12 5
M  V30 6 1 12 10
M  V30 7 1 13 10
M  V30 8 1 15 3
M  V30 9 1 15 8
M  V30 10 2 15 11
M  V30 11 1 16 3
M  V30 12 1 17 7
M  V30 13 1 17 8
M  V30 14 1 19 5
M  V30 15 1 19 14
M  V30 16 1 20 18
M  V30 17 2 21 1
M  V30 18 1 21 8
M  V30 19 1 21 16
M  V30 20 2 22 20
M  V30 21 1 23 4
M  V30 22 1 24 13
M  V30 23 1 25 6
M  V30 24 1 25 14
M  V30 25 1 25 19
M  V30 26 1 26 1
M  V30 27 1 27 5
M  V30 28 2 28 4
M  V30 29 1 28 22
M  V30 30 1 28 24
M  V30 31 2 29 18
M  V30 32 1 29 23
M  V30 33 1 30 10
M  V30 34 1 30 13
M  V30 35 1 30 22
M  V30 36 1 31 2
M  V30 37 1 32 2
M  V30 38 1 33 2
M  V30 39 1 5 34 CFG=3
M  V30 40 1 35 7
M  V30 41 1 36 9
M  V30 42 1 10 37 CFG=3
M  V30 43 1 12 38 CFG=1
M  V30 44 1 13 39 CFG=3
M  V30 45 1 40 14
M  V30 46 1 41 14
M  V30 47 1 42 16
M  V30 48 1 43 17
M  V30 49 1 44 17
M  V30 50 1 45 18
M  V30 51 1 19 46 CFG=1
M  V30 52 1 47 20
M  V30 53 1 25 48 CFG=1
M  V30 54 1 49 26
M  V30 55 1 50 26
M  V30 56 1 51 27
M  V30 57 1 52 29
M  V30 58 1 53 3
M  V30 59 1 54 23
M  V30 END BOND
M  V30 END CTAB
M  END
>  <i_epik_Tot_Q>  (1) 
0

>  <i_epik_Tot_abs_Q>  (1) 
0

>  <i_i_glide_confnum>  (1) 
67

>  <i_i_glide_lignum>  (1) 
31

>  <i_i_glide_posenum>  (1) 
366

>  <i_i_glide_rotatable_bonds>  (1) 
5

>  <i_lp_mmshare_version>  (1) 
72125

>  <i_m_source_file_index>  (1) 
8

>  <i_f3d_flags>  (1) 
0

>  <num_sample>  (1) 
50

>  <b_lp_Chiralities_Consistent>  (1) 
1

>  <r_epik_Charging_Adjusted_Penalty>  (1) 
6.333210498382379e-06

>  <r_epik_Ionization_Penalty>  (1) 
0.0013272624448344454

>  <r_epik_Ionization_Penalty_Charging>  (1) 
6.333210498382379e-06

>  <r_epik_Ionization_Penalty_Neutral>  (1) 
0.0013209292343360629

>  <r_epik_State_Penalty>  (1) 
-0

>  <r_glide_ring_energy>  (1) 
0

>  <r_i_docking_score>  (1) 
-5.345014462417522

>  <r_i_glide_ecoul>  (1) 
-1.2330961582405395

>  <r_i_glide_eff_state_penalty>  (1) 
-0

>  <r_i_glide_einternal>  (1) 
5.5841789092012952

>  <r_i_glide_emodel>  (1) 
-43.986520583466373

>  <r_i_glide_emodel_strain>  (1) 
1.6596604104890389

>  <r_i_glide_energy>  (1) 
-38.637031632652011

>  <r_i_glide_erotb>  (1) 
0.43087853499794043

>  <r_i_glide_esite>  (1) 
-0.22642325013823905

>  <r_i_glide_evdw>  (1) 
-37.403935474411469

>  <r_i_glide_gscore>  (1) 
-5.345014462417522

>  <r_i_glide_gscore_strain>  (1) 
0

>  <r_i_glide_hbond>  (1) 
0

>  <r_i_glide_ligand_efficiency>  (1) 
-0.17816714874725073

>  <r_i_glide_ligand_efficiency_ln>  (1) 
-1.2144455244583745

>  <r_i_glide_ligand_efficiency_sa>  (1) 
-0.55360675608057386

>  <r_i_glide_lipo>  (1) 
-2.6516347969368694

>  <r_i_glide_metal>  (1) 
-0

>  <r_i_glide_rewards>  (1) 
-0.84267375288369828

>  <r_lp_Energy>  (1) 
40.425478999999996

>  <r_lp_tautomer_probability>  (1) 
1

>  <s_epik_Chemistry_Notes>  (1) 
This compound has an imine and may undergo hydrolysis. This compound contains an acetal/aminal-like group ( X-CH(R)-Y where X, Y are N, S, or O) that may be acid/base labile, releasing an aldehyde.

>  <s_epik_cmdline>  (1) 
J2VwaWtfcHl0aG9uJywgJy1waHQnLCAnMS4wJywgJy1waCcsICc3LjQnLCAnLXRuJywgJzgnLCAnLW1hJywgJzUwMCcsICctaW1hZScsICc8aW5maWxlLm1hZT4nLCAnLW9tYWUnLCAnPG91dGZpbGUubWFlPic=

>  <s_epik_input>  (1) 
W0NIMl0xW0NIXT1bQ0hdQyhbTkgyXSk9QyhOMTIpW05IXU49QzJbTkhdQyg9TltDSF09W0NIXVtDSF09MylbQ0BASF0oUzQpQzNOKFtDQEBIXTQ1KVtDQEhdNVtDQEBIXShbQ0gzXSlbQ0BIXShbT0hdKVtDQEhdNltDSDJdW0NAQEhdNkY=

>  <s_glide_docking_method>  (1) 
confgen

>  <s_i_glide_gridfile>  (1) 
gpcr_drd2_6luq_protein_autoprepared_prepared

>  <s_lp_Force_Field>  (1) 
S-OPLS

>  <s_lp_Variant>  (1) 
DiffSBDD_7-1

>  <s_m_source_file>  (1) 
generated_generic_title2_ligand_DiffSBDD_2026-06-23_prepared.sdf

>  <GenAI_Model>  (1) 
DiffSBDD

>  <Protein>  (1) 
generic_title2

$$$$
DiffSBDD_8
     RDKit          3D

  0  0  0  0  0  0  0  0  0  0999 V3000
M  V30 BEGIN CTAB
M  V30 COUNTS 70 73 0 0 1
M  V30 BEGIN ATOM
M  V30 1 N 7.413316 3.448424 -15.289943 0
M  V30 2 C 9.736968 5.293832 -17.625992 0
M  V30 3 C 6.930174 6.434964 -12.435875 0 CFG=1
M  V30 4 N 7.729109 5.724820 -18.811619 0
M  V30 5 O 8.804036 3.734029 -12.775932 0
M  V30 6 C 9.391386 5.614919 -8.733662 0
M  V30 7 F 6.575718 3.797599 -18.385173 0
M  V30 8 C 8.925812 6.351158 -7.462279 0
M  V30 9 N 8.575414 5.990220 -9.914574 0 CHG=1
M  V30 10 C 8.245464 4.877623 -10.836123 0 CFG=1
M  V30 11 C 7.800627 4.296685 -18.549567 0 CFG=2
M  V30 12 C 11.747821 8.971790 -9.373822 0
M  V30 13 C 7.057252 5.056947 -11.786120 0 CFG=2
M  V30 14 O 9.961682 5.683299 -12.358635 0
M  V30 15 O 7.304444 5.860123 -20.178015 0
M  V30 16 C 9.976636 6.498537 -6.347088 0
M  V30 17 C 6.707150 2.672223 -12.913739 0
M  V30 18 C 7.560521 2.064542 -15.761050 0
M  V30 19 C 6.656413 3.636395 -14.084946 0 CFG=1
M  V30 20 C 8.695974 4.202107 -17.298651 0 CFG=2
M  V30 21 C 7.917175 4.501956 -15.984042 0
M  V30 22 C 5.787459 6.768611 -13.362674 0
M  V30 23 C 9.384677 4.526262 -11.797867 0 CFG=2
M  V30 24 C 7.409466 4.007858 -12.826297 0 CFG=2
M  V30 25 O 11.775370 7.990261 -10.385026 0
M  V30 26 O 7.773286 5.665752 -15.604500 0
M  V30 27 C 12.560224 8.431865 -8.189248 0
M  V30 28 C 6.146091 6.676708 -20.169649 0
M  V30 29 C 9.134560 6.102090 -18.790139 0
M  V30 30 O 11.796896 7.403045 -7.585135 0
M  V30 31 C 10.907170 7.669783 -6.624651 0
M  V30 32 N 5.794780 7.216539 -11.985029 0 CHG=1
M  V30 33 O 10.811426 8.737974 -6.020308 0
M  V30 34 H 9.965829 5.942116 -16.778495 0
M  V30 35 H 10.683285 4.849410 -17.934133 0
M  V30 36 H 7.819155 7.056898 -12.508268 0
M  V30 37 H 10.425522 5.844019 -8.973774 0
M  V30 38 H 9.359392 4.540609 -8.546566 0
M  V30 39 H 8.058808 5.830774 -7.055534 0
M  V30 40 H 8.575426 7.349661 -7.724587 0
M  V30 41 H 7.742953 6.494340 -9.585129 0
M  V30 42 H 8.025896 3.990230 -10.246939 0
M  V30 43 H 8.253286 3.767057 -19.389773 0
M  V30 44 H 12.175492 9.893967 -9.765205 0
M  V30 45 H 10.716315 9.190265 -9.094589 0
M  V30 46 H 6.118180 4.789303 -11.298029 0
M  V30 47 H 10.639764 5.392586 -12.958658 0
M  V30 48 H 10.564917 5.590255 -6.237235 0
M  V30 49 H 9.483829 6.676862 -5.392252 0
M  V30 50 H 7.332427 1.783258 -12.982806 0
M  V30 51 H 5.786315 2.542333 -12.351105 0
M  V30 52 H 7.338850 1.958333 -16.822729 0
M  V30 53 H 8.572560 1.701144 -15.575388 0
M  V30 54 H 6.870633 1.390789 -15.252443 0
M  V30 55 H 5.685112 4.095587 -14.234061 0
M  V30 56 H 9.210792 3.243677 -17.248577 0
M  V30 57 H 5.887756 7.590252 -14.064832 0
M  V30 58 H 4.975415 6.065297 -13.513687 0
M  V30 59 H 10.175398 3.990223 -11.294091 0
M  V30 60 H 11.663730 7.149991 -9.969892 0
M  V30 61 H 13.513686 8.031487 -8.534773 0
M  V30 62 H 12.790236 9.208637 -7.462771 0
M  V30 63 H 5.785934 6.810481 -21.190324 0
M  V30 64 H 5.341676 6.223698 -19.586635 0
M  V30 65 H 6.360824 7.664532 -19.759493 0
M  V30 66 H 9.254440 7.179433 -18.688295 0
M  V30 67 H 9.612813 5.804603 -19.724695 0
M  V30 68 H 5.193724 6.731083 -11.334604 0
M  V30 69 H 9.099623 6.665638 -10.454528 0
M  V30 70 H 6.041259 8.177858 -11.792024 0
M  V30 END ATOM
M  V30 BEGIN BOND
M  V30 1 1 8 6
M  V30 2 1 9 6
M  V30 3 1 10 9
M  V30 4 1 11 4
M  V30 5 1 11 7
M  V30 6 1 13 3
M  V30 7 1 13 10
M  V30 8 1 15 4
M  V30 9 1 16 8
M  V30 10 1 18 1
M  V30 11 1 19 1
M  V30 12 1 19 17
M  V30 13 1 20 2
M  V30 14 1 20 11
M  V30 15 1 21 1
M  V30 16 1 21 20
M  V30 17 1 22 3
M  V30 18 1 23 5
M  V30 19 1 23 10
M  V30 20 1 23 14
M  V30 21 1 24 5 CFG=3
M  V30 22 1 24 13
M  V30 23 1 24 17
M  V30 24 1 24 19
M  V30 25 1 25 12
M  V30 26 2 26 21
M  V30 27 1 27 12
M  V30 28 1 28 15
M  V30 29 1 29 2
M  V30 30 1 29 4
M  V30 31 1 30 27
M  V30 32 1 31 16
M  V30 33 1 31 30
M  V30 34 1 32 3
M  V30 35 1 32 22
M  V30 36 2 33 31
M  V30 37 1 34 2
M  V30 38 1 35 2
M  V30 39 1 3 36 CFG=3
M  V30 40 1 37 6
M  V30 41 1 38 6
M  V30 42 1 39 8
M  V30 43 1 40 8
M  V30 44 1 41 9
M  V30 45 1 10 42 CFG=1
M  V30 46 1 11 43 CFG=3
M  V30 47 1 44 12
M  V30 48 1 45 12
M  V30 49 1 13 46 CFG=1
M  V30 50 1 47 14
M  V30 51 1 48 16
M  V30 52 1 49 16
M  V30 53 1 50 17
M  V30 54 1 51 17
M  V30 55 1 52 18
M  V30 56 1 53 18
M  V30 57 1 54 18
M  V30 58 1 19 55 CFG=3
M  V30 59 1 20 56 CFG=1
M  V30 60 1 57 22
M  V30 61 1 58 22
M  V30 62 1 23 59 CFG=1
M  V30 63 1 60 25
M  V30 64 1 61 27
M  V30 65 1 62 27
M  V30 66 1 63 28
M  V30 67 1 64 28
M  V30 68 1 65 28
M  V30 69 1 66 29
M  V30 70 1 67 29
M  V30 71 1 68 32
M  V30 72 1 69 9
M  V30 73 1 70 32
M  V30 END BOND
M  V30 END CTAB
M  END
>  <i_epik_Tot_Q>  (1) 
2

>  <i_epik_Tot_abs_Q>  (1) 
2

>  <i_i_glide_confnum>  (1) 
2538

>  <i_i_glide_lignum>  (1) 
40

>  <i_i_glide_posenum>  (1) 
251

>  <i_i_glide_rotatable_bonds>  (1) 
15

>  <i_lp_mmshare_version>  (1) 
72125

>  <i_m_source_file_index>  (1) 
9

>  <i_f3d_flags>  (1) 
0

>  <num_sample>  (1) 
50

>  <b_lp_Chiralities_Consistent>  (1) 
1

>  <r_epik_Charging_Adjusted_Penalty>  (1) 
2.8797985042560583

>  <r_epik_Ionization_Penalty>  (1) 
1.6442763990741283

>  <r_epik_Ionization_Penalty_Charging>  (1) 
1.6439676131770962

>  <r_epik_Ionization_Penalty_Neutral>  (1) 
0.00030878589703216643

>  <r_epik_State_Penalty>  (1) 
1.2358308910789622

>  <r_glide_ring_energy>  (1) 
0

>  <r_i_docking_score>  (1) 
-5.3319032007966225

>  <r_i_glide_ecoul>  (1) 
-12.298456847511488

>  <r_i_glide_eff_state_penalty>  (1) 
1.2358308910789622

>  <r_i_glide_einternal>  (1) 
5.6511198438271677

>  <r_i_glide_emodel>  (1) 
-70.978505097603701

>  <r_i_glide_emodel_strain>  (1) 
1.8288882439633483

>  <r_i_glide_energy>  (1) 
-48.490544329358372

>  <r_i_glide_erotb>  (1) 
1.0700444368793263

>  <r_i_glide_esite>  (1) 
-0.18413392569347381

>  <r_i_glide_evdw>  (1) 
-36.192087481846883

>  <r_i_glide_gscore>  (1) 
-6.5677340918755842

>  <r_i_glide_gscore_strain>  (1) 
0

>  <r_i_glide_hbond>  (1) 
-0.44159304026322072

>  <r_i_glide_ligand_efficiency>  (1) 
-0.16157282426656433

>  <r_i_glide_ligand_efficiency_ln>  (1) 
-1.1857876647398962

>  <r_i_glide_ligand_efficiency_sa>  (1) 
-0.51825038062938789

>  <r_i_glide_lipo>  (1) 
-1.5429406884131207

>  <r_i_glide_metal>  (1) 
-0

>  <r_i_glide_rewards>  (1) 
-1.814737973166028

>  <r_lp_Energy>  (1) 
49.698582999999999

>  <s_epik_Chemistry_Notes>  (1) 
This compound has an ester and may undergo hydrolysis at high or low pH. This compound contains an acetal/aminal-like group ( X-CH(R)-Y where X, Y are N, S, or O) that may be acid/base labile, releasing an aldehyde. This compound has a N-S or N-O group and may undergo hydrolysis at high or low pH.

>  <s_epik_cmdline>  (1) 
J2VwaWtfcHl0aG9uJywgJy1waHQnLCAnMS4wJywgJy1waCcsICc3LjQnLCAnLXRuJywgJzgnLCAnLW1hJywgJzUwMCcsICctaW1hZScsICc8aW5maWxlLm1hZT4nLCAnLW9tYWUnLCAnPG91dGZpbGUubWFlPic=

>  <s_epik_input>  (1) 
W0NIM11PTjFbQ0BIXShGKVtDQEBIXShbQ0gyXVtDSDJdMSlDKD1PKU4oW0NIM10pW0NASF0yW0NIMl1DMjNPW0NAQEhdKFtPSF0pW0NASF0oW0NASF0zW0NASF00W0NIMl1bTkhdNClbTkhdW0NIMl1bQ0gyXVtDSDJdQyg9TylPW0NIMl1bQ0gyXVtPSF0=

>  <s_glide_docking_method>  (1) 
confgen

>  <s_i_glide_gridfile>  (1) 
gpcr_drd2_6luq_protein_autoprepared_prepared

>  <s_lp_Force_Field>  (1) 
S-OPLS

>  <s_lp_Variant>  (1) 
DiffSBDD_8-9

>  <s_m_source_file>  (1) 
generated_generic_title2_ligand_DiffSBDD_2026-06-23_prepared.sdf

>  <GenAI_Model>  (1) 
DiffSBDD

>  <Protein>  (1) 
generic_title2

$$$$
DiffSBDD_37
     RDKit          3D

  0  0  0  0  0  0  0  0  0  0999 V3000
M  V30 BEGIN CTAB
M  V30 COUNTS 80 85 0 0 1
M  V30 BEGIN ATOM
M  V30 1 C 9.223997 5.702765 -11.135931 0 CFG=1
M  V30 2 O 11.375516 10.395012 -5.752961 0
M  V30 3 F 9.524248 4.900073 -18.525674 0
M  V30 4 C 9.212998 6.348162 -7.375721 0
M  V30 5 C 6.982426 7.530818 -12.104996 0
M  V30 6 O 11.029323 6.649555 -12.385190 0 CHG=-1
M  V30 7 C 10.167684 6.872524 -11.509970 0
M  V30 8 C 6.808020 5.626743 -17.654758 0
M  V30 9 C 7.615828 5.046609 -9.248382 0
M  V30 10 O 7.760799 6.646402 -12.899566 0
M  V30 11 C 8.986501 3.094482 -12.611387 0
M  V30 12 C 11.052640 6.667403 -5.545453 0
M  V30 13 F 6.511205 5.778282 -21.873815 0
M  V30 14 C 11.279888 8.826775 -7.590678 0
M  V30 15 C 8.890193 5.397707 -8.530155 0 CFG=2
M  V30 16 C 5.520132 5.925312 -15.522435 0
M  V30 17 O 8.575427 1.985262 -13.380358 0
M  V30 18 C 5.810415 4.156878 -13.615740 0
M  V30 19 C 7.289246 2.256639 -13.844949 0
M  V30 20 C 11.546429 7.358851 -7.921152 0
M  V30 21 C 11.674759 9.085141 -6.132192 0 CFG=2
M  V30 22 C 6.635534 5.734205 -20.537313 0
M  V30 23 C 6.301673 6.979428 -19.744848 0
M  V30 24 O 9.775502 4.390021 -8.784994 0
M  V30 25 C 6.871805 5.476277 -16.118604 0 CFG=1
M  V30 26 C 7.228592 4.398461 -18.475506 0 CFG=1
M  V30 27 O 10.007037 7.959072 -10.907480 0
M  V30 28 N 8.575364 5.990286 -9.818488 0 CFG=1 CHG=1
M  V30 29 C 8.124068 5.452824 -12.224711 0 CFG=1
M  V30 30 C 8.425987 4.355260 -13.282967 0 CFG=2
M  V30 31 C 5.228009 5.473991 -14.086447 0
M  V30 32 C 7.047427 4.589776 -19.972410 0
M  V30 33 C 10.739038 6.399771 -7.027724 0 CFG=2
M  V30 34 C 8.660135 3.957650 -18.147091 0 CFG=2
M  V30 35 C 6.393916 6.770275 -18.240870 0
M  V30 36 S 8.889072 3.593531 -16.388619 0
M  V30 37 C 10.937111 8.144704 -5.176742 0
M  V30 38 C 7.286818 4.050034 -15.656309 0 CFG=1
M  V30 39 C 7.220109 3.785184 -14.113093 0 CFG=2
M  V30 40 H 9.859535 4.829630 -11.068068 0
M  V30 41 H 10.459044 10.553804 -5.916086 0
M  V30 42 H 8.805457 7.337511 -7.579865 0
M  V30 43 H 8.667600 5.988616 -6.505267 0
M  V30 44 H 6.290064 7.990246 -12.785015 0
M  V30 45 H 6.346596 7.015687 -11.383915 0
M  V30 46 H 7.560944 8.306515 -11.605804 0
M  V30 47 H 7.563568 4.115544 -9.806135 0
M  V30 48 H 6.688972 5.590328 -9.185062 0
M  V30 49 H 10.070420 3.127591 -12.520543 0
M  V30 50 H 8.593725 2.994301 -11.604984 0
M  V30 51 H 10.404605 6.068627 -4.902531 0
M  V30 52 H 12.066848 6.331820 -5.329849 0
M  V30 53 H 10.231002 9.064043 -7.760534 0
M  V30 54 H 11.849847 9.471681 -8.258942 0
M  V30 55 H 4.715375 5.590230 -16.172685 0
M  V30 56 H 5.444723 7.013515 -15.546518 0
M  V30 57 H 5.132814 3.410852 -13.984747 0
M  V30 58 H 5.691710 4.047595 -12.540021 0
M  V30 59 H 7.054245 1.640318 -14.713521 0
M  V30 60 H 6.615954 1.941634 -13.045886 0
M  V30 61 H 12.608296 7.190394 -7.763262 0
M  V30 62 H 11.372492 7.142245 -8.967697 0
M  V30 63 H 12.748894 8.993855 -6.021738 0
M  V30 64 H 5.293328 7.301866 -20.002603 0
M  V30 65 H 6.983724 7.777982 -20.036880 0
M  V30 66 H 9.470590 3.597854 -8.371174 0
M  V30 67 H 7.634786 6.164970 -15.753282 0
M  V30 68 H 6.550683 3.581911 -18.235438 0
M  V30 69 H 7.242408 5.099493 -11.710911 0
M  V30 70 H 9.193850 4.749056 -13.948228 0
M  V30 71 H 4.172310 5.326655 -13.985271 0
M  V30 72 H 5.405172 6.255337 -13.383359 0
M  V30 73 H 7.268836 3.737014 -20.597811 0
M  V30 74 H 11.172104 5.413754 -7.182447 0
M  V30 75 H 8.923866 3.061639 -18.710888 0
M  V30 76 H 6.104597 7.607068 -17.624909 0
M  V30 77 H 9.879823 8.389457 -5.185917 0
M  V30 78 H 11.317103 8.298924 -4.166579 0
M  V30 79 H 6.575429 3.350479 -16.085966 0
M  V30 80 H 8.127448 6.914321 -9.762223 0
M  V30 END ATOM
M  V30 BEGIN BOND
M  V30 1 1 7 1
M  V30 2 1 7 6
M  V30 3 1 10 5
M  V30 4 1 15 4
M  V30 5 1 15 9
M  V30 6 1 17 11
M  V30 7 1 19 17
M  V30 8 1 20 14
M  V30 9 1 21 2
M  V30 10 1 21 14
M  V30 11 1 22 13
M  V30 12 1 23 22
M  V30 13 1 15 24 CFG=3
M  V30 14 1 25 8
M  V30 15 1 25 16
M  V30 16 1 26 8
M  V30 17 2 27 7
M  V30 18 1 28 1
M  V30 19 1 28 9
M  V30 20 1 28 15
M  V30 21 1 29 1
M  V30 22 1 29 10
M  V30 23 1 30 11
M  V30 24 1 30 29
M  V30 25 1 31 16
M  V30 26 1 31 18
M  V30 27 2 32 22
M  V30 28 1 32 26
M  V30 29 1 33 4
M  V30 30 1 33 12
M  V30 31 1 33 20
M  V30 32 1 34 3
M  V30 33 1 34 26
M  V30 34 2 35 8
M  V30 35 1 35 23
M  V30 36 1 36 34
M  V30 37 1 37 12
M  V30 38 1 37 21
M  V30 39 1 38 25
M  V30 40 1 38 36
M  V30 41 1 39 18 CFG=1
M  V30 42 1 39 19
M  V30 43 1 39 30
M  V30 44 1 39 38
M  V30 45 1 1 40 CFG=1
M  V30 46 1 41 2
M  V30 47 1 42 4
M  V30 48 1 43 4
M  V30 49 1 44 5
M  V30 50 1 45 5
M  V30 51 1 46 5
M  V30 52 1 47 9
M  V30 53 1 48 9
M  V30 54 1 49 11
M  V30 55 1 50 11
M  V30 56 1 51 12
M  V30 57 1 52 12
M  V30 58 1 53 14
M  V30 59 1 54 14
M  V30 60 1 55 16
M  V30 61 1 56 16
M  V30 62 1 57 18
M  V30 63 1 58 18
M  V30 64 1 59 19
M  V30 65 1 60 19
M  V30 66 1 61 20
M  V30 67 1 62 20
M  V30 68 1 21 63 CFG=3
M  V30 69 1 64 23
M  V30 70 1 65 23
M  V30 71 1 66 24
M  V30 72 1 25 67 CFG=1
M  V30 73 1 26 68 CFG=1
M  V30 74 1 29 69 CFG=1
M  V30 75 1 30 70 CFG=3
M  V30 76 1 71 31
M  V30 77 1 72 31
M  V30 78 1 73 32
M  V30 79 1 33 74 CFG=3
M  V30 80 1 34 75 CFG=3
M  V30 81 1 76 35
M  V30 82 1 77 37
M  V30 83 1 78 37
M  V30 84 1 38 79 CFG=3
M  V30 85 1 28 80 CFG=1
M  V30 END BOND
M  V30 END CTAB
M  END
>  <i_epik_Tot_Q>  (1) 
0

>  <i_epik_Tot_abs_Q>  (1) 
2

>  <i_i_glide_confnum>  (1) 
261

>  <i_i_glide_lignum>  (1) 
101

>  <i_i_glide_posenum>  (1) 
149

>  <i_i_glide_rotatable_bonds>  (1) 
9

>  <i_lp_mmshare_version>  (1) 
72125

>  <i_m_source_file_index>  (1) 
38

>  <i_f3d_flags>  (1) 
0

>  <num_sample>  (1) 
50

>  <b_lp_Chiralities_Consistent>  (1) 
1

>  <r_epik_Charging_Adjusted_Penalty>  (1) 
0.53807329711462948

>  <r_epik_Ionization_Penalty>  (1) 
0.26903764201212299

>  <r_epik_Ionization_Penalty_Charging>  (1) 
0.26903696022575102

>  <r_epik_Ionization_Penalty_Neutral>  (1) 
6.8178637198181737e-07

>  <r_epik_State_Penalty>  (1) 
0.26903633688887846

>  <r_glide_ring_energy>  (1) 
2.4632222799601484

>  <r_i_docking_score>  (1) 
-5.331037966994864

>  <r_i_glide_ecoul>  (1) 
-6.3879277388618316

>  <r_i_glide_eff_state_penalty>  (1) 
0.26903633688887846

>  <r_i_glide_einternal>  (1) 
14.98265666964314

>  <r_i_glide_emodel>  (1) 
-21.089126026436649

>  <r_i_glide_emodel_strain>  (1) 
4.5741182198514849

>  <r_i_glide_energy>  (1) 
-27.631904717497555

>  <r_i_glide_erotb>  (1) 
0.23153238063810569

>  <r_i_glide_esite>  (1) 
-0.17434985058754657

>  <r_i_glide_evdw>  (1) 
-21.243976978635722

>  <r_i_glide_gscore>  (1) 
-5.6000743038837424

>  <r_i_glide_gscore_strain>  (1) 
0.14352955496287123

>  <r_i_glide_hbond>  (1) 
-0.20000000000000001

>  <r_i_glide_ligand_efficiency>  (1) 
-0.13669328120499652

>  <r_i_glide_ligand_efficiency_ln>  (1) 
-1.1431258706356258

>  <r_i_glide_ligand_efficiency_sa>  (1) 
-0.46355581940553758

>  <r_i_glide_lipo>  (1) 
-2.8996066761243107

>  <r_i_glide_metal>  (1) 
-0

>  <r_i_glide_rewards>  (1) 
-0.68079170301180236

>  <r_lp_Energy>  (1) 
30.214154999999998

>  <s_epik_cmdline>  (1) 
J2VwaWtfcHl0aG9uJywgJy1waHQnLCAnMS4wJywgJy1waCcsICc3LjQnLCAnLXRuJywgJzgnLCAnLW1hJywgJzUwMCcsICctaW1hZScsICc8aW5maWxlLm1hZT4nLCAnLW9tYWUnLCAnPG91dGZpbGUubWFlPic=

>  <s_epik_input>  (1) 
W09IXVtDQEBIXTFbQ0gyXVtDSDJdW0NAQEhdKFtDSDJdW0NIMl0xKVtDSDJdW0NAQF0yKFtPSF0pW0NIMl1OMltDQEhdKEMoPU8pW09IXSlbQ0BASF0oT1tDSDNdKVtDQEhdM1tDSDJdT1tDSDJdW0NAXTM0W0NASF01W0NASF0oW0NIMl1bQ0gyXVtDSDJdNClDPTZbQ0BIXShbQ0BASF0oRilTNSlbQ0hdPUMoRilbQ0gyXVtDSF02

>  <s_glide_docking_method>  (1) 
confgen

>  <s_i_glide_gridfile>  (1) 
gpcr_drd2_6luq_protein_autoprepared_prepared

>  <s_lp_Force_Field>  (1) 
S-OPLS

>  <s_lp_Variant>  (1) 
DiffSBDD_37-2

>  <s_m_source_file>  (1) 
generated_generic_title2_ligand_DiffSBDD_2026-06-23_prepared.sdf

>  <GenAI_Model>  (1) 
DiffSBDD

>  <Protein>  (1) 
generic_title2

$$$$
DiffSBDD_2
     RDKit          3D

  0  0  0  0  0  0  0  0  0  0999 V3000
M  V30 BEGIN CTAB
M  V30 COUNTS 61 63 0 0 1
M  V30 BEGIN ATOM
M  V30 1 C 9.542211 6.493084 -10.609674 0 CFG=1
M  V30 2 C 5.676958 6.832872 -13.493905 0
M  V30 3 C 9.775989 7.808651 -11.365481 0
M  V30 4 C 3.395928 7.738475 -17.036045 0
M  V30 5 N 7.472637 3.620402 -18.276380 0
M  V30 6 C 5.999231 6.110487 -14.789987 0 CFG=2
M  V30 7 C 7.944537 4.744508 -9.958839 0
M  V30 8 C 7.337742 6.186278 -15.493268 0 CFG=2
M  V30 9 C 7.805544 1.232991 -18.597582 0
M  V30 10 C 7.377205 4.740429 -17.650846 0
M  V30 11 C 8.150606 2.497612 -17.817712 0
M  V30 12 C 5.558038 6.445577 -17.365505 0 CFG=1
M  V30 13 C 6.855382 7.132226 -12.557773 0
M  V30 14 C 7.619943 5.868802 -12.117745 0
M  V30 15 C 6.154020 6.932456 -16.055196 0 CFG=1
M  V30 16 C 6.245802 5.687435 -19.744727 0
M  V30 17 C 8.261666 4.928268 -8.471285 0
M  V30 18 C 9.684590 5.447135 -8.267229 0
M  V30 19 O 8.962090 2.449323 -16.891903 0
M  V30 20 C 4.585536 7.472718 -17.967005 0
M  V30 21 C 6.700129 5.963363 -18.291968 0 CFG=2
M  V30 22 C 9.924836 6.695787 -9.123520 0
M  V30 23 N 8.146111 5.990187 -10.732112 0 CFG=2 CHG=1
M  V30 24 C 7.907056 4.969855 -16.216157 0
M  V30 25 H 10.175498 5.728189 -11.051705 0
M  V30 26 H 5.140507 7.751654 -13.728303 0
M  V30 27 H 4.975592 6.210297 -12.943401 0
M  V30 28 H 10.760272 8.209542 -11.128321 0
M  V30 29 H 9.743303 7.667923 -12.444040 0
M  V30 30 H 9.036673 8.562452 -11.090508 0
M  V30 31 H 2.655023 8.388048 -17.504165 0
M  V30 32 H 2.904338 6.802267 -16.778570 0
M  V30 33 H 3.718036 8.225210 -16.115004 0
M  V30 34 H 5.460362 5.171813 -14.893041 0
M  V30 35 H 6.916200 4.391411 -10.053175 0
M  V30 36 H 8.597567 3.989527 -10.386567 0
M  V30 37 H 8.095424 6.789195 -15.001989 0
M  V30 38 H 8.002178 1.375040 -19.660782 0
M  V30 39 H 6.750477 0.987832 -18.471900 0
M  V30 40 H 8.396930 0.385212 -18.251598 0
M  V30 41 H 4.930421 5.589995 -17.139250 0
M  V30 42 H 7.524273 7.858076 -13.017127 0
M  V30 43 H 6.441799 7.629573 -11.678168 0
M  V30 44 H 6.926652 5.027780 -12.164770 0
M  V30 45 H 8.417705 5.616752 -12.817867 0
M  V30 46 H 6.220661 8.015597 -15.958087 0
M  V30 47 H 7.065839 5.301495 -20.351585 0
M  V30 48 H 5.433455 4.960329 -19.779342 0
M  V30 49 H 5.906514 6.596936 -20.239236 0
M  V30 50 H 7.536285 5.590488 -8.014989 0
M  V30 51 H 8.133975 3.989570 -7.947364 0
M  V30 52 H 9.852264 5.673187 -7.213679 0
M  V30 53 H 10.395452 4.665495 -8.527040 0
M  V30 54 H 5.116224 8.390600 -18.205005 0
M  V30 55 H 4.177112 7.102688 -18.905583 0
M  V30 56 H 7.449320 6.754380 -18.350523 0
M  V30 57 H 9.349852 7.525470 -8.709937 0
M  V30 58 H 10.972751 6.986526 -9.044224 0
M  V30 59 H 7.681369 4.108863 -15.586628 0
M  V30 60 H 8.992401 5.070144 -16.254738 0
M  V30 61 H 7.566273 6.689900 -10.252108 0
M  V30 END ATOM
M  V30 BEGIN BOND
M  V30 1 1 3 1
M  V30 2 1 6 2
M  V30 3 1 8 6
M  V30 4 2 10 5
M  V30 5 1 11 5
M  V30 6 1 11 9
M  V30 7 1 13 2
M  V30 8 1 14 13
M  V30 9 1 15 6
M  V30 10 1 15 8
M  V30 11 1 15 12
M  V30 12 1 17 7
M  V30 13 1 18 17
M  V30 14 2 19 11
M  V30 15 1 20 4
M  V30 16 1 20 12
M  V30 17 1 21 10
M  V30 18 1 21 12
M  V30 19 1 21 16
M  V30 20 1 22 1
M  V30 21 1 22 18
M  V30 22 1 23 1
M  V30 23 1 23 7
M  V30 24 1 23 14
M  V30 25 1 24 8
M  V30 26 1 24 10
M  V30 27 1 1 25 CFG=3
M  V30 28 1 26 2
M  V30 29 1 27 2
M  V30 30 1 28 3
M  V30 31 1 29 3
M  V30 32 1 30 3
M  V30 33 1 31 4
M  V30 34 1 32 4
M  V30 35 1 33 4
M  V30 36 1 6 34 CFG=3
M  V30 37 1 35 7
M  V30 38 1 36 7
M  V30 39 1 8 37 CFG=1
M  V30 40 1 38 9
M  V30 41 1 39 9
M  V30 42 1 40 9
M  V30 43 1 12 41 CFG=1
M  V30 44 1 42 13
M  V30 45 1 43 13
M  V30 46 1 44 14
M  V30 47 1 45 14
M  V30 48 1 15 46 CFG=1
M  V30 49 1 47 16
M  V30 50 1 48 16
M  V30 51 1 49 16
M  V30 52 1 50 17
M  V30 53 1 51 17
M  V30 54 1 52 18
M  V30 55 1 53 18
M  V30 56 1 54 20
M  V30 57 1 55 20
M  V30 58 1 21 56 CFG=3
M  V30 59 1 57 22
M  V30 60 1 58 22
M  V30 61 1 59 24
M  V30 62 1 60 24
M  V30 63 1 23 61 CFG=1
M  V30 END BOND
M  V30 END CTAB
M  END
>  <i_epik_Tot_Q>  (1) 
1

>  <i_epik_Tot_abs_Q>  (1) 
1

>  <i_i_glide_confnum>  (1) 
189

>  <i_i_glide_lignum>  (1) 
22

>  <i_i_glide_posenum>  (1) 
97

>  <i_i_glide_rotatable_bonds>  (1) 
6

>  <i_lp_mmshare_version>  (1) 
72125

>  <i_m_source_file_index>  (1) 
3

>  <i_f3d_flags>  (1) 
0

>  <num_sample>  (1) 
50

>  <b_lp_Chiralities_Consistent>  (1) 
1

>  <r_epik_Charging_Adjusted_Penalty>  (1) 
0.0011657924221308697

>  <r_epik_Ionization_Penalty>  (1) 
0.0011657924221308697

>  <r_epik_Ionization_Penalty_Charging>  (1) 
0.0011657924221308697

>  <r_epik_Ionization_Penalty_Neutral>  (1) 
0

>  <r_epik_State_Penalty>  (1) 
-0

>  <r_glide_ring_energy>  (1) 
0

>  <r_i_docking_score>  (1) 
-5.32818288054502

>  <r_i_glide_ecoul>  (1) 
-5.7977063681497549

>  <r_i_glide_eff_state_penalty>  (1) 
-0

>  <r_i_glide_einternal>  (1) 
9.3872880962887244

>  <r_i_glide_emodel>  (1) 
-37.428496095101565

>  <r_i_glide_emodel_strain>  (1) 
0.78418627213918768

>  <r_i_glide_energy>  (1) 
-29.851722534353168

>  <r_i_glide_erotb>  (1) 
0.84713914833173298

>  <r_i_glide_esite>  (1) 
-0.098131732787015535

>  <r_i_glide_evdw>  (1) 
-24.054016166203414

>  <r_i_glide_gscore>  (1) 
-5.32818288054502

>  <r_i_glide_gscore_strain>  (1) 
0

>  <r_i_glide_hbond>  (1) 
-0.20000000000000001

>  <r_i_glide_ligand_efficiency>  (1) 
-0.22200762002270916

>  <r_i_glide_ligand_efficiency_ln>  (1) 
-1.2752786576953443

>  <r_i_glide_ligand_efficiency_sa>  (1) 
-0.64038078916544539

>  <r_i_glide_lipo>  (1) 
-1.6080160441679425

>  <r_i_glide_metal>  (1) 
-0

>  <r_i_glide_rewards>  (1) 
-2.1968174883891605

>  <r_lp_Energy>  (1) 
45.021229999999996

>  <r_lp_tautomer_probability>  (1) 
1

>  <s_epik_Chemistry_Notes>  (1) 
This compound has an imine and may undergo hydrolysis.

>  <s_epik_cmdline>  (1) 
J2VwaWtfcHl0aG9uJywgJy1waHQnLCAnMS4wJywgJy1waCcsICc3LjQnLCAnLXRuJywgJzgnLCAnLW1hJywgJzUwMCcsICctaW1hZScsICc8aW5maWxlLm1hZT4nLCAnLW9tYWUnLCAnPG91dGZpbGUubWFlPic=

>  <s_epik_input>  (1) 
W0NIM11bQ0BIXTFbQ0gyXVtDSDJdW0NIMl1bQ0gyXU4xW0NIMl1bQ0gyXVtDSDJdW0NASF0yW0NAQEhdKFtDQEBIXTIzKVtDQEBIXShbQ0gyXVtDSDNdKVtDQEhdKFtDSDNdKVxDKFtDSDJdMyk9TlxDKD1PKVtDSDNd

>  <s_glide_docking_method>  (1) 
confgen

>  <s_i_glide_gridfile>  (1) 
gpcr_drd2_6luq_protein_autoprepared_prepared

>  <s_lp_Force_Field>  (1) 
S-OPLS

>  <s_lp_Variant>  (1) 
DiffSBDD_2-2

>  <s_m_source_file>  (1) 
generated_generic_title2_ligand_DiffSBDD_2026-06-23_prepared.sdf

>  <GenAI_Model>  (1) 
DiffSBDD

>  <Protein>  (1) 
generic_title2

$$$$
DiffSBDD_33
     RDKit          3D

  0  0  0  0  0  0  0  0  0  0999 V3000
M  V30 BEGIN CTAB
M  V30 COUNTS 57 63 0 0 1
M  V30 BEGIN ATOM
M  V30 1 C 9.312976 3.917075 -11.679659 0
M  V30 2 C 7.783437 5.542171 -12.850996 0
M  V30 3 C 9.957955 6.705191 -10.708292 0 CFG=2
M  V30 4 C 8.708015 6.277363 -6.928195 0
M  V30 5 C 6.291041 5.321552 -17.709522 0
M  V30 6 C 8.175410 7.897170 -11.780589 0
M  V30 7 C 7.188222 5.089995 -15.210610 0
M  V30 8 S 6.009793 7.190226 -14.253276 0
M  V30 9 C 7.991955 3.922843 -15.119192 0
M  V30 10 C 6.432076 5.693774 -16.342485 0
M  V30 11 C 11.775407 7.741592 -6.689711 0
M  V30 12 C 7.070132 5.889474 -14.007823 0
M  V30 13 C 5.481136 6.063149 -18.590764 0
M  V30 14 N 8.699473 5.987990 -10.544025 0
M  V30 15 C 4.908949 7.590229 -16.799327 0
M  V30 16 O 10.978654 9.675955 -5.452225 0
M  V30 17 C 11.355557 9.191946 -6.724058 0 CFG=2
M  V30 18 N 8.575409 3.589848 -13.947622 0
M  V30 19 C 5.719209 6.867458 -15.916658 0
M  V30 20 C 4.789037 7.190250 -18.135090 0
M  V30 21 N 10.536814 8.098668 -8.802340 0 CFG=2 CHG=1
M  V30 22 C 10.794066 6.790228 -9.422660 0
M  V30 23 C 9.470125 8.105613 -10.974579 0 CFG=1
M  V30 24 C 8.522060 4.373722 -12.879896 0
M  V30 25 C 10.457188 8.123983 -7.313366 0 CFG=1
M  V30 26 C 9.140014 7.720348 -6.659218 0
M  V30 27 C 8.790840 4.545726 -10.388266 0
M  V30 28 C 7.743967 6.416993 -11.577732 0 CFG=2
M  V30 29 C 9.494063 8.787682 -9.575169 0
M  V30 30 H 9.281822 2.828893 -11.603019 0
M  V30 31 H 10.348860 4.183505 -11.872333 0
M  V30 32 H 10.525608 6.331479 -11.560712 0
M  V30 33 H 7.878601 5.990236 -6.283202 0
M  V30 34 H 8.366863 6.146160 -7.952132 0
M  V30 35 H 9.529218 5.590199 -6.741772 0
M  V30 36 H 6.809839 4.448335 -18.076431 0
M  V30 37 H 7.393196 8.611904 -11.530206 0
M  V30 38 H 8.398285 8.073675 -12.831611 0
M  V30 39 H 8.141606 3.265230 -15.963405 0
M  V30 40 H 12.575395 7.429320 -7.356023 0
M  V30 41 H 11.741934 7.218273 -5.735284 0
M  V30 42 H 5.389141 5.756712 -19.622168 0
M  V30 43 H 4.377075 8.457051 -16.445482 0
M  V30 44 H 11.753614 9.778366 -4.920131 0
M  V30 45 H 11.854458 9.910543 -7.364216 0
M  V30 46 H 4.165058 7.753350 -18.814024 0
M  V30 47 H 11.854275 6.790249 -9.667378 0
M  V30 48 H 10.625310 5.955985 -8.746184 0
M  V30 49 H 10.175409 8.614273 -11.612050 0
M  V30 50 H 9.286007 7.802207 -5.585073 0
M  V30 51 H 8.352007 8.433534 -6.894161 0
M  V30 52 H 7.793737 4.167203 -10.164301 0
M  V30 53 H 9.430062 4.285926 -9.545440 0
M  V30 54 H 6.732778 6.365943 -11.175406 0
M  V30 55 H 8.575410 8.790229 -9.026223 0
M  V30 56 H 9.793642 9.820876 -9.585025 0
M  V30 57 H 11.374650 8.617868 -9.018316 0
M  V30 END ATOM
M  V30 BEGIN BOND
M  V30 1 2 9 7
M  V30 2 2 10 5
M  V30 3 1 10 7
M  V30 4 2 12 2
M  V30 5 1 12 7
M  V30 6 1 12 8
M  V30 7 1 13 5
M  V30 8 1 14 3
M  V30 9 1 17 11
M  V30 10 1 17 16
M  V30 11 1 18 9
M  V30 12 1 19 8
M  V30 13 1 19 10
M  V30 14 2 19 15
M  V30 15 2 20 13
M  V30 16 1 20 15
M  V30 17 1 22 3
M  V30 18 1 22 21
M  V30 19 1 23 3
M  V30 20 1 23 6
M  V30 21 1 24 1
M  V30 22 1 24 2
M  V30 23 2 24 18
M  V30 24 1 25 11
M  V30 25 1 25 17
M  V30 26 1 25 21
M  V30 27 1 26 4
M  V30 28 1 25 26 CFG=1
M  V30 29 1 27 1
M  V30 30 1 27 14
M  V30 31 1 28 2
M  V30 32 1 28 6
M  V30 33 1 28 14
M  V30 34 1 29 21
M  V30 35 1 29 23
M  V30 36 1 30 1
M  V30 37 1 31 1
M  V30 38 1 3 32 CFG=3
M  V30 39 1 33 4
M  V30 40 1 34 4
M  V30 41 1 35 4
M  V30 42 1 36 5
M  V30 43 1 37 6
M  V30 44 1 38 6
M  V30 45 1 39 9
M  V30 46 1 40 11
M  V30 47 1 41 11
M  V30 48 1 42 13
M  V30 49 1 43 15
M  V30 50 1 44 16
M  V30 51 1 17 45 CFG=3
M  V30 52 1 46 20
M  V30 53 1 47 22
M  V30 54 1 48 22
M  V30 55 1 23 49 CFG=3
M  V30 56 1 50 26
M  V30 57 1 51 26
M  V30 58 1 52 27
M  V30 59 1 53 27
M  V30 60 1 28 54 CFG=1
M  V30 61 1 55 29
M  V30 62 1 56 29
M  V30 63 1 21 57 CFG=1
M  V30 END BOND
M  V30 END CTAB
M  END
>  <i_epik_Tot_Q>  (1) 
1

>  <i_epik_Tot_abs_Q>  (1) 
1

>  <i_i_glide_confnum>  (1) 
1

>  <i_i_glide_lignum>  (1) 
95

>  <i_i_glide_posenum>  (1) 
292

>  <i_i_glide_rotatable_bonds>  (1) 
3

>  <i_lp_mmshare_version>  (1) 
72125

>  <i_m_source_file_index>  (1) 
34

>  <i_f3d_flags>  (1) 
0

>  <num_sample>  (1) 
50

>  <b_lp_Chiralities_Consistent>  (1) 
1

>  <r_epik_Charging_Adjusted_Penalty>  (1) 
0.0056247907503774904

>  <r_epik_Ionization_Penalty>  (1) 
0.066233849197789949

>  <r_epik_Ionization_Penalty_Charging>  (1) 
0.0056247907503774904

>  <r_epik_Ionization_Penalty_Neutral>  (1) 
0.060609058447412462

>  <r_epik_State_Penalty>  (1) 
-0

>  <r_glide_ring_energy>  (1) 
0

>  <r_i_docking_score>  (1) 
-5.3126199994807655

>  <r_i_glide_ecoul>  (1) 
-1.0797389076487964

>  <r_i_glide_eff_state_penalty>  (1) 
-0

>  <r_i_glide_einternal>  (1) 
1.1255329088854307

>  <r_i_glide_emodel>  (1) 
-31.526459893345205

>  <r_i_glide_emodel_strain>  (1) 
0.22683178673960924

>  <r_i_glide_energy>  (1) 
-23.669958569362173

>  <r_i_glide_erotb>  (1) 
0.11895510521466947

>  <r_i_glide_esite>  (1) 
-0.018363961969513714

>  <r_i_glide_evdw>  (1) 
-22.590219661713377

>  <r_i_glide_gscore>  (1) 
-5.3126199994807655

>  <r_i_glide_gscore_strain>  (1) 
0

>  <r_i_glide_hbond>  (1) 
0

>  <r_i_glide_ligand_efficiency>  (1) 
-0.18319379308554365

>  <r_i_glide_ligand_efficiency_ln>  (1) 
-1.2164552634615591

>  <r_i_glide_ligand_efficiency_sa>  (1) 
-0.56282937285792745

>  <r_i_glide_lipo>  (1) 
-2.5847456416747501

>  <r_i_glide_metal>  (1) 
-0

>  <r_i_glide_rewards>  (1) 
-1.5369936818181824

>  <r_lp_Energy>  (1) 
35.775191999999997

>  <r_lp_tautomer_probability>  (1) 
1

>  <s_epik_cmdline>  (1) 
J2VwaWtfcHl0aG9uJywgJy1waHQnLCAnMS4wJywgJy1waCcsICc3LjQnLCAnLXRuJywgJzgnLCAnLW1hJywgJzUwMCcsICctaW1hZScsICc8aW5maWxlLm1hZT4nLCAnLW9tYWUnLCAnPG91dGZpbGUubWFlPic=

>  <s_epik_input>  (1) 
W09IXVtDQEhdMVtDSDJdW0NAXTEoW0NIMl1bQ0gzXSlOKFtDSDJdMilbQ0gyXVtDQEhdKFtDSDJdW0NAQEhdMzQpW0NAQEhdMk40W0NIMl1bQ0gyXWM1bltjSF1jKGM2YzM1KWM3YyhzNilbY0hdW2NIXVtjSF1bY0hdNw==

>  <s_glide_docking_method>  (1) 
confgen

>  <s_i_glide_gridfile>  (1) 
gpcr_drd2_6luq_protein_autoprepared_prepared

>  <s_lp_Force_Field>  (1) 
S-OPLS

>  <s_lp_Variant>  (1) 
DiffSBDD_33-1

>  <s_m_source_file>  (1) 
generated_generic_title2_ligand_DiffSBDD_2026-06-23_prepared.sdf

>  <GenAI_Model>  (1) 
DiffSBDD

>  <Protein>  (1) 
generic_title2

$$$$
DiffSBDD_12
     RDKit          3D

  0  0  0  0  0  0  0  0  0  0999 V3000
M  V30 BEGIN CTAB
M  V30 COUNTS 55 56 0 0 1
M  V30 BEGIN ATOM
M  V30 1 C 6.563347 6.012533 -18.769246 0 CFG=2
M  V30 2 C 10.395904 7.600000 -6.031004 0 CFG=2
M  V30 3 C 11.365833 8.664765 -6.572142 0
M  V30 4 C 10.168861 6.833626 -8.433981 0
M  V30 5 C 11.227401 7.795397 -8.968464 0
M  V30 6 C 7.965806 6.331613 -12.759799 0
M  V30 7 C 7.394967 3.562648 -18.848945 0
M  V30 8 C 6.286508 4.561622 -19.211280 0
M  V30 9 C 11.057319 6.733193 -4.949202 0
M  V30 10 C 6.471966 6.192176 -14.813309 0
M  V30 11 C 9.399654 6.554399 -10.683351 0
M  V30 12 C 7.014507 5.439155 -13.584691 0 CFG=1
M  V30 13 C 9.053914 4.277759 -11.764087 0
M  V30 14 C 6.092985 6.375375 -17.347201 0
M  V30 15 C 7.670346 4.073579 -13.882543 0
M  V30 16 C 6.831299 5.647834 -16.204583 0
M  V30 17 C 8.095825 3.392502 -12.575560 0
M  V30 18 O 9.601006 6.013928 -9.381306 0
M  V30 19 F 5.893236 6.812175 -19.599094 0
M  V30 20 C 9.806765 6.742674 -7.144631 0
M  V30 21 C 12.142927 8.321667 -7.847530 0
M  V30 22 O 5.775642 7.195589 -14.682825 0
M  V30 23 O 11.519939 9.741798 -5.997889 0
M  V30 24 C 8.425245 5.651438 -11.455483 0 CFG=2
M  V30 25 H 7.615062 6.266321 -18.908149 0
M  V30 26 H 9.561269 8.138122 -5.585355 0
M  V30 27 H 11.847243 7.294194 -9.711112 0
M  V30 28 H 10.738170 8.636519 -9.460504 0
M  V30 29 H 7.481208 7.280574 -12.521352 0
M  V30 30 H 8.844536 6.571271 -13.353695 0
M  V30 31 H 7.157835 2.572294 -19.237831 0
M  V30 32 H 8.349207 3.865737 -19.279919 0
M  V30 33 H 7.532792 3.460105 -17.775119 0
M  V30 34 H 5.331152 4.222971 -18.812383 0
M  V30 35 H 6.175461 4.542258 -20.296590 0
M  V30 36 H 11.820049 6.080455 -5.374724 0
M  V30 37 H 11.526194 7.341569 -4.175184 0
M  V30 38 H 10.319307 6.096590 -4.460495 0
M  V30 39 H 8.975598 7.556769 -10.603213 0
M  V30 40 H 10.338061 6.634840 -11.233114 0
M  V30 41 H 6.138606 5.248212 -12.963897 0
M  V30 42 H 9.980693 4.411476 -12.323519 0
M  V30 43 H 9.328576 3.773219 -10.836550 0
M  V30 44 H 5.021552 6.185432 -17.261976 0
M  V30 45 H 6.212334 7.453162 -17.224093 0
M  V30 46 H 8.544819 4.196199 -14.523370 0
M  V30 47 H 6.972324 3.420295 -14.407506 0
M  V30 48 H 7.909632 5.729664 -16.341712 0
M  V30 49 H 6.575410 4.591614 -16.236020 0
M  V30 50 H 8.564234 2.429870 -12.784366 0
M  V30 51 H 7.202730 3.190279 -11.985117 0
M  V30 52 H 9.052062 6.025946 -6.853984 0
M  V30 53 H 12.878338 7.561085 -7.590112 0
M  V30 54 H 12.700745 9.189927 -8.193853 0
M  V30 55 H 7.544040 5.501219 -10.828743 0
M  V30 END ATOM
M  V30 BEGIN BOND
M  V30 1 1 3 2
M  V30 2 1 5 4
M  V30 3 1 8 1
M  V30 4 1 8 7
M  V30 5 1 9 2
M  V30 6 1 12 6
M  V30 7 1 12 10
M  V30 8 1 14 1
M  V30 9 1 15 12
M  V30 10 1 16 10
M  V30 11 1 16 14
M  V30 12 1 17 13
M  V30 13 1 17 15
M  V30 14 1 18 4
M  V30 15 1 18 11
M  V30 16 1 19 1
M  V30 17 1 20 2
M  V30 18 2 20 4
M  V30 19 1 21 3
M  V30 20 1 21 5
M  V30 21 2 22 10
M  V30 22 2 23 3
M  V30 23 1 24 6
M  V30 24 1 24 11
M  V30 25 1 24 13
M  V30 26 1 1 25 CFG=1
M  V30 27 1 2 26 CFG=1
M  V30 28 1 27 5
M  V30 29 1 28 5
M  V30 30 1 29 6
M  V30 31 1 30 6
M  V30 32 1 31 7
M  V30 33 1 32 7
M  V30 34 1 33 7
M  V30 35 1 34 8
M  V30 36 1 35 8
M  V30 37 1 36 9
M  V30 38 1 37 9
M  V30 39 1 38 9
M  V30 40 1 39 11
M  V30 41 1 40 11
M  V30 42 1 12 41 CFG=1
M  V30 43 1 42 13
M  V30 44 1 43 13
M  V30 45 1 44 14
M  V30 46 1 45 14
M  V30 47 1 46 15
M  V30 48 1 47 15
M  V30 49 1 48 16
M  V30 50 1 49 16
M  V30 51 1 50 17
M  V30 52 1 51 17
M  V30 53 1 52 20
M  V30 54 1 53 21
M  V30 55 1 54 21
M  V30 56 1 24 55 CFG=1
M  V30 END BOND
M  V30 END CTAB
M  END
>  <i_epik_Tot_Q>  (1) 
0

>  <i_epik_Tot_abs_Q>  (1) 
0

>  <i_i_glide_confnum>  (1) 
210

>  <i_i_glide_lignum>  (1) 
49

>  <i_i_glide_posenum>  (1) 
175

>  <i_i_glide_rotatable_bonds>  (1) 
8

>  <i_lp_mmshare_version>  (1) 
72125

>  <i_m_source_file_index>  (1) 
13

>  <i_f3d_flags>  (1) 
0

>  <num_sample>  (1) 
50

>  <b_lp_Chiralities_Consistent>  (1) 
1

>  <r_epik_Charging_Adjusted_Penalty>  (1) 
0

>  <r_epik_Ionization_Penalty>  (1) 
4.1955247269604324e-12

>  <r_epik_Ionization_Penalty_Charging>  (1) 
0

>  <r_epik_Ionization_Penalty_Neutral>  (1) 
4.1955247269604324e-12

>  <r_epik_State_Penalty>  (1) 
-0

>  <r_glide_ring_energy>  (1) 
0

>  <r_i_docking_score>  (1) 
-5.3013976991067651

>  <r_i_glide_ecoul>  (1) 
-0.95312841233825452

>  <r_i_glide_eff_state_penalty>  (1) 
-0

>  <r_i_glide_einternal>  (1) 
8.1970011639021756

>  <r_i_glide_emodel>  (1) 
-42.115666051404922

>  <r_i_glide_emodel_strain>  (1) 
0.26731733281028625

>  <r_i_glide_energy>  (1) 
-35.567352166350176

>  <r_i_glide_erotb>  (1) 
1.1556109002290837

>  <r_i_glide_esite>  (1) 
0

>  <r_i_glide_evdw>  (1) 
-34.614223754011924

>  <r_i_glide_gscore>  (1) 
-5.3013976991067651

>  <r_i_glide_gscore_strain>  (1) 
0

>  <r_i_glide_hbond>  (1) 
0

>  <r_i_glide_ligand_efficiency>  (1) 
-0.22089157079611521

>  <r_i_glide_ligand_efficiency_ln>  (1) 
-1.2688677346852826

>  <r_i_glide_ligand_efficiency_sa>  (1) 
-0.63716154613045128

>  <r_i_glide_lipo>  (1) 
-2.1165007057994969

>  <r_i_glide_metal>  (1) 
-0

>  <r_i_glide_rewards>  (1) 
-2.4668274439850171

>  <r_lp_Energy>  (1) 
10.280693999999999

>  <r_lp_tautomer_probability>  (1) 
1

>  <s_epik_cmdline>  (1) 
J2VwaWtfcHl0aG9uJywgJy1waHQnLCAnMS4wJywgJy1waCcsICc3LjQnLCAnLXRuJywgJzgnLCAnLW1hJywgJzUwMCcsICctaW1hZScsICc8aW5maWxlLm1hZT4nLCAnLW9tYWUnLCAnPG91dGZpbGUubWFlPic=

>  <s_epik_input>  (1) 
W0NIM11bQ0gyXVtDQEBIXShGKVtDSDJdW0NIMl1DKD1PKVtDQEBIXTFbQ0gyXVtDQEBIXShbQ0gyXVtDSDJdW0NIMl0xKVtDSDJdT0MoPVtDSF0yKVtDSDJdW0NIMl1DKD1PKVtDQEhdMltDSDNd

>  <s_glide_docking_method>  (1) 
confgen

>  <s_i_glide_gridfile>  (1) 
gpcr_drd2_6luq_protein_autoprepared_prepared

>  <s_lp_Force_Field>  (1) 
S-OPLS

>  <s_lp_Variant>  (1) 
DiffSBDD_12-2

>  <s_m_source_file>  (1) 
generated_generic_title2_ligand_DiffSBDD_2026-06-23_prepared.sdf

>  <GenAI_Model>  (1) 
DiffSBDD

>  <Protein>  (1) 
generic_title2

$$$$
DiffSBDD_25
     RDKit          3D

  0  0  0  0  0  0  0  0  0  0999 V3000
M  V30 BEGIN CTAB
M  V30 COUNTS 44 46 0 0 1
M  V30 BEGIN ATOM
M  V30 1 C 10.510657 7.718076 -10.854887 0 CFG=1
M  V30 2 C 9.401913 5.562076 -7.904244 0
M  V30 3 C 9.468334 6.484890 -6.849228 0
M  V30 4 C 10.162065 7.274184 -9.466539 0
M  V30 5 N 6.975431 4.790196 -9.985513 0 CHG=1
M  V30 6 N 8.176111 7.117932 -11.585147 0 CHG=1
M  V30 7 C 10.231418 8.189917 -8.400987 0
M  V30 8 C 10.608547 6.871418 -12.099567 0
M  V30 9 C 8.081250 3.914356 -12.062002 0
M  V30 10 C 6.801948 4.500399 -11.432148 0 CFG=2
M  V30 11 C 7.151846 6.859165 -12.615792 0 CFG=1
M  V30 12 C 9.428082 7.818347 -11.927286 0 CFG=2
M  V30 13 C 9.885408 7.798688 -7.097413 0
M  V30 14 C 6.702822 5.523168 -14.637457 0
M  V30 15 C 5.619847 5.282878 -13.581652 0
M  V30 16 C 7.687129 6.517882 -14.017563 0
M  V30 17 C 9.753788 5.951708 -9.206475 0
M  V30 18 C 6.194553 5.706121 -12.219119 0 CFG=1
M  V30 19 H 11.247907 8.516013 -10.784104 0
M  V30 20 H 9.081879 4.549562 -7.712446 0
M  V30 21 H 9.199923 6.182746 -5.847953 0
M  V30 22 H 7.376552 5.699770 -9.790501 0
M  V30 23 H 6.068519 4.776282 -9.521982 0
M  V30 24 H 8.492710 6.224172 -11.253118 0
M  V30 25 H 10.551047 9.192047 -8.588104 0
M  V30 26 H 11.345785 7.164804 -12.845120 0
M  V30 27 H 10.503873 5.799601 -11.984162 0
M  V30 28 H 7.833161 3.325730 -12.944808 0
M  V30 29 H 8.798243 4.655359 -12.375414 0
M  V30 30 H 8.624028 3.252345 -11.391297 0
M  V30 31 H 6.065223 3.695294 -11.440763 0
M  V30 32 H 6.557924 7.769104 -12.697515 0
M  V30 33 H 9.326769 8.775258 -12.430381 0
M  V30 34 H 9.939463 8.509433 -6.288389 0
M  V30 35 H 6.272756 5.909011 -15.563629 0
M  V30 36 H 7.217706 4.594346 -14.885448 0
M  V30 37 H 4.782507 5.935606 -13.819682 0
M  V30 38 H 5.237281 4.262733 -13.596427 0
M  V30 39 H 7.775410 7.421037 -14.622673 0
M  V30 40 H 8.674912 6.061245 -13.993040 0
M  V30 41 H 9.706063 5.234348 -10.008446 0
M  V30 42 H 5.379162 6.108008 -11.614055 0
M  V30 43 H 7.532018 4.071112 -9.546457 0
M  V30 44 H 7.721007 7.592746 -10.799218 0
M  V30 END ATOM
M  V30 BEGIN BOND
M  V30 1 2 3 2
M  V30 2 1 4 1
M  V30 3 1 7 4
M  V30 4 1 8 1
M  V30 5 1 10 5
M  V30 6 1 10 9
M  V30 7 1 11 6
M  V30 8 1 12 1
M  V30 9 1 12 6
M  V30 10 1 12 8
M  V30 11 1 13 3
M  V30 12 2 13 7
M  V30 13 1 15 14
M  V30 14 1 16 11
M  V30 15 1 16 14
M  V30 16 1 17 2
M  V30 17 2 17 4
M  V30 18 1 18 10
M  V30 19 1 18 11
M  V30 20 1 18 15
M  V30 21 1 1 19 CFG=1
M  V30 22 1 20 2
M  V30 23 1 21 3
M  V30 24 1 22 5
M  V30 25 1 23 5
M  V30 26 1 24 6
M  V30 27 1 25 7
M  V30 28 1 26 8
M  V30 29 1 27 8
M  V30 30 1 28 9
M  V30 31 1 29 9
M  V30 32 1 30 9
M  V30 33 1 10 31 CFG=1
M  V30 34 1 11 32 CFG=3
M  V30 35 1 12 33 CFG=3
M  V30 36 1 34 13
M  V30 37 1 35 14
M  V30 38 1 36 14
M  V30 39 1 37 15
M  V30 40 1 38 15
M  V30 41 1 39 16
M  V30 42 1 40 16
M  V30 43 1 41 17
M  V30 44 1 18 42 CFG=1
M  V30 45 1 43 5
M  V30 46 1 44 6
M  V30 END BOND
M  V30 END CTAB
M  END
>  <i_epik_Tot_Q>  (1) 
2

>  <i_epik_Tot_abs_Q>  (1) 
2

>  <i_i_glide_confnum>  (1) 
80

>  <i_i_glide_lignum>  (1) 
72

>  <i_i_glide_posenum>  (1) 
239

>  <i_i_glide_rotatable_bonds>  (1) 
4

>  <i_lp_mmshare_version>  (1) 
72125

>  <i_m_source_file_index>  (1) 
26

>  <i_f3d_flags>  (1) 
0

>  <num_sample>  (1) 
50

>  <b_lp_Chiralities_Consistent>  (1) 
1

>  <r_epik_Charging_Adjusted_Penalty>  (1) 
0.43880639721899328

>  <r_epik_Ionization_Penalty>  (1) 
0.22252539232578136

>  <r_epik_Ionization_Penalty_Charging>  (1) 
0.22252539232578136

>  <r_epik_Ionization_Penalty_Neutral>  (1) 
0

>  <r_epik_State_Penalty>  (1) 
0.21628100489321189

>  <r_glide_ring_energy>  (1) 
1.1423732950286445

>  <r_i_docking_score>  (1) 
-5.2996856260772569

>  <r_i_glide_ecoul>  (1) 
-11.490520142810512

>  <r_i_glide_eff_state_penalty>  (1) 
0.21628100489321189

>  <r_i_glide_einternal>  (1) 
7.9252390554353482

>  <r_i_glide_emodel>  (1) 
-47.930496996560798

>  <r_i_glide_emodel_strain>  (1) 
1.047903945292866

>  <r_i_glide_energy>  (1) 
-32.899742946196319

>  <r_i_glide_erotb>  (1) 
0.86113592628682767

>  <r_i_glide_esite>  (1) 
-0.16988060076562594

>  <r_i_glide_evdw>  (1) 
-21.409222803385809

>  <r_i_glide_gscore>  (1) 
-5.5159666309704685

>  <r_i_glide_gscore_strain>  (1) 
0

>  <r_i_glide_hbond>  (1) 
-0.29706633515766828

>  <r_i_glide_ligand_efficiency>  (1) 
-0.29442697922651428

>  <r_i_glide_ligand_efficiency_ln>  (1) 
-1.3622568628102578

>  <r_i_glide_ligand_efficiency_sa>  (1) 
-0.77161697203080892

>  <r_i_glide_lipo>  (1) 
-0.52893983555182889

>  <r_i_glide_metal>  (1) 
-0

>  <r_i_glide_rewards>  (1) 
-2.5871766241913052

>  <r_lp_Energy>  (1) 
41.001804999999997

>  <s_epik_cmdline>  (1) 
J2VwaWtfcHl0aG9uJywgJy1waHQnLCAnMS4wJywgJy1waCcsICc3LjQnLCAnLXRuJywgJzgnLCAnLW1hJywgJzUwMCcsICctaW1hZScsICc8aW5maWxlLm1hZT4nLCAnLW9tYWUnLCAnPG91dGZpbGUubWFlPic=

>  <s_epik_input>  (1) 
W2NIXTFbY0hdW2NIXVtjSF1bY0hdYzFbQ0BIXTJbQ0gyXVtDQEhdMltOSF1bQ0BIXTNbQ0gyXVtDSDJdW0NIMl1bQ0BIXTNbQ0BIXShbTkgyXSlbQ0gzXQ==

>  <s_glide_docking_method>  (1) 
confgen

>  <s_i_glide_gridfile>  (1) 
gpcr_drd2_6luq_protein_autoprepared_prepared

>  <s_lp_Force_Field>  (1) 
S-OPLS

>  <s_lp_Variant>  (1) 
DiffSBDD_25-1

>  <s_m_source_file>  (1) 
generated_generic_title2_ligand_DiffSBDD_2026-06-23_prepared.sdf

>  <GenAI_Model>  (1) 
DiffSBDD

>  <Protein>  (1) 
generic_title2

$$$$
DiffSBDD_12
     RDKit          3D

  0  0  0  0  0  0  0  0  0  0999 V3000
M  V30 BEGIN CTAB
M  V30 COUNTS 55 56 0 0 1
M  V30 BEGIN ATOM
M  V30 1 C 5.173896 7.430219 -18.246191 0 CFG=2
M  V30 2 C 11.310717 8.490298 -8.775209 0 CFG=1
M  V30 3 C 11.372423 8.453136 -7.224597 0
M  V30 4 C 9.806827 6.461938 -8.634084 0
M  V30 5 C 9.663949 6.561836 -7.137130 0
M  V30 6 C 8.155243 5.452063 -12.864264 0
M  V30 7 C 4.580478 8.468270 -20.499376 0
M  V30 8 C 5.348603 7.359424 -19.769994 0
M  V30 9 C 12.720231 8.573299 -9.379261 0
M  V30 10 C 6.990281 5.864441 -15.134827 0
M  V30 11 C 9.221827 5.077103 -10.577503 0
M  V30 12 C 6.937114 6.039438 -13.612392 0 CFG=1
M  V30 13 C 6.713961 5.188013 -10.789002 0
M  V30 14 C 6.089012 6.466337 -17.479648 0
M  V30 15 C 5.639552 5.437648 -13.050360 0
M  V30 16 C 6.051680 6.743988 -15.966642 0
M  V30 17 C 5.514556 5.748693 -11.555338 0
M  V30 18 O 9.133614 5.386800 -9.182494 0
M  V30 19 F 3.902312 7.177849 -17.929952 0
M  V30 20 C 10.535411 7.320647 -9.372989 0
M  V30 21 C 10.939373 7.156564 -6.525499 0
M  V30 22 O 7.751505 5.054454 -15.663943 0
M  V30 23 O 11.764071 9.424085 -6.577288 0
M  V30 24 C 8.053055 5.712288 -11.343098 0 CFG=2
M  V30 25 H 5.375021 8.445919 -17.912186 0
M  V30 26 H 10.776642 9.397803 -9.053638 0
M  V30 27 H 8.807009 7.197785 -6.913739 0
M  V30 28 H 9.449393 5.591498 -6.708153 0
M  V30 29 H 9.077338 5.887738 -13.252139 0
M  V30 30 H 8.221284 4.378112 -13.045674 0
M  V30 31 H 4.739173 8.410414 -21.576319 0
M  V30 32 H 3.509586 8.390203 -20.314869 0
M  V30 33 H 4.904826 9.454801 -20.164983 0
M  V30 34 H 6.406931 7.450330 -20.017871 0
M  V30 35 H 5.025977 6.383372 -20.134305 0
M  V30 36 H 13.181370 7.590332 -9.461465 0
M  V30 37 H 12.687468 9.015602 -10.375406 0
M  V30 38 H 13.386706 9.190211 -8.778526 0
M  V30 39 H 10.174989 5.309680 -11.045255 0
M  V30 40 H 9.145729 3.992323 -10.660687 0
M  V30 41 H 6.919298 7.114410 -13.429915 0
M  V30 42 H 6.690164 4.099230 -10.835333 0
M  V30 43 H 6.621717 5.451548 -9.735488 0
M  V30 44 H 7.111452 6.572067 -17.844740 0
M  V30 45 H 5.791793 5.436509 -17.682454 0
M  V30 46 H 5.625755 4.356677 -13.203526 0
M  V30 47 H 4.778063 5.829163 -13.584591 0
M  V30 48 H 5.033289 6.609026 -15.605812 0
M  V30 49 H 6.310572 7.785659 -15.775532 0
M  V30 50 H 4.596540 5.323076 -11.154042 0
M  V30 51 H 5.459089 6.827274 -11.401329 0
M  V30 52 H 10.601429 7.203919 -10.440334 0
M  V30 53 H 10.790629 7.347146 -5.462585 0
M  V30 54 H 11.756096 6.438697 -6.607946 0
M  V30 55 H 8.090507 6.791406 -11.183406 0
M  V30 END ATOM
M  V30 BEGIN BOND
M  V30 1 1 3 2
M  V30 2 1 5 4
M  V30 3 1 8 1
M  V30 4 1 8 7
M  V30 5 1 9 2
M  V30 6 1 12 6
M  V30 7 1 12 10
M  V30 8 1 14 1
M  V30 9 1 15 12
M  V30 10 1 16 10
M  V30 11 1 16 14
M  V30 12 1 17 13
M  V30 13 1 17 15
M  V30 14 1 18 4
M  V30 15 1 18 11
M  V30 16 1 19 1
M  V30 17 1 20 2
M  V30 18 2 20 4
M  V30 19 1 21 3
M  V30 20 1 21 5
M  V30 21 2 22 10
M  V30 22 2 23 3
M  V30 23 1 24 6
M  V30 24 1 24 11
M  V30 25 1 24 13
M  V30 26 1 1 25 CFG=1
M  V30 27 1 2 26 CFG=1
M  V30 28 1 27 5
M  V30 29 1 28 5
M  V30 30 1 29 6
M  V30 31 1 30 6
M  V30 32 1 31 7
M  V30 33 1 32 7
M  V30 34 1 33 7
M  V30 35 1 34 8
M  V30 36 1 35 8
M  V30 37 1 36 9
M  V30 38 1 37 9
M  V30 39 1 38 9
M  V30 40 1 39 11
M  V30 41 1 40 11
M  V30 42 1 12 41 CFG=3
M  V30 43 1 42 13
M  V30 44 1 43 13
M  V30 45 1 44 14
M  V30 46 1 45 14
M  V30 47 1 46 15
M  V30 48 1 47 15
M  V30 49 1 48 16
M  V30 50 1 49 16
M  V30 51 1 50 17
M  V30 52 1 51 17
M  V30 53 1 52 20
M  V30 54 1 53 21
M  V30 55 1 54 21
M  V30 56 1 24 55 CFG=3
M  V30 END BOND
M  V30 END CTAB
M  END
>  <i_epik_Tot_Q>  (1) 
0

>  <i_epik_Tot_abs_Q>  (1) 
0

>  <i_i_glide_confnum>  (1) 
53

>  <i_i_glide_lignum>  (1) 
48

>  <i_i_glide_posenum>  (1) 
186

>  <i_i_glide_rotatable_bonds>  (1) 
8

>  <i_lp_mmshare_version>  (1) 
72125

>  <i_m_source_file_index>  (1) 
13

>  <i_f3d_flags>  (1) 
0

>  <num_sample>  (1) 
50

>  <b_lp_Chiralities_Consistent>  (1) 
1

>  <r_epik_Charging_Adjusted_Penalty>  (1) 
0

>  <r_epik_Ionization_Penalty>  (1) 
4.1955247269604324e-12

>  <r_epik_Ionization_Penalty_Charging>  (1) 
0

>  <r_epik_Ionization_Penalty_Neutral>  (1) 
4.1955247269604324e-12

>  <r_epik_State_Penalty>  (1) 
-0

>  <r_glide_ring_energy>  (1) 
0

>  <r_i_docking_score>  (1) 
-5.2973576990775042

>  <r_i_glide_ecoul>  (1) 
-0.61158115645266697

>  <r_i_glide_eff_state_penalty>  (1) 
-0

>  <r_i_glide_einternal>  (1) 
2.3959009816625958

>  <r_i_glide_emodel>  (1) 
-43.984115804796076

>  <r_i_glide_emodel_strain>  (1) 
0.54046477892979183

>  <r_i_glide_energy>  (1) 
-35.117886539109598

>  <r_i_glide_erotb>  (1) 
1.1556109002290837

>  <r_i_glide_esite>  (1) 
0

>  <r_i_glide_evdw>  (1) 
-34.506305382656933

>  <r_i_glide_gscore>  (1) 
-5.2973576990775042

>  <r_i_glide_gscore_strain>  (1) 
0

>  <r_i_glide_hbond>  (1) 
0

>  <r_i_glide_ligand_efficiency>  (1) 
-0.22072323746156267

>  <r_i_glide_ligand_efficiency_ln>  (1) 
-1.2679007772947588

>  <r_i_glide_ligand_efficiency_sa>  (1) 
-0.6366759887715977

>  <r_i_glide_lipo>  (1) 
-2.0367502422498278

>  <r_i_glide_metal>  (1) 
-0

>  <r_i_glide_rewards>  (1) 
-2.5991659144560124

>  <r_lp_Energy>  (1) 
11.614072

>  <r_lp_tautomer_probability>  (1) 
1

>  <s_epik_cmdline>  (1) 
J2VwaWtfcHl0aG9uJywgJy1waHQnLCAnMS4wJywgJy1waCcsICc3LjQnLCAnLXRuJywgJzgnLCAnLW1hJywgJzUwMCcsICctaW1hZScsICc8aW5maWxlLm1hZT4nLCAnLW9tYWUnLCAnPG91dGZpbGUubWFlPic=

>  <s_epik_input>  (1) 
W0NIM11bQ0gyXVtDQEBIXShGKVtDSDJdW0NIMl1DKD1PKVtDQEBIXTFbQ0gyXVtDQEBIXShbQ0gyXVtDSDJdW0NIMl0xKVtDSDJdT0MoPVtDSF0yKVtDSDJdW0NIMl1DKD1PKVtDQEhdMltDSDNd

>  <s_glide_docking_method>  (1) 
confgen

>  <s_i_glide_gridfile>  (1) 
gpcr_drd2_6luq_protein_autoprepared_prepared

>  <s_lp_Force_Field>  (1) 
S-OPLS

>  <s_lp_Variant>  (1) 
DiffSBDD_12-1

>  <s_m_source_file>  (1) 
generated_generic_title2_ligand_DiffSBDD_2026-06-23_prepared.sdf

>  <GenAI_Model>  (1) 
DiffSBDD

>  <Protein>  (1) 
generic_title2

$$$$
DiffSBDD_19
     RDKit          3D

  0  0  0  0  0  0  0  0  0  0999 V3000
M  V30 BEGIN CTAB
M  V30 COUNTS 54 57 0 0 1
M  V30 BEGIN ATOM
M  V30 1 C 11.162025 6.372139 -6.785028 0
M  V30 2 C 10.622523 7.596534 -6.050149 0 CFG=1
M  V30 3 C 7.716015 5.238784 -14.538748 0
M  V30 4 C 8.499616 7.855587 -11.985027 0
M  V30 5 C 7.046846 3.999147 -13.909194 0 CFG=1
M  V30 6 C 9.784583 7.404310 -11.344414 0 CFG=1
M  V30 7 N 8.408681 5.990238 -13.520474 0
M  V30 8 N 11.375411 7.869257 -4.816777 0
M  V30 9 C 7.914716 7.180471 -12.981043 0
M  V30 10 O 9.525171 6.719885 -10.121715 0
M  V30 11 C 10.584674 8.750312 -7.065848 0
M  V30 12 N 9.579925 5.412679 -12.928512 0
M  V30 13 S 12.447446 7.632007 -2.385285 0
M  V30 14 C 11.903711 9.060915 -4.452866 0
M  V30 15 C 9.782040 8.390141 -8.333574 0
M  V30 16 C 9.095552 4.387022 -11.989968 0
M  V30 17 C 11.531424 6.782659 -3.822529 0
M  V30 18 O 4.975410 5.190234 -13.921122 0
M  V30 19 S 8.234371 3.054263 -12.902148 0
M  V30 20 C 10.464289 6.460490 -12.362027 0
M  V30 21 C 12.472501 9.116371 -3.286045 0
M  V30 22 C 10.258750 5.990273 -7.966114 0
M  V30 23 C 5.791962 4.769118 -11.708320 0
M  V30 24 C 5.718079 4.265911 -13.163060 0 CFG=2
M  V30 25 C 10.307832 7.111078 -9.003698 0 CFG=1
M  V30 26 H 12.175470 6.559769 -7.132827 0
M  V30 27 H 11.228773 5.545248 -6.099591 0
M  V30 28 H 9.597610 7.385537 -5.740896 0
M  V30 29 H 8.458243 4.914067 -15.268555 0
M  V30 30 H 7.015526 5.870783 -15.084314 0
M  V30 31 H 8.052636 8.763997 -11.607946 0
M  V30 32 H 6.790053 3.343785 -14.741765 0
M  V30 33 H 10.409147 8.283372 -11.185012 0
M  V30 34 H 6.992097 7.515034 -13.433348 0
M  V30 35 H 11.594890 9.050667 -7.346682 0
M  V30 36 H 10.111946 9.590243 -6.580781 0
M  V30 37 H 11.814262 9.875270 -5.154182 0
M  V30 38 H 9.796443 9.199309 -9.056110 0
M  V30 39 H 8.742834 8.252501 -8.038596 0
M  V30 40 H 8.438119 4.828511 -11.243302 0
M  V30 41 H 9.945185 3.970403 -11.455797 0
M  V30 42 H 10.569332 6.388293 -3.497786 0
M  V30 43 H 12.144090 5.967246 -4.201865 0
M  V30 44 H 4.870065 4.845011 -14.794387 0
M  V30 45 H 11.363867 5.990226 -11.985027 0
M  V30 46 H 10.840414 7.062797 -13.185025 0
M  V30 47 H 12.934444 9.990224 -2.862772 0
M  V30 48 H 9.233714 5.831877 -7.625553 0
M  V30 49 H 10.575409 5.044635 -8.400128 0
M  V30 50 H 6.237211 4.026331 -11.046498 0
M  V30 51 H 6.354524 5.691085 -11.602300 0
M  V30 52 H 4.801505 4.982775 -11.316780 0
M  V30 53 H 5.151459 3.334707 -13.157339 0
M  V30 54 H 11.343063 7.246044 -9.324148 0
M  V30 END ATOM
M  V30 BEGIN BOND
M  V30 1 1 2 1
M  V30 2 1 5 3
M  V30 3 1 6 4
M  V30 4 1 7 3
M  V30 5 1 8 2
M  V30 6 2 9 4
M  V30 7 1 9 7
M  V30 8 1 10 6
M  V30 9 1 11 2
M  V30 10 1 12 7
M  V30 11 1 14 8
M  V30 12 1 15 11
M  V30 13 1 16 12
M  V30 14 1 17 8
M  V30 15 1 17 13
M  V30 16 1 19 5
M  V30 17 1 19 16
M  V30 18 1 20 6
M  V30 19 1 20 12
M  V30 20 1 21 13
M  V30 21 2 21 14
M  V30 22 1 22 1
M  V30 23 1 24 5
M  V30 24 1 24 18
M  V30 25 1 24 23
M  V30 26 1 25 10
M  V30 27 1 25 15
M  V30 28 1 25 22
M  V30 29 1 26 1
M  V30 30 1 27 1
M  V30 31 1 2 28 CFG=1
M  V30 32 1 29 3
M  V30 33 1 30 3
M  V30 34 1 31 4
M  V30 35 1 5 32 CFG=3
M  V30 36 1 6 33 CFG=1
M  V30 37 1 34 9
M  V30 38 1 35 11
M  V30 39 1 36 11
M  V30 40 1 37 14
M  V30 41 1 38 15
M  V30 42 1 39 15
M  V30 43 1 40 16
M  V30 44 1 41 16
M  V30 45 1 42 17
M  V30 46 1 43 17
M  V30 47 1 44 18
M  V30 48 1 45 20
M  V30 49 1 46 20
M  V30 50 1 47 21
M  V30 51 1 48 22
M  V30 52 1 49 22
M  V30 53 1 50 23
M  V30 54 1 51 23
M  V30 55 1 52 23
M  V30 56 1 24 53 CFG=1
M  V30 57 1 25 54 CFG=3
M  V30 END BOND
M  V30 END CTAB
M  END
>  <i_epik_Tot_Q>  (1) 
0

>  <i_epik_Tot_abs_Q>  (1) 
0

>  <i_i_glide_confnum>  (1) 
46

>  <i_i_glide_lignum>  (1) 
63

>  <i_i_glide_posenum>  (1) 
375

>  <i_i_glide_rotatable_bonds>  (1) 
5

>  <i_lp_mmshare_version>  (1) 
72125

>  <i_m_source_file_index>  (1) 
20

>  <i_f3d_flags>  (1) 
0

>  <num_sample>  (1) 
50

>  <b_lp_Chiralities_Consistent>  (1) 
1

>  <r_epik_Charging_Adjusted_Penalty>  (1) 
6.6703818214750742e-05

>  <r_epik_Ionization_Penalty>  (1) 
7.3220417460206425e-05

>  <r_epik_Ionization_Penalty_Charging>  (1) 
6.6703818214750742e-05

>  <r_epik_Ionization_Penalty_Neutral>  (1) 
6.5165992454556827e-06

>  <r_epik_State_Penalty>  (1) 
-0

>  <r_glide_ring_energy>  (1) 
0

>  <r_i_docking_score>  (1) 
-5.2890801997842987

>  <r_i_glide_ecoul>  (1) 
0.52575277585726377

>  <r_i_glide_eff_state_penalty>  (1) 
-0

>  <r_i_glide_einternal>  (1) 
14.560802416845902

>  <r_i_glide_emodel>  (1) 
-38.939043586463157

>  <r_i_glide_emodel_strain>  (1) 
0.46476791695852882

>  <r_i_glide_energy>  (1) 
-38.361453000188199

>  <r_i_glide_erotb>  (1) 
0.52832890103692032

>  <r_i_glide_esite>  (1) 
0

>  <r_i_glide_evdw>  (1) 
-38.887205776045462

>  <r_i_glide_gscore>  (1) 
-5.2890801997842987

>  <r_i_glide_gscore_strain>  (1) 
0

>  <r_i_glide_hbond>  (1) 
0

>  <r_i_glide_ligand_efficiency>  (1) 
-0.21156320799137196

>  <r_i_glide_ligand_efficiency_ln>  (1) 
-1.2536705082922253

>  <r_i_glide_ligand_efficiency_sa>  (1) 
-0.61861457291998956

>  <r_i_glide_lipo>  (1) 
-2.9040953635258386

>  <r_i_glide_metal>  (1) 
-0

>  <r_i_glide_rewards>  (1) 
-1.0478163648716963

>  <r_lp_Energy>  (1) 
18.166922

>  <r_lp_tautomer_probability>  (1) 
1

>  <s_epik_Chemistry_Notes>  (1) 
This compound has an imine and may undergo hydrolysis. This compound contains an acetal/aminal-like group ( X-CH(R)-Y where X, Y are N, S, or O) that may be acid/base labile, releasing an aldehyde.

>  <s_epik_cmdline>  (1) 
J2VwaWtfcHl0aG9uJywgJy1waHQnLCAnMS4wJywgJy1waCcsICc3LjQnLCAnLXRuJywgJzgnLCAnLW1hJywgJzUwMCcsICctaW1hZScsICc8aW5maWxlLm1hZT4nLCAnLW9tYWUnLCAnPG91dGZpbGUubWFlPic=

>  <s_epik_input>  (1) 
W0NIMl0xU1tDSF09W0NIXU4xW0NAQEhdMltDSDJdW0NIMl1bQ0BIXShbQ0gyXVtDSDJdMilPW0NASF0oW0NIXT1bQ0hdMylbQ0gyXU4oTjM0KVtDSDJdU1tDQEhdKFtDSDJdNClbQ0BIXShbT0hdKVtDSDNd

>  <s_glide_docking_method>  (1) 
confgen

>  <s_i_glide_gridfile>  (1) 
gpcr_drd2_6luq_protein_autoprepared_prepared

>  <s_lp_Force_Field>  (1) 
S-OPLS

>  <s_lp_Variant>  (1) 
DiffSBDD_19-1

>  <s_m_source_file>  (1) 
generated_generic_title2_ligand_DiffSBDD_2026-06-23_prepared.sdf

>  <GenAI_Model>  (1) 
DiffSBDD

>  <Protein>  (1) 
generic_title2

$$$$
DiffSBDD_28
     RDKit          3D

  0  0  0  0  0  0  0  0  0  0999 V3000
M  V30 BEGIN CTAB
M  V30 COUNTS 78 85 0 0 1
M  V30 BEGIN ATOM
M  V30 1 F 5.474946 0.790768 -13.984836 0
M  V30 2 C 11.652328 8.687145 -7.234919 0 CFG=1
M  V30 3 C 9.873301 6.933827 -10.073067 0 CFG=2
M  V30 4 C 11.451584 6.706269 -5.277036 0 CFG=2
M  V30 5 C 8.691752 4.052283 -13.292683 0 CFG=1
M  V30 6 C 13.014883 8.249906 -7.733717 0
M  V30 7 C 8.101930 5.716170 -11.389884 0 CFG=2
M  V30 8 C 7.332482 2.747517 -15.885664 0 CFG=1
M  V30 9 C 9.749438 8.390222 -10.483065 0
M  V30 10 C 7.223135 3.735985 -13.552043 0 CFG=1
M  V30 11 C 11.210295 9.470029 -5.195994 0 CFG=1
M  V30 12 C 8.692443 5.243457 -8.960781 0
M  V30 13 C 11.341536 8.114232 -5.832723 0 CFG=1
M  V30 14 O 11.943383 9.619344 -4.008689 0
M  V30 15 C 6.238930 0.548945 -15.113557 0 CFG=1
M  V30 16 C 9.134415 4.981789 -12.214506 0 CFG=1
M  V30 17 O 9.220726 3.570763 -12.044041 0
M  V30 18 N 8.605970 6.182231 -10.081948 0 CFG=1 CHG=1
M  V30 19 O 12.564010 7.312843 -3.208349 0
M  V30 20 C 5.457157 0.079458 -16.279652 0
M  V30 21 O 10.190350 7.308877 -5.586397 0
M  V30 22 C 6.256318 4.585849 -12.682476 0
M  V30 23 C 11.776201 10.054192 -6.470324 0
M  V30 24 N 10.585357 8.388804 -8.252932 0
M  V30 25 C 11.691588 6.379952 -3.816553 0
M  V30 26 N 8.518582 3.336906 -16.537534 0 CHG=1
M  V30 27 C 6.790848 4.917783 -11.283488 0
M  V30 28 C 8.356102 4.803553 -16.512041 0
M  V30 29 C 7.113847 5.040636 -15.651681 0
M  V30 30 O 5.585450 0.320834 -17.479210 0
M  V30 31 C 9.368857 6.091206 -7.886999 0
M  V30 32 C 7.541221 1.305341 -15.371072 0
M  V30 33 O 6.175377 -0.808898 -15.678148 0
M  V30 34 N 6.834480 3.781609 -14.969680 0
M  V30 35 C 10.798732 9.008151 -9.571682 0
M  V30 36 C 12.538255 7.245452 -1.800411 0
M  V30 37 C 10.404596 6.960890 -8.632993 0 CFG=1
M  V30 38 H 10.619330 6.448765 -10.683976 0
M  V30 39 H 11.767431 5.934038 -5.975285 0
M  V30 40 H 9.375343 3.990331 -14.125517 0
M  V30 41 H 13.775410 8.788543 -7.185484 0
M  V30 42 H 13.164065 7.190252 -7.585072 0
M  V30 43 H 13.247836 8.475813 -8.768386 0
M  V30 44 H 7.877443 6.633241 -11.935995 0
M  V30 45 H 6.605054 2.680009 -16.696016 0
M  V30 46 H 8.769690 8.811607 -10.263222 0
M  V30 47 H 9.946777 8.517968 -11.546730 0
M  V30 48 H 7.080351 2.717330 -13.192835 0
M  V30 49 H 10.178805 9.817765 -5.086997 0
M  V30 50 H 9.316683 4.391058 -9.234588 0
M  V30 51 H 7.717802 4.882833 -8.632331 0
M  V30 52 H 12.223256 8.747133 -3.734656 0
M  V30 53 H 10.068532 5.488015 -12.439822 0
M  V30 54 H 5.304155 4.060639 -12.592322 0
M  V30 55 H 6.019344 5.528630 -13.175624 0
M  V30 56 H 11.374192 10.995734 -6.785030 0
M  V30 57 H 12.811065 10.322722 -6.257047 0
M  V30 58 H 10.727363 6.321898 -3.309678 0
M  V30 59 H 12.169171 5.409860 -3.740659 0
M  V30 60 H 8.608923 2.994893 -17.484033 0
M  V30 61 H 6.938417 3.993071 -10.724880 0
M  V30 62 H 6.045787 5.495935 -10.734162 0
M  V30 63 H 8.221158 5.201700 -17.518561 0
M  V30 64 H 9.242965 5.272181 -16.082021 0
M  V30 65 H 6.273313 5.284065 -16.302876 0
M  V30 66 H 7.246945 5.881244 -14.970426 0
M  V30 67 H 9.813978 5.451347 -7.132101 0
M  V30 68 H 8.616432 6.722769 -7.409732 0
M  V30 69 H 8.096088 0.754205 -16.132005 0
M  V30 70 H 8.165988 1.269959 -14.478088 0
M  V30 71 H 10.792288 10.091065 -9.585018 0
M  V30 72 H 11.749325 8.724725 -10.015325 0
M  V30 73 H 13.144723 8.049805 -1.385643 0
M  V30 74 H 11.516942 7.385048 -1.442783 0
M  V30 75 H 12.930072 6.290374 -1.444145 0
M  V30 76 H 11.360589 6.438087 -8.632351 0
M  V30 77 H 7.909473 6.878330 -9.760956 0
M  V30 78 H 9.341958 3.088839 -16.009717 0
M  V30 END ATOM
M  V30 BEGIN BOND
M  V30 1 1 2 6 CFG=3
M  V30 2 1 9 3
M  V30 3 1 10 5
M  V30 4 1 13 2
M  V30 5 1 13 4
M  V30 6 1 13 11
M  V30 7 1 14 11
M  V30 8 1 15 1 CFG=1
M  V30 9 1 16 5
M  V30 10 1 16 7
M  V30 11 1 17 5
M  V30 12 1 17 16
M  V30 13 1 18 3
M  V30 14 1 18 7
M  V30 15 1 18 12
M  V30 16 1 20 15
M  V30 17 1 21 4
M  V30 18 1 13 21 CFG=3
M  V30 19 1 22 10
M  V30 20 1 23 2
M  V30 21 1 23 11
M  V30 22 1 24 2
M  V30 23 1 25 4
M  V30 24 1 25 19
M  V30 25 1 26 8
M  V30 26 1 27 7
M  V30 27 1 27 22
M  V30 28 1 28 26
M  V30 29 1 29 28
M  V30 30 2 30 20
M  V30 31 1 31 12
M  V30 32 1 32 8
M  V30 33 1 32 15
M  V30 34 1 33 15
M  V30 35 1 33 20
M  V30 36 1 34 8
M  V30 37 1 34 10
M  V30 38 1 34 29
M  V30 39 1 35 9
M  V30 40 1 35 24
M  V30 41 1 36 19
M  V30 42 1 37 3
M  V30 43 1 37 24
M  V30 44 1 37 31
M  V30 45 1 3 38 CFG=3
M  V30 46 1 4 39 CFG=3
M  V30 47 1 5 40 CFG=3
M  V30 48 1 41 6
M  V30 49 1 42 6
M  V30 50 1 43 6
M  V30 51 1 7 44 CFG=3
M  V30 52 1 8 45 CFG=3
M  V30 53 1 46 9
M  V30 54 1 47 9
M  V30 55 1 10 48 CFG=1
M  V30 56 1 11 49 CFG=1
M  V30 57 1 50 12
M  V30 58 1 51 12
M  V30 59 1 52 14
M  V30 60 1 16 53 CFG=3
M  V30 61 1 54 22
M  V30 62 1 55 22
M  V30 63 1 56 23
M  V30 64 1 57 23
M  V30 65 1 58 25
M  V30 66 1 59 25
M  V30 67 1 60 26
M  V30 68 1 61 27
M  V30 69 1 62 27
M  V30 70 1 63 28
M  V30 71 1 64 28
M  V30 72 1 65 29
M  V30 73 1 66 29
M  V30 74 1 67 31
M  V30 75 1 68 31
M  V30 76 1 69 32
M  V30 77 1 70 32
M  V30 78 1 71 35
M  V30 79 1 72 35
M  V30 80 1 73 36
M  V30 81 1 74 36
M  V30 82 1 75 36
M  V30 83 1 37 76 CFG=3
M  V30 84 1 18 77 CFG=1
M  V30 85 1 78 26
M  V30 END BOND
M  V30 END CTAB
M  END
>  <i_epik_Tot_Q>  (1) 
2

>  <i_epik_Tot_abs_Q>  (1) 
2

>  <i_i_glide_confnum>  (1) 
388

>  <i_i_glide_lignum>  (1) 
86

>  <i_i_glide_posenum>  (1) 
261

>  <i_i_glide_rotatable_bonds>  (1) 
8

>  <i_lp_mmshare_version>  (1) 
72125

>  <i_m_source_file_index>  (1) 
29

>  <i_f3d_flags>  (1) 
0

>  <num_sample>  (1) 
50

>  <b_lp_Chiralities_Consistent>  (1) 
1

>  <r_epik_Charging_Adjusted_Penalty>  (1) 
1.0492181154286748

>  <r_epik_Ionization_Penalty>  (1) 
0.8301501805432685

>  <r_epik_Ionization_Penalty_Charging>  (1) 
0.211122083805314

>  <r_epik_Ionization_Penalty_Neutral>  (1) 
0.61902809673795445

>  <r_epik_State_Penalty>  (1) 
0.83809603162336077

>  <r_glide_ring_energy>  (1) 
0.81914574756082614

>  <r_i_docking_score>  (1) 
-5.2872691954700946

>  <r_i_glide_ecoul>  (1) 
-7.1263108713352992

>  <r_i_glide_eff_state_penalty>  (1) 
0.83809603162336077

>  <r_i_glide_einternal>  (1) 
13.178377733336198

>  <r_i_glide_emodel>  (1) 
-33.262132225871213

>  <r_i_glide_emodel_strain>  (1) 
5.0642746540908092

>  <r_i_glide_energy>  (1) 
-40.601305764922408

>  <r_i_glide_erotb>  (1) 
0.44856850619138583

>  <r_i_glide_esite>  (1) 
-0.10716713281633389

>  <r_i_glide_evdw>  (1) 
-33.474994893587109

>  <r_i_glide_gscore>  (1) 
-6.1253652270934555

>  <r_i_glide_gscore_strain>  (1) 
0.26606866352270231

>  <r_i_glide_hbond>  (1) 
-0.15304103875060693

>  <r_i_glide_ligand_efficiency>  (1) 
-0.1428991674451377

>  <r_i_glide_ligand_efficiency_ln>  (1) 
-1.1466847373212079

>  <r_i_glide_ligand_efficiency_sa>  (1) 
-0.47617172834270188

>  <r_i_glide_lipo>  (1) 
-2.8623048752560631

>  <r_i_glide_metal>  (1) 
-0

>  <r_i_glide_rewards>  (1) 
-0.97479297460488901

>  <r_lp_Energy>  (1) 
60.259107999999998

>  <s_epik_Chemistry_Notes>  (1) 
This compound has an ester and may undergo hydrolysis at high or low pH. This compound contains an acetal/aminal-like group ( X-CH(R)-Y where X, Y are N, S, or O) that may be acid/base labile, releasing an aldehyde.

>  <s_epik_cmdline>  (1) 
J2VwaWtfcHl0aG9uJywgJy1waHQnLCAnMS4wJywgJy1waCcsICc3LjQnLCAnLXRuJywgJzgnLCAnLW1hJywgJzUwMCcsICctaW1hZScsICc8aW5maWxlLm1hZT4nLCAnLW9tYWUnLCAnPG91dGZpbGUubWFlPic=

>  <s_epik_input>  (1) 
Tz1DKE8xKUMxKEYpW0NIMl1bQ0BASF0yW05IXVtDSDJdW0NIMl1OMltDQEBIXTNbQ0gyXVtDSDJdW0NASF0oW0NAQEhdKE80KVtDQEhdMzQpTjVbQ0gyXVtDSDJdW0NAQEhdKFtDQEhdNTYpTihbQ0gyXVtDSDJdNilbQ0BAXShbQ0gzXSkoW0NIMl1bQ0BASF03W09IXSlbQ0BAXTc4W0NASF0oTzgpW0NIMl1PW0NIM10=

>  <s_glide_docking_method>  (1) 
confgen

>  <s_i_glide_gridfile>  (1) 
gpcr_drd2_6luq_protein_autoprepared_prepared

>  <s_lp_Force_Field>  (1) 
S-OPLS

>  <s_lp_Variant>  (1) 
DiffSBDD_28-9

>  <s_m_source_file>  (1) 
generated_generic_title2_ligand_DiffSBDD_2026-06-23_prepared.sdf

>  <GenAI_Model>  (1) 
DiffSBDD

>  <Protein>  (1) 
generic_title2

$$$$
DiffSBDD_6
     RDKit          3D

  0  0  0  0  0  0  0  0  0  0999 V3000
M  V30 BEGIN CTAB
M  V30 COUNTS 73 76 0 0 1
M  V30 BEGIN ATOM
M  V30 1 C 4.667626 7.624813 -16.905732 0
M  V30 2 C 4.996620 6.214057 -16.442783 0 CFG=1
M  V30 3 N 7.873580 5.475022 -11.888341 0
M  V30 4 C 10.275598 6.491315 -11.614608 0
M  V30 5 O 8.803513 8.389604 -6.385054 0
M  V30 6 C 8.927335 6.056244 -10.990282 0 CFG=2
M  V30 7 C 10.309301 6.719672 -5.446479 0
M  V30 8 C 6.238338 5.698179 -17.070823 0
M  V30 9 N 8.599260 4.452456 -17.940869 0
M  V30 10 C 6.321800 5.781056 -18.610788 0
M  V30 11 O 11.430025 7.545893 -7.722834 0
M  V30 12 C 9.367448 7.119533 -6.606019 0 CFG=2
M  V30 13 C 8.496334 4.690122 -16.633884 0
M  V30 14 C 5.407152 5.991835 -14.945028 0 CFG=2
M  V30 15 C 6.518798 6.772438 -14.286879 0 CFG=1
M  V30 16 C 8.123702 4.452415 -12.748082 0
M  V30 17 C 6.366426 7.502068 -21.430520 0
M  V30 18 C 11.832984 8.861334 -8.034648 0
M  V30 19 C 6.378177 7.194469 -12.835443 0
M  V30 20 C 7.175202 5.242954 -16.219295 0
M  V30 21 C 11.873637 9.062987 -9.553617 0
M  V30 22 C 10.177219 5.827665 -8.656239 0
M  V30 23 C 10.062364 7.190870 -7.969739 0 CFG=2
M  V30 24 C 5.320939 6.786510 -19.197072 0
M  V30 25 C 9.091960 5.300192 -9.644987 0
M  V30 26 F 6.476254 8.766919 -21.018440 0
M  V30 27 C 6.830795 5.353691 -14.785146 0 CFG=2
M  V30 28 C 6.545287 6.079323 -11.814430 0
M  V30 29 C 7.048378 4.153104 -13.823673 0
M  V30 30 C 10.607461 6.390978 -12.910928 0
M  V30 31 F 7.520334 6.872487 -21.228247 0
M  V30 32 O 9.419272 4.450577 -15.865312 0
M  V30 33 F 6.121141 7.507438 -22.738858 0
M  V30 34 C 5.202159 6.800496 -20.714427 0
M  V30 35 C 4.588507 7.609164 -18.417128 0
M  V30 36 O 9.168516 3.807849 -12.730332 0
M  V30 37 H 5.412447 8.354063 -16.584713 0
M  V30 38 H 3.707425 7.940034 -16.492426 0
M  V30 39 H 4.159198 5.590209 -16.724842 0
M  V30 40 H 10.993693 6.910595 -10.945004 0
M  V30 41 H 7.927517 8.360686 -6.758704 0
M  V30 42 H 8.575790 7.046409 -10.706719 0
M  V30 43 H 10.967893 5.904835 -5.742412 0
M  V30 44 H 9.774729 6.392264 -4.557208 0
M  V30 45 H 10.953694 7.546909 -5.150766 0
M  V30 46 H 9.458088 4.070814 -18.314623 0
M  V30 47 H 7.824418 4.653236 -18.554322 0
M  V30 48 H 7.287655 6.168180 -18.929742 0
M  V30 49 H 6.141331 4.799775 -19.053227 0
M  V30 50 H 8.541440 6.407652 -6.660923 0
M  V30 51 H 4.627026 5.589931 -14.302636 0
M  V30 52 H 6.952091 7.565531 -14.893446 0
M  V30 53 H 11.198731 9.587395 -7.524348 0
M  V30 54 H 12.835028 8.991988 -7.623728 0
M  V30 55 H 5.400377 7.661414 -12.698196 0
M  V30 56 H 7.122531 7.967524 -12.622166 0
M  V30 57 H 12.175301 10.066407 -9.816455 0
M  V30 58 H 10.894511 8.912595 -9.998259 0
M  V30 59 H 12.575880 8.375993 -10.029035 0
M  V30 60 H 10.382726 5.054582 -7.921567 0
M  V30 61 H 11.094212 5.990091 -9.183968 0
M  V30 62 H 9.556224 7.881339 -8.645838 0
M  V30 63 H 8.125679 5.238394 -9.136571 0
M  V30 64 H 9.369040 4.273281 -9.893177 0
M  V30 65 H 6.366041 6.389306 -10.790207 0
M  V30 66 H 5.750967 5.347011 -11.937241 0
M  V30 67 H 7.367494 3.283895 -14.401526 0
M  V30 68 H 6.107455 3.842031 -13.374630 0
M  V30 69 H 9.928996 5.988463 -13.640898 0
M  V30 70 H 11.573887 6.719845 -13.260324 0
M  V30 71 H 5.100672 5.776343 -21.069667 0
M  V30 72 H 4.276349 7.310055 -20.984367 0
M  V30 73 H 3.896059 8.306470 -18.868303 0
M  V30 END ATOM
M  V30 BEGIN BOND
M  V30 1 1 2 1
M  V30 2 1 6 3
M  V30 3 1 6 4
M  V30 4 1 8 2
M  V30 5 1 10 8
M  V30 6 1 12 5
M  V30 7 1 12 7
M  V30 8 1 13 9
M  V30 9 1 14 2
M  V30 10 1 15 14
M  V30 11 1 16 3
M  V30 12 1 18 11
M  V30 13 1 19 15
M  V30 14 2 20 8
M  V30 15 1 20 13
M  V30 16 1 21 18
M  V30 17 1 23 11
M  V30 18 1 23 12
M  V30 19 1 23 22
M  V30 20 1 24 10
M  V30 21 1 25 6
M  V30 22 1 25 22
M  V30 23 1 26 17
M  V30 24 1 27 14
M  V30 25 1 27 15
M  V30 26 1 27 20
M  V30 27 1 28 3
M  V30 28 1 28 19
M  V30 29 1 29 16
M  V30 30 1 27 29 CFG=1
M  V30 31 2 30 4
M  V30 32 1 31 17
M  V30 33 2 32 13
M  V30 34 1 33 17
M  V30 35 1 34 17
M  V30 36 1 34 24
M  V30 37 1 35 1
M  V30 38 2 35 24
M  V30 39 2 36 16
M  V30 40 1 37 1
M  V30 41 1 38 1
M  V30 42 1 2 39 CFG=3
M  V30 43 1 40 4
M  V30 44 1 41 5
M  V30 45 1 6 42 CFG=1
M  V30 46 1 43 7
M  V30 47 1 44 7
M  V30 48 1 45 7
M  V30 49 1 46 9
M  V30 50 1 47 9
M  V30 51 1 48 10
M  V30 52 1 49 10
M  V30 53 1 12 50 CFG=3
M  V30 54 1 14 51 CFG=1
M  V30 55 1 15 52 CFG=3
M  V30 56 1 53 18
M  V30 57 1 54 18
M  V30 58 1 55 19
M  V30 59 1 56 19
M  V30 60 1 57 21
M  V30 61 1 58 21
M  V30 62 1 59 21
M  V30 63 1 60 22
M  V30 64 1 61 22
M  V30 65 1 23 62 CFG=3
M  V30 66 1 63 25
M  V30 67 1 64 25
M  V30 68 1 65 28
M  V30 69 1 66 28
M  V30 70 1 67 29
M  V30 71 1 68 29
M  V30 72 1 69 30
M  V30 73 1 70 30
M  V30 74 1 71 34
M  V30 75 1 72 34
M  V30 76 1 73 35
M  V30 END BOND
M  V30 END CTAB
M  END
>  <i_epik_Tot_Q>  (1) 
0

>  <i_epik_Tot_abs_Q>  (1) 
0

>  <i_i_glide_confnum>  (1) 
173

>  <i_i_glide_lignum>  (1) 
30

>  <i_i_glide_posenum>  (1) 
281

>  <i_i_glide_rotatable_bonds>  (1) 
12

>  <i_lp_mmshare_version>  (1) 
72125

>  <i_m_source_file_index>  (1) 
7

>  <i_f3d_flags>  (1) 
0

>  <num_sample>  (1) 
50

>  <b_lp_Chiralities_Consistent>  (1) 
1

>  <r_epik_Charging_Adjusted_Penalty>  (1) 
0

>  <r_epik_Ionization_Penalty>  (1) 
7.0933553160111078e-06

>  <r_epik_Ionization_Penalty_Charging>  (1) 
0

>  <r_epik_Ionization_Penalty_Neutral>  (1) 
7.0933553160111078e-06

>  <r_epik_State_Penalty>  (1) 
-0

>  <r_glide_ring_energy>  (1) 
0

>  <r_i_docking_score>  (1) 
-5.283421534204531

>  <r_i_glide_ecoul>  (1) 
-0.53660159518826411

>  <r_i_glide_eff_state_penalty>  (1) 
-0

>  <r_i_glide_einternal>  (1) 
3.1771026797795372

>  <r_i_glide_emodel>  (1) 
-41.295238279498768

>  <r_i_glide_emodel_strain>  (1) 
2.5486836625945273

>  <r_i_glide_energy>  (1) 
-34.911996067346628

>  <r_i_glide_erotb>  (1) 
0.62865897288938211

>  <r_i_glide_esite>  (1) 
-0.029521740458876629

>  <r_i_glide_evdw>  (1) 
-34.375394472158362

>  <r_i_glide_gscore>  (1) 
-5.283421534204531

>  <r_i_glide_gscore_strain>  (1) 
0

>  <r_i_glide_hbond>  (1) 
-0.1423603567811153

>  <r_i_glide_ligand_efficiency>  (1) 
-0.14676170928345919

>  <r_i_glide_ligand_efficiency_ln>  (1) 
-1.1526998372093937

>  <r_i_glide_ligand_efficiency_sa>  (1) 
-0.48459648697740548

>  <r_i_glide_lipo>  (1) 
-2.6885856364809029

>  <r_i_glide_metal>  (1) 
-0

>  <r_i_glide_rewards>  (1) 
-1.2523528104868602

>  <r_lp_Energy>  (1) 
24.422612999999998

>  <r_lp_tautomer_probability>  (1) 
1

>  <s_epik_cmdline>  (1) 
J2VwaWtfcHl0aG9uJywgJy1waHQnLCAnMS4wJywgJy1waCcsICc3LjQnLCAnLXRuJywgJzgnLCAnLW1hJywgJzUwMCcsICctaW1hZScsICc8aW5maWxlLm1hZT4nLCAnLW9tYWUnLCAnPG91dGZpbGUubWFlPic=

>  <s_epik_input>  (1) 
RkMoRikoRilbQ0gyXUMoPVtDSF1bQ0gyXTEpW0NIMl1DKD1DMkMoPU8pW05IMl0pW0NASF0xW0NIXShbQ0BAXTIzNClbQ0BIXTNbQ0gyXVtDSDJdTihDKD1PKVtDSDJdNClbQ0BIXShbQ0hdPVtDSDJdKVtDSDJdW0NIMl1bQ0BASF0oW0NASF0oW09IXSlbQ0gzXSlPW0NIMl1bQ0gzXQ==

>  <s_glide_docking_method>  (1) 
confgen

>  <s_i_glide_gridfile>  (1) 
gpcr_drd2_6luq_protein_autoprepared_prepared

>  <s_lp_Force_Field>  (1) 
S-OPLS

>  <s_lp_Variant>  (1) 
DiffSBDD_6-1

>  <s_m_source_file>  (1) 
generated_generic_title2_ligand_DiffSBDD_2026-06-23_prepared.sdf

>  <GenAI_Model>  (1) 
DiffSBDD

>  <Protein>  (1) 
generic_title2

$$$$
DiffSBDD_24
     RDKit          3D

  0  0  0  0  0  0  0  0  0  0999 V3000
M  V30 BEGIN CTAB
M  V30 COUNTS 79 83 0 0 1
M  V30 BEGIN ATOM
M  V30 1 C 16.502574 -0.412838 -20.541232 0 CFG=2
M  V30 2 C 8.523337 5.464383 -20.863072 0
M  V30 3 C 16.098414 -0.955308 -21.924020 0
M  V30 4 C 8.367197 6.229575 -12.595450 0
M  V30 5 C 14.953315 2.893329 -17.812134 0
M  V30 6 C 6.503197 4.626152 -11.218805 0
M  V30 7 C 7.639293 5.108185 -10.536006 0
M  V30 8 O 6.576018 5.012796 -15.501350 0
M  V30 9 C 6.451428 6.051020 -17.682366 0
M  V30 10 C 5.703470 7.918127 -16.100283 0
M  V30 11 C 10.539700 7.364234 -11.201175 0
M  V30 12 C 6.942320 6.158584 -18.999179 0
M  V30 13 C 9.860262 4.769945 -21.218007 0
M  V30 14 N 11.859493 4.177463 -19.936438 0
M  V30 15 O 7.792715 4.790228 -9.196595 0
M  V30 16 O 15.543047 -0.809757 -19.584397 0
M  V30 17 C 16.672755 1.116242 -20.487047 0
M  V30 18 C 7.015464 5.102291 -16.796556 0
M  V30 19 C 6.297281 4.942805 -12.573704 0
M  V30 20 C 5.316235 6.951692 -17.222133 0
M  V30 21 O 15.443366 3.241412 -20.133915 0
M  V30 22 C 8.521814 4.348485 -18.557754 0
M  V30 23 C 7.225232 5.746971 -13.259920 0
M  V30 24 C 9.033071 4.891002 -8.518191 0
M  V30 25 C 13.015381 4.373634 -19.060669 0 CFG=1
M  V30 26 C 8.039433 4.247763 -17.241428 0
M  V30 27 O 11.237693 6.355637 -20.042788 0
M  V30 28 C 11.055761 5.175888 -20.345310 0
M  V30 29 C 16.294580 -2.473539 -22.053276 0
M  V30 30 C 6.983006 6.123089 -14.710367 0 CFG=2
M  V30 31 O 9.704487 6.402995 -10.576809 0
M  V30 32 O 12.694159 5.150494 -17.922973 0
M  V30 33 C 13.570092 3.050579 -18.551509 0 CFG=1
M  V30 34 O 14.975376 1.928348 -16.783827 0
M  V30 35 O 15.663786 4.094674 -17.588088 0
M  V30 36 C 7.984563 5.317136 -19.438340 0
M  V30 37 C 5.920048 7.227214 -14.751188 0
M  V30 38 C 15.366992 1.886807 -20.486504 0 CFG=2
M  V30 39 C 8.587913 5.919107 -11.231422 0
M  V30 40 C 14.740772 2.385837 -19.189648 0 CFG=2
M  V30 41 H 17.455544 -0.855765 -20.252502 0
M  V30 42 H 7.750997 5.099889 -21.540654 0
M  V30 43 H 8.617126 6.531668 -21.071824 0
M  V30 44 H 15.058837 -0.700430 -22.135883 0
M  V30 45 H 16.692959 -0.467219 -22.697404 0
M  V30 46 H 9.067107 6.844194 -13.132001 0
M  V30 47 H 5.783414 4.014583 -10.694987 0
M  V30 48 H 4.900027 8.645180 -15.976499 0
M  V30 49 H 6.575614 8.501429 -16.379918 0
M  V30 50 H 11.301770 7.683098 -10.489384 0
M  V30 51 H 9.975249 8.247598 -11.502999 0
M  V30 52 H 11.053186 6.939960 -12.065091 0
M  V30 53 H 6.520985 6.889688 -19.673604 0
M  V30 54 H 10.114903 4.999534 -22.252736 0
M  V30 55 H 9.726718 3.687959 -21.176524 0
M  V30 56 H 11.650531 3.234503 -20.228148 0
M  V30 57 H 15.771623 -1.690279 -19.281347 0
M  V30 58 H 17.222782 1.380886 -19.585400 0
M  V30 59 H 17.285826 1.457557 -21.322154 0
M  V30 60 H 5.419700 4.575720 -13.085326 0
M  V30 61 H 4.950923 7.525578 -18.074477 0
M  V30 62 H 4.482822 6.323824 -16.904155 0
M  V30 63 H 9.308937 3.690121 -18.885518 0
M  V30 64 H 8.967835 4.343564 -7.585473 0
M  V30 65 H 9.268605 5.923424 -8.259092 0
M  V30 66 H 9.840984 4.439208 -9.091376 0
M  V30 67 H 13.778619 4.919500 -19.615281 0
M  V30 68 H 8.461534 3.517631 -16.566647 0
M  V30 69 H 15.916338 -2.831086 -23.010872 0
M  V30 70 H 15.774977 -3.012974 -21.263102 0
M  V30 71 H 17.347097 -2.751058 -21.992436 0
M  V30 72 H 7.923835 6.523109 -15.094702 0
M  V30 73 H 12.055968 5.798096 -18.194463 0
M  V30 74 H 12.785989 2.383207 -18.195560 0
M  V30 75 H 14.245003 2.084852 -16.201755 0
M  V30 76 H 15.029624 4.775228 -17.407800 0
M  V30 77 H 6.242887 7.989897 -14.050796 0
M  V30 78 H 4.976860 6.839889 -14.370286 0
M  V30 79 H 14.691173 1.674522 -21.311428 0
M  V30 END ATOM
M  V30 BEGIN BOND
M  V30 1 1 3 1
M  V30 2 1 7 6
M  V30 3 1 12 9
M  V30 4 1 13 2
M  V30 5 1 15 7
M  V30 6 1 16 1
M  V30 7 1 17 1
M  V30 8 1 18 8
M  V30 9 2 18 9
M  V30 10 2 19 6
M  V30 11 1 20 9
M  V30 12 1 20 10
M  V30 13 2 23 4
M  V30 14 1 23 19
M  V30 15 1 24 15
M  V30 16 1 25 14
M  V30 17 1 26 18
M  V30 18 2 26 22
M  V30 19 1 28 13
M  V30 20 1 28 14
M  V30 21 2 28 27
M  V30 22 1 29 3
M  V30 23 1 30 8
M  V30 24 1 30 23
M  V30 25 1 31 11
M  V30 26 1 32 25
M  V30 27 1 33 5
M  V30 28 1 33 25
M  V30 29 1 34 5
M  V30 30 1 35 5
M  V30 31 1 36 2
M  V30 32 2 36 12
M  V30 33 1 36 22
M  V30 34 1 37 10
M  V30 35 1 37 30
M  V30 36 1 38 17
M  V30 37 1 38 21
M  V30 38 1 39 4
M  V30 39 2 39 7
M  V30 40 1 39 31
M  V30 41 1 40 5
M  V30 42 1 40 21 CFG=3
M  V30 43 1 40 33
M  V30 44 1 40 38
M  V30 45 1 1 41 CFG=1
M  V30 46 1 42 2
M  V30 47 1 43 2
M  V30 48 1 44 3
M  V30 49 1 45 3
M  V30 50 1 46 4
M  V30 51 1 47 6
M  V30 52 1 48 10
M  V30 53 1 49 10
M  V30 54 1 50 11
M  V30 55 1 51 11
M  V30 56 1 52 11
M  V30 57 1 53 12
M  V30 58 1 54 13
M  V30 59 1 55 13
M  V30 60 1 56 14
M  V30 61 1 57 16
M  V30 62 1 58 17
M  V30 63 1 59 17
M  V30 64 1 60 19
M  V30 65 1 61 20
M  V30 66 1 62 20
M  V30 67 1 63 22
M  V30 68 1 64 24
M  V30 69 1 65 24
M  V30 70 1 66 24
M  V30 71 1 25 67 CFG=3
M  V30 72 1 68 26
M  V30 73 1 69 29
M  V30 74 1 70 29
M  V30 75 1 71 29
M  V30 76 1 30 72 CFG=3
M  V30 77 1 73 32
M  V30 78 1 33 74 CFG=1
M  V30 79 1 75 34
M  V30 80 1 76 35
M  V30 81 1 77 37
M  V30 82 1 78 37
M  V30 83 1 38 79 CFG=3
M  V30 END BOND
M  V30 END CTAB
M  END
>  <i_epik_Tot_Q>  (1) 
0

>  <i_epik_Tot_abs_Q>  (1) 
0

>  <i_i_glide_confnum>  (1) 
372

>  <i_i_glide_lignum>  (1) 
71

>  <i_i_glide_posenum>  (1) 
359

>  <i_i_glide_rotatable_bonds>  (1) 
16

>  <i_lp_mmshare_version>  (1) 
72125

>  <i_m_source_file_index>  (1) 
25

>  <i_f3d_flags>  (1) 
0

>  <num_sample>  (1) 
50

>  <b_lp_Chiralities_Consistent>  (1) 
1

>  <r_epik_Charging_Adjusted_Penalty>  (1) 
0

>  <r_epik_Ionization_Penalty>  (1) 
7.7966095074424399e-05

>  <r_epik_Ionization_Penalty_Charging>  (1) 
0

>  <r_epik_Ionization_Penalty_Neutral>  (1) 
7.7966095074424399e-05

>  <r_epik_State_Penalty>  (1) 
-0

>  <r_glide_ring_energy>  (1) 
0

>  <r_i_docking_score>  (1) 
-5.279601808354669

>  <r_i_glide_ecoul>  (1) 
-7.4370504629748462

>  <r_i_glide_eff_state_penalty>  (1) 
-0

>  <r_i_glide_einternal>  (1) 
19.912609998525468

>  <r_i_glide_emodel>  (1) 
-43.399029298264303

>  <r_i_glide_emodel_strain>  (1) 
2.1550816932388415

>  <r_i_glide_energy>  (1) 
-42.354610281224787

>  <r_i_glide_erotb>  (1) 
0.5242298981819471

>  <r_i_glide_esite>  (1) 
-0.012332495447538323

>  <r_i_glide_evdw>  (1) 
-34.917559818249941

>  <r_i_glide_gscore>  (1) 
-5.279601808354669

>  <r_i_glide_gscore_strain>  (1) 
0

>  <r_i_glide_hbond>  (1) 
-0.45070430467033057

>  <r_i_glide_ligand_efficiency>  (1) 
-0.13199004520886673

>  <r_i_glide_ligand_efficiency_ln>  (1) 
-1.1259836939767014

>  <r_i_glide_ligand_efficiency_sa>  (1) 
-0.4513996050158639

>  <r_i_glide_lipo>  (1) 
-1.9588374254900085

>  <r_i_glide_metal>  (1) 
-0

>  <r_i_glide_rewards>  (1) 
-0.52052192057001345

>  <r_lp_Energy>  (1) 
27.684539999999998

>  <r_lp_tautomer_probability>  (1) 
1

>  <s_epik_Chemistry_Notes>  (1) 
This compound contains an acetal/aminal-like group ( X-CH(R)-Y where X, Y are N, S, or O) that may be acid/base labile, releasing an aldehyde.

>  <s_epik_cmdline>  (1) 
J2VwaWtfcHl0aG9uJywgJy1waHQnLCAnMS4wJywgJy1waCcsICc3LjQnLCAnLXRuJywgJzgnLCAnLW1hJywgJzUwMCcsICctaW1hZScsICc8aW5maWxlLm1hZT4nLCAnLW9tYWUnLCAnPG91dGZpbGUubWFlPic=

>  <s_epik_input>  (1) 
W0NIM11bQ0gyXVtDQEhdKFtPSF0pW0NIMl1bQ0BASF0xT1tDQF0xMkMoW09IXSkoW09IXSlbQ0BIXTJbQ0BIXShbT0hdKVtOSF1DKD1PKVtDSDJdW0NIMl1jKFtjSF0zKVtjSF1bY0hdYyhjMzQpT1tDQEBIXShbQ0gyXVtDSDJdW0NIMl00KWMoW2NIXWM1T1tDSDNdKVtjSF1bY0hdYzVPW0NIM10=

>  <s_glide_docking_method>  (1) 
confgen

>  <s_i_glide_gridfile>  (1) 
gpcr_drd2_6luq_protein_autoprepared_prepared

>  <s_lp_Force_Field>  (1) 
S-OPLS

>  <s_lp_Variant>  (1) 
DiffSBDD_24-1

>  <s_m_source_file>  (1) 
generated_generic_title2_ligand_DiffSBDD_2026-06-23_prepared.sdf

>  <GenAI_Model>  (1) 
DiffSBDD

>  <Protein>  (1) 
generic_title2

$$$$
DiffSBDD_2
     RDKit          3D

  0  0  0  0  0  0  0  0  0  0999 V3000
M  V30 BEGIN CTAB
M  V30 COUNTS 61 63 0 0 1
M  V30 BEGIN ATOM
M  V30 1 C 11.857591 8.066479 -7.785685 0 CFG=1
M  V30 2 C 9.746306 5.537923 -11.489525 0
M  V30 3 C 12.981919 8.465123 -8.761866 0
M  V30 4 C 6.575408 1.258133 -15.040398 0
M  V30 5 N 5.775412 6.502572 -15.265705 0
M  V30 6 C 8.668054 5.368973 -12.525641 0 CFG=2
M  V30 7 C 9.494423 7.475858 -7.493590 0
M  V30 8 C 7.231629 5.045763 -12.175296 0 CFG=2
M  V30 9 C 5.233240 7.910388 -17.167904 0
M  V30 10 C 6.324621 5.589286 -14.545713 0
M  V30 11 C 5.775406 6.585966 -16.653546 0
M  V30 12 C 7.692445 3.382792 -14.082708 0 CFG=1
M  V30 13 C 9.568673 6.770544 -10.594685 0
M  V30 14 C 10.634378 6.734829 -9.496944 0
M  V30 15 C 8.104605 3.972978 -12.746550 0 CFG=1
M  V30 16 C 8.538504 5.004426 -15.821889 0
M  V30 17 C 9.247213 8.684930 -6.614846 0
M  V30 18 C 10.510386 8.982748 -5.794065 0
M  V30 19 O 6.149408 5.723746 -17.449296 0
M  V30 20 C 6.665994 2.246981 -13.866706 0
M  V30 21 C 7.261217 4.468718 -15.114474 0 CFG=2
M  V30 22 C 11.722617 9.171721 -6.712138 0
M  V30 23 N 10.552769 7.798664 -8.477182 0 CFG=2 CHG=1
M  V30 24 C 6.079262 5.537010 -13.031013 0
M  V30 25 H 12.158057 7.149179 -7.275995 0
M  V30 26 H 9.775409 4.640770 -10.869427 0
M  V30 27 H 10.699558 5.588561 -12.014403 0
M  V30 28 H 13.809422 8.923530 -8.225893 0
M  V30 29 H 13.407208 7.615250 -9.293918 0
M  V30 30 H 12.633932 9.190227 -9.498365 0
M  V30 31 H 5.873325 0.455639 -14.811770 0
M  V30 32 H 6.235895 1.732101 -15.960277 0
M  V30 33 H 7.543185 0.797654 -15.241892 0
M  V30 34 H 8.771318 6.071019 -13.346857 0
M  V30 35 H 8.575410 7.190641 -7.990142 0
M  V30 36 H 9.782382 6.614687 -6.887449 0
M  V30 37 H 6.997756 4.970408 -11.114542 0
M  V30 38 H 4.170747 7.990225 -16.936354 0
M  V30 39 H 5.355268 7.989207 -18.248513 0
M  V30 40 H 5.757565 8.745371 -16.701253 0
M  V30 41 H 8.575410 2.889104 -14.477309 0
M  V30 42 H 9.636283 7.687732 -11.181053 0
M  V30 43 H 8.575410 6.741125 -10.161566 0
M  V30 44 H 10.579202 5.772346 -8.984086 0
M  V30 45 H 11.585152 6.790227 -10.013582 0
M  V30 46 H 8.453810 3.216954 -12.045006 0
M  V30 47 H 8.414605 5.986182 -16.272432 0
M  V30 48 H 9.396502 5.077822 -15.156209 0
M  V30 49 H 8.836875 4.321640 -16.617832 0
M  V30 50 H 8.975436 9.521103 -7.256004 0
M  V30 51 H 8.382583 8.495242 -5.985026 0
M  V30 52 H 10.374604 9.875798 -5.184949 0
M  V30 53 H 10.698666 8.157188 -5.106907 0
M  V30 54 H 6.959824 1.666535 -12.990675 0
M  V30 55 H 5.686541 2.654623 -13.619448 0
M  V30 56 H 6.688862 3.943476 -15.873970 0
M  V30 57 H 11.674772 10.148110 -7.185026 0
M  V30 58 H 12.625641 9.202641 -6.101659 0
M  V30 59 H 5.802118 6.532449 -12.682117 0
M  V30 60 H 5.216212 4.898169 -12.844980 0
M  V30 61 H 10.275645 8.645267 -8.953247 0
M  V30 END ATOM
M  V30 BEGIN BOND
M  V30 1 1 3 1
M  V30 2 1 6 2
M  V30 3 1 8 6
M  V30 4 2 10 5
M  V30 5 1 11 5
M  V30 6 1 11 9
M  V30 7 1 13 2
M  V30 8 1 14 13
M  V30 9 1 15 6
M  V30 10 1 15 8
M  V30 11 1 15 12
M  V30 12 1 17 7
M  V30 13 1 18 17
M  V30 14 2 19 11
M  V30 15 1 20 4
M  V30 16 1 20 12
M  V30 17 1 21 10
M  V30 18 1 21 12
M  V30 19 1 21 16
M  V30 20 1 22 1
M  V30 21 1 22 18
M  V30 22 1 23 1
M  V30 23 1 23 7
M  V30 24 1 23 14
M  V30 25 1 24 8
M  V30 26 1 24 10
M  V30 27 1 1 25 CFG=1
M  V30 28 1 26 2
M  V30 29 1 27 2
M  V30 30 1 28 3
M  V30 31 1 29 3
M  V30 32 1 30 3
M  V30 33 1 31 4
M  V30 34 1 32 4
M  V30 35 1 33 4
M  V30 36 1 6 34 CFG=3
M  V30 37 1 35 7
M  V30 38 1 36 7
M  V30 39 1 8 37 CFG=1
M  V30 40 1 38 9
M  V30 41 1 39 9
M  V30 42 1 40 9
M  V30 43 1 12 41 CFG=3
M  V30 44 1 42 13
M  V30 45 1 43 13
M  V30 46 1 44 14
M  V30 47 1 45 14
M  V30 48 1 15 46 CFG=1
M  V30 49 1 47 16
M  V30 50 1 48 16
M  V30 51 1 49 16
M  V30 52 1 50 17
M  V30 53 1 51 17
M  V30 54 1 52 18
M  V30 55 1 53 18
M  V30 56 1 54 20
M  V30 57 1 55 20
M  V30 58 1 21 56 CFG=3
M  V30 59 1 57 22
M  V30 60 1 58 22
M  V30 61 1 59 24
M  V30 62 1 60 24
M  V30 63 1 23 61 CFG=3
M  V30 END BOND
M  V30 END CTAB
M  END
>  <i_epik_Tot_Q>  (1) 
1

>  <i_epik_Tot_abs_Q>  (1) 
1

>  <i_i_glide_confnum>  (1) 
204

>  <i_i_glide_lignum>  (1) 
24

>  <i_i_glide_posenum>  (1) 
228

>  <i_i_glide_rotatable_bonds>  (1) 
6

>  <i_lp_mmshare_version>  (1) 
72125

>  <i_m_source_file_index>  (1) 
3

>  <i_f3d_flags>  (1) 
0

>  <num_sample>  (1) 
50

>  <b_lp_Chiralities_Consistent>  (1) 
1

>  <r_epik_Charging_Adjusted_Penalty>  (1) 
0.0011657924221308697

>  <r_epik_Ionization_Penalty>  (1) 
0.0011657924221308697

>  <r_epik_Ionization_Penalty_Charging>  (1) 
0.0011657924221308697

>  <r_epik_Ionization_Penalty_Neutral>  (1) 
0

>  <r_epik_State_Penalty>  (1) 
-0

>  <r_glide_ring_energy>  (1) 
0

>  <r_i_docking_score>  (1) 
-5.2763701235002589

>  <r_i_glide_ecoul>  (1) 
-1.5124418733662575

>  <r_i_glide_eff_state_penalty>  (1) 
-0

>  <r_i_glide_einternal>  (1) 
1.9723925642268956

>  <r_i_glide_emodel>  (1) 
-41.052138492988057

>  <r_i_glide_emodel_strain>  (1) 
0.26018098597005235

>  <r_i_glide_energy>  (1) 
-29.232522814359019

>  <r_i_glide_erotb>  (1) 
0.84713914833173298

>  <r_i_glide_esite>  (1) 
-0.017928133152245455

>  <r_i_glide_evdw>  (1) 
-27.720080940992762

>  <r_i_glide_gscore>  (1) 
-5.2763701235002589

>  <r_i_glide_gscore_strain>  (1) 
0

>  <r_i_glide_hbond>  (1) 
0

>  <r_i_glide_ligand_efficiency>  (1) 
-0.21984875514584412

>  <r_i_glide_ligand_efficiency_ln>  (1) 
-1.2628774874020343

>  <r_i_glide_ligand_efficiency_sa>  (1) 
-0.6341535452834246

>  <r_i_glide_lipo>  (1) 
-1.8747942284665737

>  <r_i_glide_metal>  (1) 
-0

>  <r_i_glide_rewards>  (1) 
-2.6179165821585952

>  <r_lp_Energy>  (1) 
47.634619999999998

>  <r_lp_tautomer_probability>  (1) 
1

>  <s_epik_Chemistry_Notes>  (1) 
This compound has an imine and may undergo hydrolysis.

>  <s_epik_cmdline>  (1) 
J2VwaWtfcHl0aG9uJywgJy1waHQnLCAnMS4wJywgJy1waCcsICc3LjQnLCAnLXRuJywgJzgnLCAnLW1hJywgJzUwMCcsICctaW1hZScsICc8aW5maWxlLm1hZT4nLCAnLW9tYWUnLCAnPG91dGZpbGUubWFlPic=

>  <s_epik_input>  (1) 
W0NIM11bQ0BIXTFbQ0gyXVtDSDJdW0NIMl1bQ0gyXU4xW0NIMl1bQ0gyXVtDSDJdW0NASF0yW0NAQEhdKFtDQEBIXTIzKVtDQEBIXShbQ0gyXVtDSDNdKVtDQEhdKFtDSDNdKS9DKFtDSDJdMyk9TlxDKD1PKVtDSDNd

>  <s_glide_docking_method>  (1) 
confgen

>  <s_i_glide_gridfile>  (1) 
gpcr_drd2_6luq_protein_autoprepared_prepared

>  <s_lp_Force_Field>  (1) 
S-OPLS

>  <s_lp_Variant>  (1) 
DiffSBDD_2-4

>  <s_m_source_file>  (1) 
generated_generic_title2_ligand_DiffSBDD_2026-06-23_prepared.sdf

>  <GenAI_Model>  (1) 
DiffSBDD

>  <Protein>  (1) 
generic_title2

$$$$
DiffSBDD_30
     RDKit          3D

  0  0  0  0  0  0  0  0  0  0999 V3000
M  V30 BEGIN CTAB
M  V30 COUNTS 44 44 0 0 1
M  V30 BEGIN ATOM
M  V30 1 C 8.271004 5.284274 -11.179221 0
M  V30 2 N 10.975478 9.395226 -5.985089 0 CHG=-1
M  V30 3 C 7.208485 0.410544 -13.614994 0
M  V30 4 O 10.243402 8.485810 -8.863431 0
M  V30 5 C 11.683895 8.991119 -4.802384 0
M  V30 6 C 6.264816 1.589805 -13.297908 0
M  V30 7 O 6.983215 2.724959 -15.297162 0
M  V30 8 F 6.175411 1.729821 -11.985018 0
M  V30 9 N 8.575360 0.634105 -13.185026 0
M  V30 10 C 10.404582 8.237170 -6.438535 0
M  V30 11 C 9.087085 6.476326 -11.736993 0 CFG=2
M  V30 12 C 11.375389 7.501991 -4.785061 0
M  V30 13 C 7.174975 4.692222 -12.102516 0
M  V30 14 C 6.575375 2.963500 -13.964384 0 CFG=2
M  V30 15 F 11.191809 9.597383 -3.721995 0
M  V30 16 F 12.990703 9.216146 -4.924454 0
M  V30 17 C 9.496606 8.304856 -7.666795 0
M  V30 18 O 11.782504 6.775453 -3.880570 0
M  V30 19 N 9.375409 8.247581 -9.999301 0
M  V30 20 F 5.061344 1.190165 -13.710398 0
M  V30 21 O 9.950979 5.990156 -12.744980 0
M  V30 22 C 9.997673 7.123619 -10.674695 0
M  V30 23 O 8.105993 4.782205 -14.295856 0
M  V30 24 N 10.606827 7.126882 -5.858433 0
M  V30 25 C 7.672089 3.856565 -13.310766 0 CFG=1
M  V30 26 H 8.940529 4.488884 -10.848531 0
M  V30 27 H 7.769667 5.628190 -10.273139 0
M  V30 28 H 6.834587 -0.489130 -13.125708 0
M  V30 29 H 7.207005 0.199241 -14.684987 0
M  V30 30 H 7.446145 3.516368 -15.548304 0
M  V30 31 H 8.951138 1.451859 -13.640334 0
M  V30 32 H 8.656576 0.790225 -12.183545 0
M  V30 33 H 8.427919 7.224640 -12.180292 0
M  V30 34 H 6.556162 4.054563 -11.472407 0
M  V30 35 H 6.506330 5.485431 -12.441098 0
M  V30 36 H 5.663472 3.561325 -13.984994 0
M  V30 37 H 8.780159 9.119519 -7.549102 0
M  V30 38 H 8.920387 7.378325 -7.717356 0
M  V30 39 H 8.420706 8.036508 -9.642141 0
M  V30 40 H 10.554616 5.363919 -12.369692 0
M  V30 41 H 10.303988 6.380156 -9.938854 0
M  V30 42 H 10.909461 7.508076 -11.133354 0
M  V30 43 H 8.788151 5.320275 -13.895895 0
M  V30 44 H 8.529179 3.254508 -13.015539 0
M  V30 END ATOM
M  V30 BEGIN BOND
M  V30 1 1 5 2
M  V30 2 1 6 3
M  V30 3 1 8 6
M  V30 4 1 9 3
M  V30 5 1 10 2
M  V30 6 1 11 1
M  V30 7 1 12 5
M  V30 8 1 13 1
M  V30 9 1 14 6
M  V30 10 1 14 7
M  V30 11 1 15 5
M  V30 12 1 16 5
M  V30 13 1 17 4
M  V30 14 1 17 10
M  V30 15 2 18 12
M  V30 16 1 19 4
M  V30 17 1 20 6
M  V30 18 1 21 11
M  V30 19 1 22 11
M  V30 20 1 22 19
M  V30 21 2 24 10
M  V30 22 1 24 12
M  V30 23 1 25 13
M  V30 24 1 25 14
M  V30 25 1 25 23
M  V30 26 1 26 1
M  V30 27 1 27 1
M  V30 28 1 28 3
M  V30 29 1 29 3
M  V30 30 1 30 7
M  V30 31 1 31 9
M  V30 32 1 32 9
M  V30 33 1 11 33 CFG=3
M  V30 34 1 34 13
M  V30 35 1 35 13
M  V30 36 1 14 36 CFG=3
M  V30 37 1 37 17
M  V30 38 1 38 17
M  V30 39 1 39 19
M  V30 40 1 40 21
M  V30 41 1 41 22
M  V30 42 1 42 22
M  V30 43 1 43 23
M  V30 44 1 25 44 CFG=1
M  V30 END BOND
M  V30 END CTAB
M  END
>  <i_epik_Tot_Q>  (1) 
-1

>  <i_epik_Tot_abs_Q>  (1) 
1

>  <i_i_glide_confnum>  (1) 
186

>  <i_i_glide_lignum>  (1) 
90

>  <i_i_glide_posenum>  (1) 
187

>  <i_i_glide_rotatable_bonds>  (1) 
14

>  <i_lp_mmshare_version>  (1) 
72125

>  <i_m_source_file_index>  (1) 
31

>  <i_f3d_flags>  (1) 
0

>  <num_sample>  (1) 
50

>  <b_lp_Chiralities_Consistent>  (1) 
1

>  <r_epik_Charging_Adjusted_Penalty>  (1) 
0.29689953438897132

>  <r_epik_Ionization_Penalty>  (1) 
0.29704553669164502

>  <r_epik_Ionization_Penalty_Charging>  (1) 
1.7526919545429853e-05

>  <r_epik_Ionization_Penalty_Neutral>  (1) 
0.29702800977209959

>  <r_epik_State_Penalty>  (1) 
0.29688200746942589

>  <r_glide_ring_energy>  (1) 
0

>  <r_i_docking_score>  (1) 
-5.2688070024332099

>  <r_i_glide_ecoul>  (1) 
-10.810382630359024

>  <r_i_glide_eff_state_penalty>  (1) 
0.29688200746942589

>  <r_i_glide_einternal>  (1) 
10.772929014278606

>  <r_i_glide_emodel>  (1) 
-42.777391397726603

>  <r_i_glide_emodel_strain>  (1) 
1.8861450889084921

>  <r_i_glide_energy>  (1) 
-35.804181829405813

>  <r_i_glide_erotb>  (1) 
1.2361090002768802

>  <r_i_glide_esite>  (1) 
-0.17065171397335496

>  <r_i_glide_evdw>  (1) 
-24.993799199046791

>  <r_i_glide_gscore>  (1) 
-5.5656890099026359

>  <r_i_glide_gscore_strain>  (1) 
0

>  <r_i_glide_hbond>  (1) 
-0.42420589734915209

>  <r_i_glide_ligand_efficiency>  (1) 
-0.21075228009732838

>  <r_i_glide_ligand_efficiency_ln>  (1) 
-1.2488651529813179

>  <r_i_glide_ligand_efficiency_sa>  (1) 
-0.61624340537339461

>  <r_i_glide_lipo>  (1) 
-1.0475983214138349

>  <r_i_glide_metal>  (1) 
-0

>  <r_i_glide_rewards>  (1) 
-2.2880947229369815

>  <r_lp_Energy>  (1) 
20.216013999999998

>  <s_epik_Chemistry_Notes>  (1) 
This compound has an imine and may undergo hydrolysis. This compound has a N-S or N-O group and may undergo hydrolysis at high or low pH.

>  <s_epik_cmdline>  (1) 
J2VwaWtfcHl0aG9uJywgJy1waHQnLCAnMS4wJywgJy1waCcsICc3LjQnLCAnLXRuJywgJzgnLCAnLW1hJywgJzUwMCcsICctaW1hZScsICc8aW5maWxlLm1hZT4nLCAnLW9tYWUnLCAnPG91dGZpbGUubWFlPic=

>  <s_epik_input>  (1) 
W05IMl1bQ0gyXUMoRikoRilbQ0BASF0oW09IXSlbQ0BASF0oW09IXSlbQ0gyXVtDSDJdW0NASF0oW09IXSlbQ0gyXVtOSF1PW0NIMl1DKD1OQzEoRilGKVtOSF1DMT1P

>  <s_glide_docking_method>  (1) 
confgen

>  <s_i_glide_gridfile>  (1) 
gpcr_drd2_6luq_protein_autoprepared_prepared

>  <s_lp_Force_Field>  (1) 
S-OPLS

>  <s_lp_Variant>  (1) 
DiffSBDD_30-2

>  <s_m_source_file>  (1) 
generated_generic_title2_ligand_DiffSBDD_2026-06-23_prepared.sdf

>  <GenAI_Model>  (1) 
DiffSBDD

>  <Protein>  (1) 
generic_title2

$$$$
DiffSBDD_0
     RDKit          3D

  0  0  0  0  0  0  0  0  0  0999 V3000
M  V30 BEGIN CTAB
M  V30 COUNTS 70 74 0 0 1
M  V30 BEGIN ATOM
M  V30 1 C 11.650719 9.526576 -6.806857 0
M  V30 2 N 7.689248 4.071158 -12.134088 0
M  V30 3 C 7.266303 7.197207 -14.648001 0 CFG=1
M  V30 4 C 7.506035 4.390240 -9.703439 0
M  V30 5 F 10.059782 6.411747 -5.563570 0
M  V30 6 C 8.972368 4.715281 -12.336909 0
M  V30 7 C 11.579237 9.118455 -8.293031 0
M  V30 8 C 8.873174 5.512392 -8.223259 0
M  V30 9 C 11.028688 6.760327 -7.687529 0 CFG=1
M  V30 10 C 6.364696 6.329107 -17.016772 0
M  V30 11 C 7.062549 3.631610 -13.357023 0 CFG=2
M  V30 12 C 6.869227 0.587291 -13.047972 0
M  V30 13 C 6.345052 7.294298 -15.859745 0 CFG=1
M  V30 14 O 8.719404 4.970012 -9.526545 0
M  V30 15 C 10.977451 7.136414 -6.192496 0 CFG=1
M  V30 16 C 5.782751 7.006193 -14.469977 0 CFG=1
M  V30 17 N 7.875286 5.887872 -14.281634 0 CFG=2 CHG=1
M  V30 18 C 9.649677 6.809417 -8.367622 0
M  V30 19 C 5.941221 1.567453 -13.779839 0
M  V30 20 C 6.785609 4.858050 -14.244585 0 CFG=2
M  V30 21 O 8.175207 0.650958 -13.581514 0
M  V30 22 C 12.024306 7.669078 -8.431633 0
M  V30 23 N 7.469955 5.596608 -17.361147 0
M  V30 24 C 8.668712 6.042182 -13.016709 0
M  V30 25 N 5.290947 6.159575 -17.787119 0
M  V30 26 O 5.714017 5.240582 -18.761985 0
M  V30 27 C 6.990449 4.975288 -18.425927 0
M  V30 28 O 5.903744 2.870914 -13.197403 0
M  V30 29 N 7.633441 4.072580 -19.255056 0
M  V30 30 C 7.035892 3.990238 -10.900600 0
M  V30 31 C 10.725668 8.639538 -5.952200 0
M  V30 32 C 7.170655 3.352377 -20.426682 0
M  V30 33 C 5.516035 5.633882 -13.899622 0
M  V30 34 H 12.678002 9.436319 -6.452111 0
M  V30 35 H 11.384228 10.573891 -6.670791 0
M  V30 36 H 7.766264 8.083977 -14.262311 0
M  V30 37 H 6.975378 4.282656 -8.786577 0
M  V30 38 H 9.605702 4.840795 -11.468584 0
M  V30 39 H 9.572595 4.095718 -13.005084 0
M  V30 40 H 12.174994 9.753760 -8.940171 0
M  V30 41 H 10.563866 9.195275 -8.675717 0
M  V30 42 H 7.930940 5.748812 -7.726579 0
M  V30 43 H 9.377769 4.789011 -7.585931 0
M  V30 44 H 11.375441 5.732861 -7.757924 0
M  V30 45 H 7.817644 3.026694 -13.856302 0
M  V30 46 H 6.508652 -0.434695 -13.181159 0
M  V30 47 H 6.879202 0.781756 -11.981160 0
M  V30 48 H 6.163413 8.295742 -16.247449 0
M  V30 49 H 11.905856 6.834669 -5.719522 0
M  V30 50 H 5.203993 7.809660 -14.020489 0
M  V30 51 H 9.759563 7.028915 -9.429877 0
M  V30 52 H 9.042710 7.624978 -7.974564 0
M  V30 53 H 6.175156 1.608367 -14.845038 0
M  V30 54 H 4.924224 1.182772 -13.701756 0
M  V30 55 H 6.652471 4.441325 -15.239025 0
M  V30 56 H 8.740300 0.107582 -13.052122 0
M  V30 57 H 13.030300 7.588840 -8.018783 0
M  V30 58 H 12.088089 7.384193 -9.482984 0
M  V30 59 H 8.103547 6.655737 -12.310106 0
M  V30 60 H 9.605308 6.566928 -13.185034 0
M  V30 61 H 8.592659 3.880370 -19.007248 0
M  V30 62 H 6.056702 3.542355 -10.971910 0
M  V30 63 H 10.861240 8.871898 -4.896472 0
M  V30 64 H 9.686929 8.872190 -6.183434 0
M  V30 65 H 7.942527 2.672888 -20.789213 0
M  V30 66 H 6.280162 2.770364 -20.186994 0
M  V30 67 H 6.921358 4.049784 -21.227870 0
M  V30 68 H 5.382879 5.718887 -12.819579 0
M  V30 69 H 4.615853 5.194866 -14.321138 0
M  V30 70 H 8.519389 5.608347 -15.009896 0
M  V30 END ATOM
M  V30 BEGIN BOND
M  V30 1 1 6 2
M  V30 2 1 7 1
M  V30 3 1 11 2
M  V30 4 1 13 3
M  V30 5 1 13 10
M  V30 6 1 14 4
M  V30 7 1 14 8
M  V30 8 1 15 5
M  V30 9 1 15 9
M  V30 10 1 16 3
M  V30 11 1 16 13
M  V30 12 1 17 3
M  V30 13 1 18 8
M  V30 14 1 18 9
M  V30 15 1 19 12
M  V30 16 1 20 11
M  V30 17 1 20 17
M  V30 18 1 21 12
M  V30 19 1 22 7
M  V30 20 1 22 9
M  V30 21 1 23 10
M  V30 22 1 24 6
M  V30 23 1 24 17
M  V30 24 2 25 10
M  V30 25 1 26 25
M  V30 26 2 27 23
M  V30 27 1 27 26
M  V30 28 1 28 11
M  V30 29 1 28 19
M  V30 30 1 29 27
M  V30 31 1 30 2
M  V30 32 2 30 4
M  V30 33 1 31 1
M  V30 34 1 31 15
M  V30 35 1 32 29
M  V30 36 1 33 16
M  V30 37 1 33 20
M  V30 38 1 34 1
M  V30 39 1 35 1
M  V30 40 1 3 36 CFG=1
M  V30 41 1 37 4
M  V30 42 1 38 6
M  V30 43 1 39 6
M  V30 44 1 40 7
M  V30 45 1 41 7
M  V30 46 1 42 8
M  V30 47 1 43 8
M  V30 48 1 9 44 CFG=1
M  V30 49 1 11 45 CFG=3
M  V30 50 1 46 12
M  V30 51 1 47 12
M  V30 52 1 13 48 CFG=3
M  V30 53 1 15 49 CFG=1
M  V30 54 1 16 50 CFG=1
M  V30 55 1 51 18
M  V30 56 1 52 18
M  V30 57 1 53 19
M  V30 58 1 54 19
M  V30 59 1 20 55 CFG=3
M  V30 60 1 56 21
M  V30 61 1 57 22
M  V30 62 1 58 22
M  V30 63 1 59 24
M  V30 64 1 60 24
M  V30 65 1 61 29
M  V30 66 1 62 30
M  V30 67 1 63 31
M  V30 68 1 64 31
M  V30 69 1 65 32
M  V30 70 1 66 32
M  V30 71 1 67 32
M  V30 72 1 68 33
M  V30 73 1 69 33
M  V30 74 1 17 70 CFG=3
M  V30 END BOND
M  V30 END CTAB
M  END
>  <i_epik_Tot_Q>  (1) 
1

>  <i_epik_Tot_abs_Q>  (1) 
1

>  <i_i_glide_confnum>  (1) 
285

>  <i_i_glide_lignum>  (1) 
11

>  <i_i_glide_posenum>  (1) 
103

>  <i_i_glide_rotatable_bonds>  (1) 
11

>  <i_lp_mmshare_version>  (1) 
72125

>  <i_m_source_file_index>  (1) 
1

>  <i_f3d_flags>  (1) 
0

>  <num_sample>  (1) 
50

>  <b_lp_Chiralities_Consistent>  (1) 
1

>  <r_epik_Charging_Adjusted_Penalty>  (1) 
0.41344222577729461

>  <r_epik_Ionization_Penalty>  (1) 
0.0027644559619576371

>  <r_epik_Ionization_Penalty_Charging>  (1) 
0.0027623868246906495

>  <r_epik_Ionization_Penalty_Neutral>  (1) 
2.0691372669875143e-06

>  <r_epik_State_Penalty>  (1) 
0.41067983895260396

>  <r_glide_ring_energy>  (1) 
1.6783687507504006

>  <r_i_docking_score>  (1) 
-5.2643213561991349

>  <r_i_glide_ecoul>  (1) 
-1.5903258172549375

>  <r_i_glide_eff_state_penalty>  (1) 
0.41067983895260396

>  <r_i_glide_einternal>  (1) 
12.925395034883254

>  <r_i_glide_emodel>  (1) 
-35.69720958194268

>  <r_i_glide_emodel_strain>  (1) 
0.77142004861120483

>  <r_i_glide_energy>  (1) 
-33.435556386166404

>  <r_i_glide_erotb>  (1) 
0.74142510397790429

>  <r_i_glide_esite>  (1) 
0

>  <r_i_glide_evdw>  (1) 
-31.845230568911468

>  <r_i_glide_gscore>  (1) 
-5.6750011951517392

>  <r_i_glide_gscore_strain>  (1) 
0

>  <r_i_glide_hbond>  (1) 
0

>  <r_i_glide_ligand_efficiency>  (1) 
-0.15952488958179198

>  <r_i_glide_ligand_efficiency_ln>  (1) 
-1.170757812421479

>  <r_i_glide_ligand_efficiency_sa>  (1) 
-0.51168155982239139

>  <r_i_glide_lipo>  (1) 
-2.6731823583633969

>  <r_i_glide_metal>  (1) 
-0

>  <r_i_glide_rewards>  (1) 
-1.9124335397324326

>  <r_lp_Energy>  (1) 
38.871550999999997

>  <r_lp_tautomer_probability>  (1) 
0.5

>  <s_epik_Chemistry_Notes>  (1) 
This compound has an imine and may undergo hydrolysis. This compound contains an acetal/aminal-like group ( X-CH(R)-Y where X, Y are N, S, or O) that may be acid/base labile, releasing an aldehyde.

>  <s_epik_cmdline>  (1) 
J2VwaWtfcHl0aG9uJywgJy1waHQnLCAnMS4wJywgJy1waCcsICc3LjQnLCAnLXRuJywgJzgnLCAnLW1hJywgJzUwMCcsICctaW1hZScsICc8aW5maWxlLm1hZT4nLCAnLW9tYWUnLCAnPG91dGZpbGUubWFlPic=

>  <s_epik_input>  (1) 
W0NIMl0xW0NIMl1bQ0gyXVtDSDJdW0NASF0oRilbQ0BIXTFbQ0gyXVtDSDJdTy9bQ0hdPVtDSF1cTihbQ0BIXTJPW0NIMl1bQ0gyXVtPSF0pW0NIMl1bQ0gyXU4zW0NAQEhdMltDSDJdW0NAQEhdKFtDQEBIXTM0KVtDQEBIXTRjNW5jKG9uNSlbTkhdW0NIM10=

>  <s_glide_docking_method>  (1) 
confgen

>  <s_i_glide_gridfile>  (1) 
gpcr_drd2_6luq_protein_autoprepared_prepared

>  <s_lp_Force_Field>  (1) 
S-OPLS

>  <s_lp_Variant>  (1) 
DiffSBDD_0-11

>  <s_m_source_file>  (1) 
generated_generic_title2_ligand_DiffSBDD_2026-06-23_prepared.sdf

>  <GenAI_Model>  (1) 
DiffSBDD

>  <Protein>  (1) 
generic_title2

$$$$
DiffSBDD_39
     RDKit          3D

  0  0  0  0  0  0  0  0  0  0999 V3000
M  V30 BEGIN CTAB
M  V30 COUNTS 68 71 0 0 1
M  V30 BEGIN ATOM
M  V30 1 C 7.855102 4.640048 -12.314702 0
M  V30 2 F 5.634278 1.274759 -18.505663 0
M  V30 3 F 7.380503 1.960018 -19.586399 0
M  V30 4 C 12.020850 9.493390 -6.009506 0
M  V30 5 C 9.046072 5.740954 -10.336891 0
M  V30 6 C 9.889593 8.065035 -10.586260 0 CFG=1
M  V30 7 O 13.371286 9.590250 -6.384982 0
M  V30 8 C 7.163197 1.840037 -15.862361 0 CFG=2
M  V30 9 C 7.492830 7.262484 -13.564431 0
M  V30 10 C 10.151657 6.900434 -8.383620 0 CFG=2
M  V30 11 O 7.752853 -0.103899 -14.586039 0
M  V30 12 C 7.298308 5.966607 -14.348369 0
M  V30 13 N 6.902641 4.864239 -13.433232 0 CFG=1 CHG=1
M  V30 14 C 7.638936 0.106609 -18.162043 0
M  V30 15 C 8.070417 5.940545 -11.517634 0 CFG=1
M  V30 16 C 6.503773 3.643118 -14.164338 0
M  V30 17 O 7.376322 -0.334534 -16.832068 0
M  V30 18 C 8.891635 8.319136 -11.720626 0
M  V30 19 N 9.375424 7.031653 -9.656827 0 CFG=2 CHG=1
M  V30 20 C 11.416542 8.165888 -6.507001 0 CFG=1
M  V30 21 C 10.356826 7.700316 -5.538889 0
M  V30 22 C 7.664299 2.809683 -14.751059 0
M  V30 23 C 8.554927 7.037498 -12.481658 0 CFG=2
M  V30 24 C 7.910023 0.495528 -15.845292 0 CFG=1
M  V30 25 C 7.262728 2.415238 -17.280728 0
M  V30 26 C 9.894841 6.314178 -5.918423 0
M  V30 27 C 6.952389 1.457434 -18.427549 0
M  V30 28 O 7.566366 3.592130 -17.483861 0
M  V30 29 C 9.243888 6.299641 -7.294413 0
M  V30 30 O 11.019091 7.590135 -11.058614 0 CHG=-1
M  V30 31 C 10.771914 8.251479 -7.889697 0
M  V30 32 H 8.809724 4.277290 -12.700230 0
M  V30 33 H 7.462500 3.865274 -11.656920 0
M  V30 34 H 11.991370 9.561651 -4.921657 0
M  V30 35 H 11.461912 10.349487 -6.386737 0
M  V30 36 H 9.954884 5.261170 -10.692093 0
M  V30 37 H 8.588647 5.045858 -9.636702 0
M  V30 38 H 9.837562 9.001766 -10.037425 0
M  V30 39 H 13.904616 9.114993 -5.767971 0
M  V30 40 H 6.121792 1.585975 -15.678971 0
M  V30 41 H 7.775416 8.064641 -14.243640 0
M  V30 42 H 6.551817 7.573708 -13.108994 0
M  V30 43 H 10.976534 6.211346 -8.566092 0
M  V30 44 H 7.856916 -1.042089 -14.703003 0
M  V30 45 H 8.215794 5.711017 -14.879713 0
M  V30 46 H 6.529442 6.123707 -15.106119 0
M  V30 47 H 7.269408 -0.644651 -18.860296 0
M  V30 48 H 8.715790 0.176691 -18.324598 0
M  V30 49 H 7.109498 6.251002 -11.105194 0
M  V30 50 H 5.899122 3.015268 -13.508063 0
M  V30 51 H 5.841859 3.990307 -14.949551 0
M  V30 52 H 9.298906 9.075222 -12.385609 0
M  V30 53 H 7.978471 8.752431 -11.309851 0
M  V30 54 H 12.175304 7.391449 -6.561648 0
M  V30 55 H 10.761720 7.672536 -4.528926 0
M  V30 56 H 9.513273 8.389041 -5.585097 0
M  V30 57 H 8.446394 3.457563 -15.145331 0
M  V30 58 H 8.147995 2.269637 -13.936594 0
M  V30 59 H 9.471051 6.684172 -12.956375 0
M  V30 60 H 8.975434 0.628003 -16.014421 0
M  V30 61 H 10.737682 5.623723 -5.882861 0
M  V30 62 H 9.169689 5.990245 -5.184924 0
M  V30 63 H 8.960592 5.275650 -7.531355 0
M  V30 64 H 8.320135 6.867259 -7.235957 0
M  V30 65 H 9.991570 9.011138 -7.845264 0
M  V30 66 H 11.537107 8.603655 -8.583297 0
M  V30 67 H 6.055889 5.194634 -12.991561 0
M  V30 68 H 8.453873 7.403300 -9.395730 0
M  V30 END ATOM
M  V30 BEGIN BOND
M  V30 1 1 7 4
M  V30 2 1 12 9
M  V30 3 1 13 1
M  V30 4 1 13 12
M  V30 5 1 15 1
M  V30 6 1 15 5
M  V30 7 1 16 13
M  V30 8 1 17 14
M  V30 9 1 18 6
M  V30 10 1 19 5
M  V30 11 1 19 6
M  V30 12 1 19 10
M  V30 13 1 20 4
M  V30 14 1 21 20
M  V30 15 1 22 8
M  V30 16 1 22 16
M  V30 17 1 23 9
M  V30 18 1 23 15
M  V30 19 1 23 18
M  V30 20 1 24 8
M  V30 21 1 24 11
M  V30 22 1 24 17
M  V30 23 1 25 8
M  V30 24 1 26 21
M  V30 25 1 27 2
M  V30 26 1 27 3
M  V30 27 1 27 14
M  V30 28 1 27 25
M  V30 29 2 28 25
M  V30 30 1 29 10
M  V30 31 1 29 26
M  V30 32 1 30 6
M  V30 33 1 31 10
M  V30 34 1 31 20
M  V30 35 1 32 1
M  V30 36 1 33 1
M  V30 37 1 34 4
M  V30 38 1 35 4
M  V30 39 1 36 5
M  V30 40 1 37 5
M  V30 41 1 6 38 CFG=1
M  V30 42 1 39 7
M  V30 43 1 8 40 CFG=1
M  V30 44 1 41 9
M  V30 45 1 42 9
M  V30 46 1 10 43 CFG=3
M  V30 47 1 44 11
M  V30 48 1 45 12
M  V30 49 1 46 12
M  V30 50 1 47 14
M  V30 51 1 48 14
M  V30 52 1 15 49 CFG=1
M  V30 53 1 50 16
M  V30 54 1 51 16
M  V30 55 1 52 18
M  V30 56 1 53 18
M  V30 57 1 20 54 CFG=3
M  V30 58 1 55 21
M  V30 59 1 56 21
M  V30 60 1 57 22
M  V30 61 1 58 22
M  V30 62 1 23 59 CFG=3
M  V30 63 1 24 60 CFG=3
M  V30 64 1 61 26
M  V30 65 1 62 26
M  V30 66 1 63 29
M  V30 67 1 64 29
M  V30 68 1 65 31
M  V30 69 1 66 31
M  V30 70 1 13 67 CFG=1
M  V30 71 1 19 68 CFG=1
M  V30 END BOND
M  V30 END CTAB
M  END
>  <i_epik_Tot_Q>  (1) 
1

>  <i_epik_Tot_abs_Q>  (1) 
3

>  <i_i_glide_confnum>  (1) 
247

>  <i_i_glide_lignum>  (1) 
107

>  <i_i_glide_posenum>  (1) 
371

>  <i_i_glide_rotatable_bonds>  (1) 
7

>  <i_lp_mmshare_version>  (1) 
72125

>  <i_m_source_file_index>  (1) 
40

>  <i_f3d_flags>  (1) 
0

>  <num_sample>  (1) 
50

>  <b_lp_Chiralities_Consistent>  (1) 
1

>  <r_epik_Charging_Adjusted_Penalty>  (1) 
0.43569023002306473

>  <r_epik_Ionization_Penalty>  (1) 
0.17475065349743213

>  <r_epik_Ionization_Penalty_Charging>  (1) 
0.17468327186895813

>  <r_epik_Ionization_Penalty_Neutral>  (1) 
6.7381628474014066e-05

>  <r_epik_State_Penalty>  (1) 
0.26100695815410663

>  <r_glide_ring_energy>  (1) 
0

>  <r_i_docking_score>  (1) 
-5.25615524191746

>  <r_i_glide_ecoul>  (1) 
-9.0803706179654178

>  <r_i_glide_eff_state_penalty>  (1) 
0.26100695815410663

>  <r_i_glide_einternal>  (1) 
3.9698923836910875

>  <r_i_glide_emodel>  (1) 
-40.027962004536597

>  <r_i_glide_emodel_strain>  (1) 
1.4248978823436289

>  <r_i_glide_energy>  (1) 
-28.560041377789926

>  <r_i_glide_erotb>  (1) 
0.49989103335302049

>  <r_i_glide_esite>  (1) 
-0.17481309200805834

>  <r_i_glide_evdw>  (1) 
-19.479670759824508

>  <r_i_glide_gscore>  (1) 
-5.5171622000715663

>  <r_i_glide_gscore_strain>  (1) 
0

>  <r_i_glide_hbond>  (1) 
-0.52000000000000002

>  <r_i_glide_ligand_efficiency>  (1) 
-0.16955339490056323

>  <r_i_glide_ligand_efficiency_ln>  (1) 
-1.185424088865358

>  <r_i_glide_ligand_efficiency_sa>  (1) 
-0.53263175428790688

>  <r_i_glide_lipo>  (1) 
-1.4108680605171786

>  <r_i_glide_metal>  (1) 
-0

>  <r_i_glide_rewards>  (1) 
-1.5753329502133122

>  <r_lp_Energy>  (1) 
50.450402999999994

>  <r_lp_tautomer_probability>  (1) 
0.99995000000000001

>  <s_epik_Chemistry_Notes>  (1) 
This compound contains an acetal/aminal-like group ( X-CH(R)-Y where X, Y are N, S, or O) that may be acid/base labile, releasing an aldehyde.

>  <s_epik_cmdline>  (1) 
J2VwaWtfcHl0aG9uJywgJy1waHQnLCAnMS4wJywgJy1waCcsICc3LjQnLCAnLXRuJywgJzgnLCAnLW1hJywgJzUwMCcsICctaW1hZScsICc8aW5maWxlLm1hZT4nLCAnLW9tYWUnLCAnPG91dGZpbGUubWFlPic=

>  <s_epik_input>  (1) 
RkMxKEYpW0NIMl1PW0NASF0oW09IXSlbQ0BIXShDMT1PKVtDSDJdW0NIMl1OKFtDSDJdMilbQ0gyXVtDSDJdW0NASF0oW0NAQEhdMjMpW0NIMl1bQ0BIXShbT0hdKU4oW0NIMl0zKVtDQEBIXTRbQ0gyXVtDSDJdW0NIMl1bQ0BASF0oW0NIMl00KVtDSDJdW09IXQ==

>  <s_glide_docking_method>  (1) 
confgen

>  <s_i_glide_gridfile>  (1) 
gpcr_drd2_6luq_protein_autoprepared_prepared

>  <s_lp_Force_Field>  (1) 
S-OPLS

>  <s_lp_Variant>  (1) 
DiffSBDD_39-3

>  <s_m_source_file>  (1) 
generated_generic_title2_ligand_DiffSBDD_2026-06-23_prepared.sdf

>  <GenAI_Model>  (1) 
DiffSBDD

>  <Protein>  (1) 
generic_title2

$$$$
DiffSBDD_8
     RDKit          3D

  0  0  0  0  0  0  0  0  0  0999 V3000
M  V30 BEGIN CTAB
M  V30 COUNTS 69 72 0 0 1
M  V30 BEGIN ATOM
M  V30 1 N 6.418876 6.152549 -16.483172 0
M  V30 2 C 8.567523 5.424671 -19.216206 0
M  V30 3 C 6.037125 4.849754 -12.536531 0 CFG=1
M  V30 4 N 6.787305 4.831104 -20.692376 0
M  V30 5 O 7.775430 7.057707 -13.948831 0
M  V30 6 C 9.222670 6.005498 -9.714860 0
M  V30 7 F 5.375595 3.823406 -19.195474 0
M  V30 8 C 8.976065 5.599334 -8.252967 0
M  V30 9 N 8.107458 5.591966 -10.584800 0 CHG=1
M  V30 10 C 8.328226 5.841472 -12.031275 0 CFG=1
M  V30 11 C 6.659863 4.046596 -19.474854 0 CFG=2
M  V30 12 C 11.570429 9.877617 -5.488195 0
M  V30 13 C 7.497114 4.943553 -12.925025 0 CFG=2
M  V30 14 O 6.812535 7.765438 -11.985027 0
M  V30 15 O 6.629011 3.901486 -21.777920 0
M  V30 16 C 10.095258 6.033230 -7.288193 0
M  V30 17 C 8.526406 5.237065 -15.329751 0
M  V30 18 C 5.604273 7.221373 -15.893888 0
M  V30 19 C 7.022680 5.219751 -15.563542 0 CFG=1
M  V30 20 C 7.385624 4.876061 -18.402504 0 CFG=2
M  V30 21 C 6.531427 6.047423 -17.833498 0
M  V30 22 C 5.301645 3.590428 -12.837516 0
M  V30 23 C 7.979385 7.245628 -12.576026 0 CFG=2
M  V30 24 C 7.592374 5.672299 -14.230271 0 CFG=2
M  V30 25 O 12.322290 9.423526 -4.383976 0
M  V30 26 O 5.989167 6.842030 -18.603584 0
M  V30 27 C 12.055876 9.180962 -6.767802 0
M  V30 28 C 5.475080 4.298818 -22.497337 0
M  V30 29 C 8.195772 5.208086 -20.693913 0
M  V30 30 O 11.601684 7.835946 -6.836464 0
M  V30 31 C 10.349418 7.541044 -7.212979 0
M  V30 32 N 5.775519 3.890049 -11.490526 0
M  V30 33 O 9.475826 8.367564 -7.475393 0
M  V30 34 H 8.756303 6.481849 -19.018654 0
M  V30 35 H 9.487685 4.891777 -18.974577 0
M  V30 36 H 5.457388 5.770004 -12.531778 0
M  V30 37 H 9.341524 7.085396 -9.809548 0
M  V30 38 H 10.147079 5.553123 -10.063810 0
M  V30 39 H 8.879815 4.514389 -8.196047 0
M  V30 40 H 8.021913 5.990202 -7.906694 0
M  V30 41 H 7.915839 4.608071 -10.453643 0
M  V30 42 H 9.376801 5.652259 -12.272171 0
M  V30 43 H 7.139674 3.073328 -19.592499 0
M  V30 44 H 10.507065 9.724261 -5.312728 0
M  V30 45 H 11.729424 10.951270 -5.582325 0
M  V30 46 H 7.931175 3.945052 -13.006841 0
M  V30 47 H 6.975429 7.956462 -11.052064 0
M  V30 48 H 11.026146 5.540790 -7.569058 0
M  V30 49 H 9.854929 5.694859 -6.281750 0
M  V30 50 H 9.106757 5.990204 -15.854810 0
M  V30 51 H 9.018383 4.273142 -15.225189 0
M  V30 52 H 6.130358 8.174750 -15.959107 0
M  V30 53 H 4.650130 7.327335 -16.412558 0
M  V30 54 H 5.375113 7.039376 -14.844401 0
M  V30 55 H 6.575386 4.228200 -15.559931 0
M  V30 56 H 7.745250 4.184711 -17.645657 0
M  V30 57 H 4.238619 3.679579 -13.052931 0
M  V30 58 H 5.819035 2.803117 -13.382567 0
M  V30 59 H 8.776685 7.972296 -12.411555 0
M  V30 60 H 12.175009 8.494873 -4.282704 0
M  V30 61 H 11.712686 9.720083 -7.650227 0
M  V30 62 H 13.145104 9.191598 -6.809748 0
M  V30 63 H 5.318204 3.622520 -23.337755 0
M  V30 64 H 4.583865 4.262735 -21.868781 0
M  V30 65 H 5.583380 5.309299 -22.895025 0
M  V30 66 H 8.358657 6.098595 -21.301782 0
M  V30 67 H 8.803702 4.401255 -21.107881 0
M  V30 68 H 5.064994 4.120557 -10.806412 0
M  V30 69 H 7.293066 6.120438 -10.285789 0
M  V30 END ATOM
M  V30 BEGIN BOND
M  V30 1 1 8 6
M  V30 2 1 9 6
M  V30 3 1 10 9
M  V30 4 1 11 4
M  V30 5 1 11 7
M  V30 6 1 13 3
M  V30 7 1 13 10
M  V30 8 1 15 4
M  V30 9 1 16 8
M  V30 10 1 18 1
M  V30 11 1 19 1
M  V30 12 1 19 17
M  V30 13 1 20 2
M  V30 14 1 20 11
M  V30 15 1 21 1
M  V30 16 1 21 20
M  V30 17 1 22 3
M  V30 18 1 23 5
M  V30 19 1 23 10
M  V30 20 1 23 14
M  V30 21 1 24 5 CFG=1
M  V30 22 1 24 13
M  V30 23 1 24 17
M  V30 24 1 24 19
M  V30 25 1 25 12
M  V30 26 2 26 21
M  V30 27 1 27 12
M  V30 28 1 28 15
M  V30 29 1 29 2
M  V30 30 1 29 4
M  V30 31 1 30 27
M  V30 32 1 31 16
M  V30 33 1 31 30
M  V30 34 1 32 3
M  V30 35 1 32 22
M  V30 36 2 33 31
M  V30 37 1 34 2
M  V30 38 1 35 2
M  V30 39 1 3 36 CFG=1
M  V30 40 1 37 6
M  V30 41 1 38 6
M  V30 42 1 39 8
M  V30 43 1 40 8
M  V30 44 1 41 9
M  V30 45 1 10 42 CFG=3
M  V30 46 1 11 43 CFG=3
M  V30 47 1 44 12
M  V30 48 1 45 12
M  V30 49 1 13 46 CFG=3
M  V30 50 1 47 14
M  V30 51 1 48 16
M  V30 52 1 49 16
M  V30 53 1 50 17
M  V30 54 1 51 17
M  V30 55 1 52 18
M  V30 56 1 53 18
M  V30 57 1 54 18
M  V30 58 1 19 55 CFG=1
M  V30 59 1 20 56 CFG=1
M  V30 60 1 57 22
M  V30 61 1 58 22
M  V30 62 1 23 59 CFG=3
M  V30 63 1 60 25
M  V30 64 1 61 27
M  V30 65 1 62 27
M  V30 66 1 63 28
M  V30 67 1 64 28
M  V30 68 1 65 28
M  V30 69 1 66 29
M  V30 70 1 67 29
M  V30 71 1 68 32
M  V30 72 1 69 9
M  V30 END BOND
M  V30 END CTAB
M  END
>  <i_epik_Tot_Q>  (1) 
1

>  <i_epik_Tot_abs_Q>  (1) 
1

>  <i_i_glide_confnum>  (1) 
2938

>  <i_i_glide_lignum>  (1) 
32

>  <i_i_glide_posenum>  (1) 
239

>  <i_i_glide_rotatable_bonds>  (1) 
15

>  <i_lp_mmshare_version>  (1) 
72125

>  <i_m_source_file_index>  (1) 
9

>  <i_f3d_flags>  (1) 
0

>  <num_sample>  (1) 
50

>  <b_lp_Chiralities_Consistent>  (1) 
1

>  <r_epik_Charging_Adjusted_Penalty>  (1) 
0.31458683345696248

>  <r_epik_Ionization_Penalty>  (1) 
0.14300301403106822

>  <r_epik_Ionization_Penalty_Charging>  (1) 
0.065080964065447874

>  <r_epik_Ionization_Penalty_Neutral>  (1) 
0.077922049965620341

>  <r_epik_State_Penalty>  (1) 
0.24950586939151459

>  <r_glide_ring_energy>  (1) 
0

>  <r_i_docking_score>  (1) 
-5.2384459298275257

>  <r_i_glide_ecoul>  (1) 
-10.346960495081444

>  <r_i_glide_eff_state_penalty>  (1) 
0.24950586939151459

>  <r_i_glide_einternal>  (1) 
5.7432770806427023

>  <r_i_glide_emodel>  (1) 
-60.847786831978844

>  <r_i_glide_emodel_strain>  (1) 
0.3965352074547468

>  <r_i_glide_energy>  (1) 
-45.210026067950949

>  <r_i_glide_erotb>  (1) 
1.0741905119875848

>  <r_i_glide_esite>  (1) 
-0.1460726566931228

>  <r_i_glide_evdw>  (1) 
-34.863065572869502

>  <r_i_glide_gscore>  (1) 
-5.4879517992190401

>  <r_i_glide_gscore_strain>  (1) 
0

>  <r_i_glide_hbond>  (1) 
-0.31364845468966873

>  <r_i_glide_ligand_efficiency>  (1) 
-0.15874078575234926

>  <r_i_glide_ligand_efficiency_ln>  (1) 
-1.1650032515722206

>  <r_i_glide_ligand_efficiency_sa>  (1) 
-0.50916651987117267

>  <r_i_glide_lipo>  (1) 
-1.6912669709532564

>  <r_i_glide_metal>  (1) 
-0

>  <r_i_glide_rewards>  (1) 
-1.1159568759648857

>  <r_lp_Energy>  (1) 
36.819628999999999

>  <s_epik_Chemistry_Notes>  (1) 
This compound has an ester and may undergo hydrolysis at high or low pH. This compound contains an acetal/aminal-like group ( X-CH(R)-Y where X, Y are N, S, or O) that may be acid/base labile, releasing an aldehyde. This compound has a N-S or N-O group and may undergo hydrolysis at high or low pH.

>  <s_epik_cmdline>  (1) 
J2VwaWtfcHl0aG9uJywgJy1waHQnLCAnMS4wJywgJy1waCcsICc3LjQnLCAnLXRuJywgJzgnLCAnLW1hJywgJzUwMCcsICctaW1hZScsICc8aW5maWxlLm1hZT4nLCAnLW9tYWUnLCAnPG91dGZpbGUubWFlPic=

>  <s_epik_input>  (1) 
W0NIM11PTjFbQ0BIXShGKVtDQEBIXShbQ0gyXVtDSDJdMSlDKD1PKU4oW0NIM10pW0NASF0yW0NIMl1DMjNPW0NAQEhdKFtPSF0pW0NASF0oW0NASF0zW0NASF00W0NIMl1bTkhdNClbTkhdW0NIMl1bQ0gyXVtDSDJdQyg9TylPW0NIMl1bQ0gyXVtPSF0=

>  <s_glide_docking_method>  (1) 
confgen

>  <s_i_glide_gridfile>  (1) 
gpcr_drd2_6luq_protein_autoprepared_prepared

>  <s_lp_Force_Field>  (1) 
S-OPLS

>  <s_lp_Variant>  (1) 
DiffSBDD_8-1

>  <s_m_source_file>  (1) 
generated_generic_title2_ligand_DiffSBDD_2026-06-23_prepared.sdf

>  <GenAI_Model>  (1) 
DiffSBDD

>  <Protein>  (1) 
generic_title2

$$$$
DiffSBDD_12
     RDKit          3D

  0  0  0  0  0  0  0  0  0  0999 V3000
M  V30 BEGIN CTAB
M  V30 COUNTS 55 56 0 0 1
M  V30 BEGIN ATOM
M  V30 1 C 7.994393 -0.337696 -16.231289 0 CFG=2
M  V30 2 C 10.171274 7.596388 -6.438610 0 CFG=2
M  V30 3 C 11.173128 8.744326 -6.554381 0
M  V30 4 C 10.294542 7.514676 -8.981390 0
M  V30 5 C 11.401853 8.548262 -9.070793 0
M  V30 6 C 8.092033 4.243458 -11.983926 0
M  V30 7 C 5.839039 0.356896 -17.486442 0
M  V30 8 C 6.757807 -0.783304 -17.036188 0
M  V30 9 C 10.775085 6.486637 -5.574593 0
M  V30 10 C 7.154455 2.551704 -13.649576 0
M  V30 11 C 9.023616 5.901122 -10.298046 0
M  V30 12 C 7.573357 4.011425 -13.420540 0 CFG=1
M  V30 13 C 7.425847 6.680095 -12.131618 0
M  V30 14 C 7.697217 0.374107 -14.892649 0
M  V30 15 C 6.417564 4.981647 -13.731949 0
M  V30 16 C 7.550743 1.909626 -14.984922 0
M  V30 17 C 6.871143 6.439293 -13.548103 0
M  V30 18 O 9.887740 7.037292 -10.215375 0
M  V30 19 F 8.807993 0.394120 -16.995122 0
M  V30 20 C 9.748391 7.085246 -7.817543 0
M  V30 21 C 12.144589 8.695907 -7.728305 0
M  V30 22 O 6.521691 1.926477 -12.799897 0
M  V30 23 O 11.202751 9.658694 -5.731551 0
M  V30 24 C 8.559007 5.696697 -11.757509 0 CFG=2
M  V30 25 H 8.572470 -1.232760 -16.005225 0
M  V30 26 H 9.276113 7.986621 -5.953396 0
M  V30 27 H 12.101435 8.261221 -9.855385 0
M  V30 28 H 10.966988 9.501117 -9.368869 0
M  V30 29 H 8.920402 3.562910 -11.780146 0
M  V30 30 H 7.311054 4.003767 -11.260041 0
M  V30 31 H 5.036188 -0.018041 -18.121799 0
M  V30 32 H 5.372563 0.838106 -16.628541 0
M  V30 33 H 6.387396 1.111218 -18.050146 0
M  V30 34 H 7.091747 -1.332482 -17.917737 0
M  V30 35 H 6.175532 -1.495026 -16.448220 0
M  V30 36 H 11.676449 6.067690 -6.024247 0
M  V30 37 H 11.026827 6.846473 -4.576967 0
M  V30 38 H 10.060160 5.684932 -5.452580 0
M  V30 39 H 9.577502 5.028323 -9.949416 0
M  V30 40 H 8.137106 5.979923 -9.674425 0
M  V30 41 H 8.389867 4.222902 -14.111989 0
M  V30 42 H 6.604608 6.575440 -11.421637 0
M  V30 43 H 7.776302 7.708566 -12.037835 0
M  V30 44 H 8.508950 0.156403 -14.197011 0
M  V30 45 H 6.808086 -0.076000 -14.446918 0
M  V30 46 H 5.569754 4.778471 -13.074341 0
M  V30 47 H 6.058236 4.832601 -14.750764 0
M  V30 48 H 6.808603 2.189714 -15.729654 0
M  V30 49 H 8.489617 2.347197 -15.321151 0
M  V30 50 H 6.032613 7.111871 -13.734112 0
M  V30 51 H 7.633053 6.681775 -14.289400 0
M  V30 52 H 8.963612 6.347601 -7.825393 0
M  V30 53 H 12.810204 7.844358 -7.585025 0
M  V30 54 H 12.751917 9.590227 -7.696708 0
M  V30 55 H 9.410590 5.877105 -12.416899 0
M  V30 END ATOM
M  V30 BEGIN BOND
M  V30 1 1 3 2
M  V30 2 1 5 4
M  V30 3 1 8 1
M  V30 4 1 8 7
M  V30 5 1 9 2
M  V30 6 1 12 6
M  V30 7 1 12 10
M  V30 8 1 14 1
M  V30 9 1 15 12
M  V30 10 1 16 10
M  V30 11 1 16 14
M  V30 12 1 17 13
M  V30 13 1 17 15
M  V30 14 1 18 4
M  V30 15 1 18 11
M  V30 16 1 19 1
M  V30 17 1 20 2
M  V30 18 2 20 4
M  V30 19 1 21 3
M  V30 20 1 21 5
M  V30 21 2 22 10
M  V30 22 2 23 3
M  V30 23 1 24 6
M  V30 24 1 24 11
M  V30 25 1 24 13
M  V30 26 1 1 25 CFG=1
M  V30 27 1 2 26 CFG=1
M  V30 28 1 27 5
M  V30 29 1 28 5
M  V30 30 1 29 6
M  V30 31 1 30 6
M  V30 32 1 31 7
M  V30 33 1 32 7
M  V30 34 1 33 7
M  V30 35 1 34 8
M  V30 36 1 35 8
M  V30 37 1 36 9
M  V30 38 1 37 9
M  V30 39 1 38 9
M  V30 40 1 39 11
M  V30 41 1 40 11
M  V30 42 1 12 41 CFG=3
M  V30 43 1 42 13
M  V30 44 1 43 13
M  V30 45 1 44 14
M  V30 46 1 45 14
M  V30 47 1 46 15
M  V30 48 1 47 15
M  V30 49 1 48 16
M  V30 50 1 49 16
M  V30 51 1 50 17
M  V30 52 1 51 17
M  V30 53 1 52 20
M  V30 54 1 53 21
M  V30 55 1 54 21
M  V30 56 1 24 55 CFG=3
M  V30 END BOND
M  V30 END CTAB
M  END
>  <i_epik_Tot_Q>  (1) 
0

>  <i_epik_Tot_abs_Q>  (1) 
0

>  <i_i_glide_confnum>  (1) 
251

>  <i_i_glide_lignum>  (1) 
49

>  <i_i_glide_posenum>  (1) 
206

>  <i_i_glide_rotatable_bonds>  (1) 
8

>  <i_lp_mmshare_version>  (1) 
72125

>  <i_m_source_file_index>  (1) 
13

>  <i_f3d_flags>  (1) 
0

>  <num_sample>  (1) 
50

>  <b_lp_Chiralities_Consistent>  (1) 
1

>  <r_epik_Charging_Adjusted_Penalty>  (1) 
0

>  <r_epik_Ionization_Penalty>  (1) 
4.1955247269604324e-12

>  <r_epik_Ionization_Penalty_Charging>  (1) 
0

>  <r_epik_Ionization_Penalty_Neutral>  (1) 
4.1955247269604324e-12

>  <r_epik_State_Penalty>  (1) 
-0

>  <r_glide_ring_energy>  (1) 
0

>  <r_i_docking_score>  (1) 
-5.2255735306363347

>  <r_i_glide_ecoul>  (1) 
-2.4008527774704098

>  <r_i_glide_eff_state_penalty>  (1) 
-0

>  <r_i_glide_einternal>  (1) 
4.0142222248907355

>  <r_i_glide_emodel>  (1) 
-43.054870458155435

>  <r_i_glide_emodel_strain>  (1) 
0.32643460769768495

>  <r_i_glide_energy>  (1) 
-34.630385658798915

>  <r_i_glide_erotb>  (1) 
1.1556109002290837

>  <r_i_glide_esite>  (1) 
0

>  <r_i_glide_evdw>  (1) 
-32.229532881328502

>  <r_i_glide_gscore>  (1) 
-5.2255735306363347

>  <r_i_glide_gscore_strain>  (1) 
0

>  <r_i_glide_hbond>  (1) 
0

>  <r_i_glide_ligand_efficiency>  (1) 
-0.2177322304431806

>  <r_i_glide_ligand_efficiency_ln>  (1) 
-1.2507195318259345

>  <r_i_glide_ligand_efficiency_sa>  (1) 
-0.62804843159750168

>  <r_i_glide_lipo>  (1) 
-1.8762464784902031

>  <r_i_glide_metal>  (1) 
-0

>  <r_i_glide_rewards>  (1) 
-2.5333333916882284

>  <r_lp_Energy>  (1) 
10.280693999999999

>  <r_lp_tautomer_probability>  (1) 
1

>  <s_epik_cmdline>  (1) 
J2VwaWtfcHl0aG9uJywgJy1waHQnLCAnMS4wJywgJy1waCcsICc3LjQnLCAnLXRuJywgJzgnLCAnLW1hJywgJzUwMCcsICctaW1hZScsICc8aW5maWxlLm1hZT4nLCAnLW9tYWUnLCAnPG91dGZpbGUubWFlPic=

>  <s_epik_input>  (1) 
W0NIM11bQ0gyXVtDQEBIXShGKVtDSDJdW0NIMl1DKD1PKVtDQEBIXTFbQ0gyXVtDQEBIXShbQ0gyXVtDSDJdW0NIMl0xKVtDSDJdT0MoPVtDSF0yKVtDSDJdW0NIMl1DKD1PKVtDQEhdMltDSDNd

>  <s_glide_docking_method>  (1) 
confgen

>  <s_i_glide_gridfile>  (1) 
gpcr_drd2_6luq_protein_autoprepared_prepared

>  <s_lp_Force_Field>  (1) 
S-OPLS

>  <s_lp_Variant>  (1) 
DiffSBDD_12-2

>  <s_m_source_file>  (1) 
generated_generic_title2_ligand_DiffSBDD_2026-06-23_prepared.sdf

>  <GenAI_Model>  (1) 
DiffSBDD

>  <Protein>  (1) 
generic_title2

$$$$
DiffSBDD_0
     RDKit          3D

  0  0  0  0  0  0  0  0  0  0999 V3000
M  V30 BEGIN CTAB
M  V30 COUNTS 70 74 0 0 1
M  V30 BEGIN ATOM
M  V30 1 C 5.593916 7.457257 -22.336369 0
M  V30 2 N 6.177525 5.893982 -13.192565 0
M  V30 3 C 9.575868 7.604643 -11.794582 0 CFG=1
M  V30 4 C 5.289227 6.390235 -15.412613 0
M  V30 5 F 7.693544 6.094640 -20.807869 0
M  V30 6 C 5.897620 7.195644 -12.620226 0
M  V30 7 C 4.368725 6.858062 -21.628553 0
M  V30 8 C 4.208893 6.893458 -17.467091 0
M  V30 9 C 5.764051 6.462298 -19.512829 0 CFG=1
M  V30 10 C 10.309870 6.992574 -9.345764 0
M  V30 11 C 6.848619 4.976171 -12.281590 0 CFG=2
M  V30 12 C 6.642521 1.419040 -13.311764 0
M  V30 13 C 10.636527 7.195163 -10.800498 0 CFG=1
M  V30 14 O 4.998601 5.990245 -16.690504 0
M  V30 15 C 6.982803 7.072276 -20.243921 0 CFG=2
M  V30 16 C 10.372383 6.350330 -12.045559 0 CFG=1
M  V30 17 N 8.175418 7.144970 -11.585025 0 CFG=2 CHG=1
M  V30 18 C 5.101318 7.484242 -18.556195 0
M  V30 19 C 6.175440 2.748172 -12.700236 0
M  V30 20 C 8.105900 5.645753 -11.634206 0 CFG=2
M  V30 21 O 5.604953 0.464496 -13.197975 0
M  V30 22 C 4.785124 5.850174 -20.539570 0
M  V30 23 N 10.580601 7.937188 -8.401560 0
M  V30 24 C 7.236043 7.903720 -12.440279 0
M  V30 25 N 9.775396 5.856174 -8.896384 0
M  V30 26 O 9.708644 6.040156 -7.505717 0
M  V30 27 C 10.236960 7.263161 -7.319004 0
M  V30 28 O 7.198890 3.729472 -12.809860 0
M  V30 29 N 10.390542 7.631085 -5.995336 0
M  V30 30 C 5.867830 5.566331 -14.517438 0
M  V30 31 C 6.574922 8.082159 -21.331197 0
M  V30 32 C 10.975368 8.816350 -5.398563 0
M  V30 33 C 9.442534 5.175101 -12.206000 0
M  V30 34 H 6.102037 6.675705 -22.902489 0
M  V30 35 H 5.275931 8.206165 -23.062989 0
M  V30 36 H 9.722663 8.503990 -12.385068 0
M  V30 37 H 5.002921 7.411950 -15.217666 0
M  V30 38 H 5.204466 7.788778 -13.211457 0
M  V30 39 H 5.414347 7.066396 -11.650250 0
M  V30 40 H 3.727798 6.365795 -22.360300 0
M  V30 41 H 3.775410 7.662264 -21.194191 0
M  V30 42 H 3.359000 6.390218 -17.918226 0
M  V30 43 H 3.767011 7.697896 -16.876599 0
M  V30 44 H 6.147348 5.647545 -18.897516 0
M  V30 45 H 6.125205 4.808479 -11.479891 0
M  V30 46 H 7.532239 1.052316 -12.798169 0
M  V30 47 H 6.899031 1.550973 -14.363248 0
M  V30 48 H 11.563940 7.763947 -10.838024 0
M  V30 49 H 7.663291 7.542105 -19.534409 0
M  V30 50 H 11.162748 6.390457 -12.793086 0
M  V30 51 H 4.562205 8.252285 -19.110278 0
M  V30 52 H 5.876589 7.990226 -18.003844 0
M  V30 53 H 5.267374 3.092276 -13.195683 0
M  V30 54 H 5.928148 2.603010 -11.648336 0
M  V30 55 H 8.066399 5.309032 -10.601798 0
M  V30 56 H 5.876374 -0.364738 -13.569434 0
M  V30 57 H 5.269410 5.000502 -21.022798 0
M  V30 58 H 3.911916 5.434801 -20.038373 0
M  V30 59 H 7.680394 8.057850 -13.425527 0
M  V30 60 H 7.092495 8.882667 -11.985018 0
M  V30 61 H 10.052747 6.953360 -5.326603 0
M  V30 62 H 6.134711 4.555646 -14.785090 0
M  V30 63 H 7.461478 8.442695 -21.854154 0
M  V30 64 H 6.118362 8.957369 -20.868024 0
M  V30 65 H 11.285098 8.616977 -4.373381 0
M  V30 66 H 11.851728 9.131384 -5.965801 0
M  V30 67 H 10.257327 9.635071 -5.396787 0
M  V30 68 H 9.361108 4.952673 -13.270792 0
M  V30 69 H 9.829570 4.289418 -11.700957 0
M  V30 70 H 7.868125 7.397049 -10.637224 0
M  V30 END ATOM
M  V30 BEGIN BOND
M  V30 1 1 6 2
M  V30 2 1 7 1
M  V30 3 1 11 2
M  V30 4 1 13 3
M  V30 5 1 13 10
M  V30 6 1 14 4
M  V30 7 1 14 8
M  V30 8 1 15 5
M  V30 9 1 15 9
M  V30 10 1 16 3
M  V30 11 1 16 13
M  V30 12 1 17 3
M  V30 13 1 18 8
M  V30 14 1 18 9
M  V30 15 1 19 12
M  V30 16 1 20 11
M  V30 17 1 20 17
M  V30 18 1 21 12
M  V30 19 1 22 7
M  V30 20 1 22 9
M  V30 21 1 23 10
M  V30 22 1 24 6
M  V30 23 1 24 17
M  V30 24 2 25 10
M  V30 25 1 26 25
M  V30 26 2 27 23
M  V30 27 1 27 26
M  V30 28 1 28 11
M  V30 29 1 28 19
M  V30 30 1 29 27
M  V30 31 1 30 2
M  V30 32 2 30 4
M  V30 33 1 31 1
M  V30 34 1 31 15
M  V30 35 1 32 29
M  V30 36 1 33 16
M  V30 37 1 33 20
M  V30 38 1 34 1
M  V30 39 1 35 1
M  V30 40 1 3 36 CFG=3
M  V30 41 1 37 4
M  V30 42 1 38 6
M  V30 43 1 39 6
M  V30 44 1 40 7
M  V30 45 1 41 7
M  V30 46 1 42 8
M  V30 47 1 43 8
M  V30 48 1 9 44 CFG=1
M  V30 49 1 11 45 CFG=1
M  V30 50 1 46 12
M  V30 51 1 47 12
M  V30 52 1 13 48 CFG=1
M  V30 53 1 15 49 CFG=1
M  V30 54 1 16 50 CFG=3
M  V30 55 1 51 18
M  V30 56 1 52 18
M  V30 57 1 53 19
M  V30 58 1 54 19
M  V30 59 1 20 55 CFG=1
M  V30 60 1 56 21
M  V30 61 1 57 22
M  V30 62 1 58 22
M  V30 63 1 59 24
M  V30 64 1 60 24
M  V30 65 1 61 29
M  V30 66 1 62 30
M  V30 67 1 63 31
M  V30 68 1 64 31
M  V30 69 1 65 32
M  V30 70 1 66 32
M  V30 71 1 67 32
M  V30 72 1 68 33
M  V30 73 1 69 33
M  V30 74 1 17 70 CFG=1
M  V30 END BOND
M  V30 END CTAB
M  END
>  <i_epik_Tot_Q>  (1) 
1

>  <i_epik_Tot_abs_Q>  (1) 
1

>  <i_i_glide_confnum>  (1) 
339

>  <i_i_glide_lignum>  (1) 
1

>  <i_i_glide_posenum>  (1) 
191

>  <i_i_glide_rotatable_bonds>  (1) 
11

>  <i_lp_mmshare_version>  (1) 
72125

>  <i_m_source_file_index>  (1) 
1

>  <i_f3d_flags>  (1) 
0

>  <num_sample>  (1) 
50

>  <b_lp_Chiralities_Consistent>  (1) 
1

>  <r_epik_Charging_Adjusted_Penalty>  (1) 
0.41344222577729461

>  <r_epik_Ionization_Penalty>  (1) 
0.0027644559619576371

>  <r_epik_Ionization_Penalty_Charging>  (1) 
0.0027623868246906495

>  <r_epik_Ionization_Penalty_Neutral>  (1) 
2.0691372669875143e-06

>  <r_epik_State_Penalty>  (1) 
0.41067983895260396

>  <r_glide_ring_energy>  (1) 
1.3007136337365919

>  <r_i_docking_score>  (1) 
-5.2221178106987542

>  <r_i_glide_ecoul>  (1) 
-6.8030981352196376

>  <r_i_glide_eff_state_penalty>  (1) 
0.41067983895260396

>  <r_i_glide_einternal>  (1) 
13.403775361826447

>  <r_i_glide_emodel>  (1) 
-46.976153289312762

>  <r_i_glide_emodel_strain>  (1) 
4.983172024913074

>  <r_i_glide_energy>  (1) 
-46.605058938043321

>  <r_i_glide_erotb>  (1) 
0.74142510397790429

>  <r_i_glide_esite>  (1) 
-0.19718271799145798

>  <r_i_glide_evdw>  (1) 
-39.801960802823686

>  <r_i_glide_gscore>  (1) 
-5.6327976496513585

>  <r_i_glide_gscore_strain>  (1) 
0.2457930062282685

>  <r_i_glide_hbond>  (1) 
-0.21284082664671983

>  <r_i_glide_ligand_efficiency>  (1) 
-0.15824599426359862

>  <r_i_glide_ligand_efficiency_ln>  (1) 
-1.1613719624204581

>  <r_i_glide_ligand_efficiency_sa>  (1) 
-0.50757945918481517

>  <r_i_glide_lipo>  (1) 
-2.2416070660522465

>  <r_i_glide_metal>  (1) 
-0

>  <r_i_glide_rewards>  (1) 
-0.95782238874297709

>  <r_lp_Energy>  (1) 
39.475147

>  <r_lp_tautomer_probability>  (1) 
0.5

>  <s_epik_Chemistry_Notes>  (1) 
This compound has an imine and may undergo hydrolysis. This compound contains an acetal/aminal-like group ( X-CH(R)-Y where X, Y are N, S, or O) that may be acid/base labile, releasing an aldehyde.

>  <s_epik_cmdline>  (1) 
J2VwaWtfcHl0aG9uJywgJy1waHQnLCAnMS4wJywgJy1waCcsICc3LjQnLCAnLXRuJywgJzgnLCAnLW1hJywgJzUwMCcsICctaW1hZScsICc8aW5maWxlLm1hZT4nLCAnLW9tYWUnLCAnPG91dGZpbGUubWFlPic=

>  <s_epik_input>  (1) 
W0NIMl0xW0NIMl1bQ0gyXVtDSDJdW0NASF0oRilbQ0BIXTFbQ0gyXVtDSDJdTy9bQ0hdPVtDSF0vTihbQ0BIXTJPW0NIMl1bQ0gyXVtPSF0pW0NIMl1bQ0gyXU4zW0NAQEhdMltDSDJdW0NAQEhdKFtDQEBIXTM0KVtDQEBIXTRjNW5jKG9uNSlbTkhdW0NIM10=

>  <s_glide_docking_method>  (1) 
confgen

>  <s_i_glide_gridfile>  (1) 
gpcr_drd2_6luq_protein_autoprepared_prepared

>  <s_lp_Force_Field>  (1) 
S-OPLS

>  <s_lp_Variant>  (1) 
DiffSBDD_0-1

>  <s_m_source_file>  (1) 
generated_generic_title2_ligand_DiffSBDD_2026-06-23_prepared.sdf

>  <GenAI_Model>  (1) 
DiffSBDD

>  <Protein>  (1) 
generic_title2

$$$$
DiffSBDD_30
     RDKit          3D

  0  0  0  0  0  0  0  0  0  0999 V3000
M  V30 BEGIN CTAB
M  V30 COUNTS 45 45 0 0 1
M  V30 BEGIN ATOM
M  V30 1 C 9.522325 4.915080 -12.513099 0
M  V30 2 N 11.576050 8.979334 -7.026903 0 CHG=-1
M  V30 3 C 5.375495 0.929437 -13.985025 0
M  V30 4 O 10.298462 7.254808 -8.823266 0
M  V30 5 C 12.208663 9.580299 -5.886996 0
M  V30 6 C 6.712429 1.049853 -14.765628 0
M  V30 7 O 8.047795 0.822222 -12.785028 0
M  V30 8 F 6.556999 1.847920 -15.821214 0
M  V30 9 N 5.455366 -0.009781 -12.859751 0 CHG=1
M  V30 10 C 10.895847 7.918780 -6.501734 0
M  V30 11 C 8.587569 5.931802 -11.818043 0 CFG=2
M  V30 12 C 11.775408 8.633681 -4.785476 0
M  V30 13 C 9.001325 3.466483 -12.549902 0
M  V30 14 C 7.934941 1.575140 -13.971356 0 CFG=2
M  V30 15 F 11.726246 10.796809 -5.666531 0
M  V30 16 F 13.535349 9.590361 -6.021237 0
M  V30 17 C 10.013514 7.082715 -7.433015 0
M  V30 18 O 12.139154 8.799056 -3.620163 0
M  V30 19 N 9.375411 6.413523 -9.551363 0
M  V30 20 F 7.012583 -0.160511 -15.237841 0
M  V30 21 O 7.912448 6.635823 -12.838595 0
M  V30 22 C 9.354318 6.925806 -10.912845 0
M  V30 23 O 6.760696 3.690164 -13.410171 0
M  V30 24 N 10.975390 7.625917 -5.266490 0
M  V30 25 C 8.019755 3.111875 -13.688921 0 CFG=1
M  V30 26 H 9.800484 5.249136 -13.514055 0
M  V30 27 H 10.468247 4.888728 -11.975086 0
M  V30 28 H 5.055820 1.888429 -13.585022 0
M  V30 29 H 4.581041 0.583235 -14.646616 0
M  V30 30 H 8.783028 1.138457 -12.265717 0
M  V30 31 H 4.722067 0.169796 -12.191618 0
M  V30 32 H 6.367914 0.121697 -12.431945 0
M  V30 33 H 7.821209 5.419436 -11.232692 0
M  V30 34 H 9.872838 2.825950 -12.647717 0
M  V30 35 H 8.575417 3.206160 -11.584974 0
M  V30 36 H 8.814918 1.306466 -14.552842 0
M  V30 37 H 8.974015 7.352966 -7.236649 0
M  V30 38 H 10.129119 6.030824 -7.164421 0
M  V30 39 H 8.455675 6.665058 -9.184942 0
M  V30 40 H 7.296575 6.036130 -13.233570 0
M  V30 41 H 10.365067 7.097921 -11.283903 0
M  V30 42 H 8.851844 7.893588 -10.891067 0
M  V30 43 H 6.266028 3.733596 -14.215555 0
M  V30 44 H 8.369285 3.590323 -14.605161 0
M  V30 45 H 5.375398 -0.979193 -13.185000 0
M  V30 END ATOM
M  V30 BEGIN BOND
M  V30 1 1 5 2
M  V30 2 1 6 3
M  V30 3 1 8 6
M  V30 4 1 9 3
M  V30 5 1 10 2
M  V30 6 1 11 1
M  V30 7 1 12 5
M  V30 8 1 13 1
M  V30 9 1 14 6
M  V30 10 1 14 7
M  V30 11 1 15 5
M  V30 12 1 16 5
M  V30 13 1 17 4
M  V30 14 1 17 10
M  V30 15 2 18 12
M  V30 16 1 19 4
M  V30 17 1 20 6
M  V30 18 1 21 11
M  V30 19 1 22 11
M  V30 20 1 22 19
M  V30 21 2 24 10
M  V30 22 1 24 12
M  V30 23 1 25 13
M  V30 24 1 25 14
M  V30 25 1 25 23
M  V30 26 1 26 1
M  V30 27 1 27 1
M  V30 28 1 28 3
M  V30 29 1 29 3
M  V30 30 1 30 7
M  V30 31 1 31 9
M  V30 32 1 32 9
M  V30 33 1 11 33 CFG=1
M  V30 34 1 34 13
M  V30 35 1 35 13
M  V30 36 1 14 36 CFG=3
M  V30 37 1 37 17
M  V30 38 1 38 17
M  V30 39 1 39 19
M  V30 40 1 40 21
M  V30 41 1 41 22
M  V30 42 1 42 22
M  V30 43 1 43 23
M  V30 44 1 25 44 CFG=3
M  V30 45 1 45 9
M  V30 END BOND
M  V30 END CTAB
M  END
>  <i_epik_Tot_Q>  (1) 
0

>  <i_epik_Tot_abs_Q>  (1) 
2

>  <i_i_glide_confnum>  (1) 
768

>  <i_i_glide_lignum>  (1) 
92

>  <i_i_glide_posenum>  (1) 
113

>  <i_i_glide_rotatable_bonds>  (1) 
14

>  <i_lp_mmshare_version>  (1) 
72125

>  <i_m_source_file_index>  (1) 
31

>  <i_f3d_flags>  (1) 
0

>  <num_sample>  (1) 
50

>  <b_lp_Chiralities_Consistent>  (1) 
1

>  <r_epik_Charging_Adjusted_Penalty>  (1) 
1.1033345343036571

>  <r_epik_Ionization_Penalty>  (1) 
0.55249664061947246

>  <r_epik_Ionization_Penalty_Charging>  (1) 
0.55167603061160131

>  <r_epik_Ionization_Penalty_Neutral>  (1) 
0.00082061000787111938

>  <r_epik_State_Penalty>  (1) 
0.55165850369205582

>  <r_glide_ring_energy>  (1) 
0

>  <r_i_docking_score>  (1) 
-5.2111906276848323

>  <r_i_glide_ecoul>  (1) 
-10.597006655217957

>  <r_i_glide_eff_state_penalty>  (1) 
0.55165850369205582

>  <r_i_glide_einternal>  (1) 
17.090048596190645

>  <r_i_glide_emodel>  (1) 
-45.592976476740105

>  <r_i_glide_emodel_strain>  (1) 
1.8611943266958377

>  <r_i_glide_energy>  (1) 
-38.308947171973543

>  <r_i_glide_erotb>  (1) 
1.2301891588113794

>  <r_i_glide_esite>  (1) 
-0.24299619676204137

>  <r_i_glide_evdw>  (1) 
-27.711940516755583

>  <r_i_glide_gscore>  (1) 
-5.7628491313768881

>  <r_i_glide_gscore_strain>  (1) 
0

>  <r_i_glide_hbond>  (1) 
-0.58257140432591481

>  <r_i_glide_ligand_efficiency>  (1) 
-0.20844762510739329

>  <r_i_glide_ligand_efficiency_ln>  (1) 
-1.2352083455425313

>  <r_i_glide_ligand_efficiency_sa>  (1) 
-0.60950455330236364

>  <r_i_glide_lipo>  (1) 
-1.0983285636945583

>  <r_i_glide_metal>  (1) 
-0

>  <r_i_glide_rewards>  (1) 
-2.0939941012852792

>  <r_lp_Energy>  (1) 
17.800135000000001

>  <s_epik_Chemistry_Notes>  (1) 
This compound has an imine and may undergo hydrolysis. This compound has a N-S or N-O group and may undergo hydrolysis at high or low pH.

>  <s_epik_cmdline>  (1) 
J2VwaWtfcHl0aG9uJywgJy1waHQnLCAnMS4wJywgJy1waCcsICc3LjQnLCAnLXRuJywgJzgnLCAnLW1hJywgJzUwMCcsICctaW1hZScsICc8aW5maWxlLm1hZT4nLCAnLW9tYWUnLCAnPG91dGZpbGUubWFlPic=

>  <s_epik_input>  (1) 
W05IMl1bQ0gyXUMoRikoRilbQ0BASF0oW09IXSlbQ0BASF0oW09IXSlbQ0gyXVtDSDJdW0NASF0oW09IXSlbQ0gyXVtOSF1PW0NIMl1DKD1OQzEoRilGKVtOSF1DMT1P

>  <s_glide_docking_method>  (1) 
confgen

>  <s_i_glide_gridfile>  (1) 
gpcr_drd2_6luq_protein_autoprepared_prepared

>  <s_lp_Force_Field>  (1) 
S-OPLS

>  <s_lp_Variant>  (1) 
DiffSBDD_30-4

>  <s_m_source_file>  (1) 
generated_generic_title2_ligand_DiffSBDD_2026-06-23_prepared.sdf

>  <GenAI_Model>  (1) 
DiffSBDD

>  <Protein>  (1) 
generic_title2

$$$$
DiffSBDD_45
     RDKit          3D

  0  0  0  0  0  0  0  0  0  0999 V3000
M  V30 BEGIN CTAB
M  V30 COUNTS 54 58 0 0 1
M  V30 BEGIN ATOM
M  V30 1 C 6.703683 5.961069 -13.846490 0
M  V30 2 C 11.687665 8.142404 -4.429083 0 CFG=1
M  V30 3 C 9.700823 4.858843 -8.649694 0
M  V30 4 C 9.375695 5.465993 -9.872645 0
M  V30 5 C 10.675724 7.278663 -5.164039 0
M  V30 6 C 9.842377 8.051894 -6.223976 0
M  V30 7 C 8.666540 5.954325 -12.175397 0
M  V30 8 C 8.125688 5.470941 -13.524876 0 CFG=1
M  V30 9 C 12.547161 9.190239 -5.092224 0 CFG=1
M  V30 10 C 9.459656 7.761310 -10.746981 0
M  V30 11 N 10.101234 6.937404 -8.391400 0
M  V30 12 C 12.017995 8.328584 -7.543773 0
M  V30 13 O 7.418264 -0.010117 -15.178473 0
M  V30 14 C 8.957317 7.323700 -11.983992 0
M  V30 15 O 5.791113 3.708030 -13.584612 0
M  V30 16 C 8.200752 3.951205 -13.763399 0
M  V30 17 C 12.524843 9.452618 -6.593525 0
M  V30 18 F 6.235494 0.994941 -12.646297 0
M  V30 19 C 5.619927 5.073103 -13.211835 0
M  V30 20 C 10.485243 8.128651 -7.625563 0 CFG=2
M  V30 21 C 9.654166 6.837276 -9.716951 0
M  V30 22 O 11.374052 9.536405 -4.339322 0
M  V30 23 C 7.102649 1.640549 -13.427731 0 CFG=1
M  V30 24 C 6.845213 1.245515 -14.893275 0
M  V30 25 C 7.020256 3.156477 -13.136748 0 CFG=2
M  V30 26 C 8.886131 5.033478 -11.118943 0
M  V30 27 N 10.146205 5.717621 -7.776248 0
M  V30 28 H 6.564245 5.922229 -14.928448 0
M  V30 29 H 6.570378 7.005118 -13.558304 0
M  V30 30 H 12.085392 7.704849 -3.514598 0
M  V30 31 H 9.645619 3.820574 -8.385157 0
M  V30 32 H 10.024863 6.790278 -4.438161 0
M  V30 33 H 11.220915 6.443271 -5.600563 0
M  V30 34 H 9.636153 9.062016 -5.890645 0
M  V30 35 H 8.854717 7.595454 -6.311274 0
M  V30 36 H 8.793051 5.931632 -14.254243 0
M  V30 37 H 13.467892 9.480857 -4.587930 0
M  V30 38 H 9.678010 8.790174 -10.584806 0
M  V30 39 H 12.499548 7.389129 -7.278217 0
M  V30 40 H 12.372822 8.550009 -8.551326 0
M  V30 41 H 8.346757 0.019762 -15.012114 0
M  V30 42 H 8.793460 8.031095 -12.783634 0
M  V30 43 H 9.165137 3.586669 -13.418423 0
M  V30 44 H 8.185857 3.802941 -14.842143 0
M  V30 45 H 12.000535 10.389725 -6.780759 0
M  V30 46 H 13.577046 9.590227 -6.834077 0
M  V30 47 H 4.646728 5.387069 -13.586133 0
M  V30 48 H 5.610534 5.179080 -12.125136 0
M  V30 49 H 10.040106 8.980939 -8.142435 0
M  V30 50 H 8.086311 1.288503 -13.114277 0
M  V30 51 H 7.279947 1.965916 -15.584590 0
M  V30 52 H 5.776280 1.191239 -15.099349 0
M  V30 53 H 6.998735 3.254708 -12.054647 0
M  V30 54 H 8.684018 3.989634 -11.256864 0
M  V30 END ATOM
M  V30 BEGIN BOND
M  V30 1 1 4 3
M  V30 2 1 5 2
M  V30 3 1 6 5
M  V30 4 1 8 1
M  V30 5 1 8 7
M  V30 6 1 9 2
M  V30 7 1 14 7
M  V30 8 2 14 10
M  V30 9 1 16 8
M  V30 10 1 17 9
M  V30 11 1 17 12
M  V30 12 1 19 1
M  V30 13 1 19 15
M  V30 14 1 20 6
M  V30 15 1 20 11
M  V30 16 1 20 12
M  V30 17 2 21 4
M  V30 18 1 21 10
M  V30 19 1 21 11
M  V30 20 1 22 2
M  V30 21 1 22 9
M  V30 22 1 23 18
M  V30 23 1 24 13
M  V30 24 1 24 23
M  V30 25 1 25 15
M  V30 26 1 25 16
M  V30 27 1 25 23
M  V30 28 1 26 4
M  V30 29 2 26 7
M  V30 30 2 27 3
M  V30 31 1 27 11
M  V30 32 1 28 1
M  V30 33 1 29 1
M  V30 34 1 2 30 CFG=1
M  V30 35 1 31 3
M  V30 36 1 32 5
M  V30 37 1 33 5
M  V30 38 1 34 6
M  V30 39 1 35 6
M  V30 40 1 8 36 CFG=3
M  V30 41 1 9 37 CFG=1
M  V30 42 1 38 10
M  V30 43 1 39 12
M  V30 44 1 40 12
M  V30 45 1 41 13
M  V30 46 1 42 14
M  V30 47 1 43 16
M  V30 48 1 44 16
M  V30 49 1 45 17
M  V30 50 1 46 17
M  V30 51 1 47 19
M  V30 52 1 48 19
M  V30 53 1 20 49 CFG=3
M  V30 54 1 23 50 CFG=1
M  V30 55 1 51 24
M  V30 56 1 52 24
M  V30 57 1 25 53 CFG=1
M  V30 58 1 54 26
M  V30 END BOND
M  V30 END CTAB
M  END
>  <i_epik_Tot_Q>  (1) 
0

>  <i_epik_Tot_abs_Q>  (1) 
0

>  <i_i_glide_confnum>  (1) 
67

>  <i_i_glide_lignum>  (1) 
122

>  <i_i_glide_posenum>  (1) 
138

>  <i_i_glide_rotatable_bonds>  (1) 
5

>  <i_lp_mmshare_version>  (1) 
72125

>  <i_m_source_file_index>  (1) 
46

>  <i_f3d_flags>  (1) 
0

>  <num_sample>  (1) 
50

>  <b_lp_Chiralities_Consistent>  (1) 
1

>  <r_epik_Charging_Adjusted_Penalty>  (1) 
0

>  <r_epik_Ionization_Penalty>  (1) 
1.2822463511274088e-05

>  <r_epik_Ionization_Penalty_Charging>  (1) 
0

>  <r_epik_Ionization_Penalty_Neutral>  (1) 
1.2822463511274088e-05

>  <r_epik_State_Penalty>  (1) 
-0

>  <r_glide_ring_energy>  (1) 
0.77227948923304535

>  <r_i_docking_score>  (1) 
-5.2070663506907877

>  <r_i_glide_ecoul>  (1) 
0.96321568552731351

>  <r_i_glide_eff_state_penalty>  (1) 
-0

>  <r_i_glide_einternal>  (1) 
3.9802964823197478

>  <r_i_glide_emodel>  (1) 
-32.622777882298074

>  <r_i_glide_emodel_strain>  (1) 
0.22292826470081195

>  <r_i_glide_energy>  (1) 
-29.572406870742032

>  <r_i_glide_erotb>  (1) 
0.55159765068717725

>  <r_i_glide_esite>  (1) 
-0.057681922843476618

>  <r_i_glide_evdw>  (1) 
-30.535622556269345

>  <r_i_glide_gscore>  (1) 
-5.2070663506907877

>  <r_i_glide_gscore_strain>  (1) 
0

>  <r_i_glide_hbond>  (1) 
0

>  <r_i_glide_ligand_efficiency>  (1) 
-0.19285430928484398

>  <r_i_glide_ligand_efficiency_ln>  (1) 
-1.2121192012428574

>  <r_i_glide_ligand_efficiency_sa>  (1) 
-0.57856292785453212

>  <r_i_glide_lipo>  (1) 
-2.3528634387881775

>  <r_i_glide_metal>  (1) 
-0

>  <r_i_glide_rewards>  (1) 
-1.9658198647619392

>  <r_lp_Energy>  (1) 
32.347338000000001

>  <r_lp_tautomer_probability>  (1) 
1

>  <s_epik_cmdline>  (1) 
J2VwaWtfcHl0aG9uJywgJy1waHQnLCAnMS4wJywgJy1waCcsICc3LjQnLCAnLXRuJywgJzgnLCAnLW1hJywgJzUwMCcsICctaW1hZScsICc8aW5maWxlLm1hZT4nLCAnLW9tYWUnLCAnPG91dGZpbGUubWFlPic=

>  <s_epik_input>  (1) 
W09IXVtDSDJdW0NASF0oRilbQ0BASF0oW0NIMl0xKU9bQ0gyXVtDSDJdW0NASF0xYyhbY0hdMilbY0hdW2NIXWMoYzIzKW4obltjSF0zKVtDQEBIXShbQ0gyXVtDSDJdNClbQ0gyXVtDSDJdW0NAQEhdKE81KVtDQEhdNDU=

>  <s_glide_docking_method>  (1) 
confgen

>  <s_i_glide_gridfile>  (1) 
gpcr_drd2_6luq_protein_autoprepared_prepared

>  <s_lp_Force_Field>  (1) 
S-OPLS

>  <s_lp_Variant>  (1) 
DiffSBDD_45-1

>  <s_m_source_file>  (1) 
generated_generic_title2_ligand_DiffSBDD_2026-06-23_prepared.sdf

>  <GenAI_Model>  (1) 
DiffSBDD

>  <Protein>  (1) 
generic_title2

$$$$
DiffSBDD_19
     RDKit          3D

  0  0  0  0  0  0  0  0  0  0999 V3000
M  V30 BEGIN CTAB
M  V30 COUNTS 54 57 0 0 1
M  V30 BEGIN ATOM
M  V30 1 C 11.679666 8.787875 -7.101813 0
M  V30 2 C 11.368952 7.728712 -6.036027 0 CFG=1
M  V30 3 C 7.450051 5.486786 -14.001411 0
M  V30 4 C 8.787464 8.021622 -11.585022 0
M  V30 5 C 7.067702 4.092656 -13.441942 0 CFG=1
M  V30 6 C 10.154921 7.530873 -11.200089 0 CFG=1
M  V30 7 N 8.359589 6.204144 -13.118161 0
M  V30 8 N 11.629018 8.164877 -4.655641 0
M  V30 9 C 8.011015 7.386014 -12.467908 0
M  V30 10 O 10.172243 6.818288 -9.967610 0
M  V30 11 C 9.943406 7.194183 -6.239609 0
M  V30 12 N 9.625176 5.592918 -12.786293 0
M  V30 13 S 12.175416 8.143027 -2.043129 0
M  V30 14 C 11.538559 9.426214 -4.183578 0
M  V30 15 C 9.775418 6.598692 -7.648312 0
M  V30 16 C 9.305934 4.510698 -11.852858 0
M  V30 17 C 11.989677 7.149722 -3.649664 0
M  V30 18 O 4.693484 3.990227 -13.185027 0
M  V30 19 S 8.498378 3.190213 -12.785027 0
M  V30 20 C 10.624568 6.589268 -12.319683 0
M  V30 21 C 11.775419 9.590230 -2.912006 0
M  V30 22 C 11.543527 8.214297 -8.519832 0
M  V30 23 C 5.774871 5.166060 -11.404017 0
M  V30 24 C 5.888151 4.037576 -12.443597 0 CFG=2
M  V30 25 C 10.152992 7.586846 -8.769687 0 CFG=1
M  V30 26 H 10.975360 9.602087 -6.990197 0
M  V30 27 H 12.683123 9.190248 -6.959620 0
M  V30 28 H 12.027925 6.878425 -6.221222 0
M  V30 29 H 7.962583 5.363256 -14.956148 0
M  V30 30 H 6.555804 6.075956 -14.206127 0
M  V30 31 H 8.439017 8.928362 -11.114101 0
M  V30 32 H 6.771059 3.489422 -14.301495 0
M  V30 33 H 10.831107 8.378953 -11.152964 0
M  V30 34 H 7.031254 7.753875 -12.730102 0
M  V30 35 H 9.217366 7.993266 -6.085189 0
M  V30 36 H 9.720892 6.424253 -5.500509 0
M  V30 37 H 11.269047 10.198075 -4.887228 0
M  V30 38 H 8.744269 6.269507 -7.788799 0
M  V30 39 H 10.395108 5.703825 -7.730683 0
M  V30 40 H 8.702293 4.871716 -11.023160 0
M  V30 41 H 10.208629 4.103275 -11.424746 0
M  V30 42 H 11.270530 6.334138 -3.568949 0
M  V30 43 H 12.975285 6.790226 -3.896150 0
M  V30 44 H 3.994248 3.741435 -12.600746 0
M  V30 45 H 11.527617 6.067048 -12.011492 0
M  V30 46 H 10.936788 7.183419 -13.178109 0
M  V30 47 H 11.734522 10.531323 -2.385046 0
M  V30 48 H 12.312906 7.460796 -8.675231 0
M  V30 49 H 11.743986 9.008236 -9.238424 0
M  V30 50 H 6.676743 5.284357 -10.810419 0
M  V30 51 H 5.550505 6.125456 -11.868456 0
M  V30 52 H 4.975418 4.960559 -10.693900 0
M  V30 53 H 5.943887 3.091107 -11.905265 0
M  V30 54 H 9.391838 8.367780 -8.821910 0
M  V30 END ATOM
M  V30 BEGIN BOND
M  V30 1 1 2 1
M  V30 2 1 5 3
M  V30 3 1 6 4
M  V30 4 1 7 3
M  V30 5 1 8 2
M  V30 6 2 9 4
M  V30 7 1 9 7
M  V30 8 1 10 6
M  V30 9 1 11 2
M  V30 10 1 12 7
M  V30 11 1 14 8
M  V30 12 1 15 11
M  V30 13 1 16 12
M  V30 14 1 17 8
M  V30 15 1 17 13
M  V30 16 1 19 5
M  V30 17 1 19 16
M  V30 18 1 20 6
M  V30 19 1 20 12
M  V30 20 1 21 13
M  V30 21 2 21 14
M  V30 22 1 22 1
M  V30 23 1 24 5
M  V30 24 1 24 18
M  V30 25 1 24 23
M  V30 26 1 25 10
M  V30 27 1 25 15
M  V30 28 1 25 22
M  V30 29 1 26 1
M  V30 30 1 27 1
M  V30 31 1 2 28 CFG=3
M  V30 32 1 29 3
M  V30 33 1 30 3
M  V30 34 1 31 4
M  V30 35 1 5 32 CFG=3
M  V30 36 1 6 33 CFG=1
M  V30 37 1 34 9
M  V30 38 1 35 11
M  V30 39 1 36 11
M  V30 40 1 37 14
M  V30 41 1 38 15
M  V30 42 1 39 15
M  V30 43 1 40 16
M  V30 44 1 41 16
M  V30 45 1 42 17
M  V30 46 1 43 17
M  V30 47 1 44 18
M  V30 48 1 45 20
M  V30 49 1 46 20
M  V30 50 1 47 21
M  V30 51 1 48 22
M  V30 52 1 49 22
M  V30 53 1 50 23
M  V30 54 1 51 23
M  V30 55 1 52 23
M  V30 56 1 24 53 CFG=1
M  V30 57 1 25 54 CFG=3
M  V30 END BOND
M  V30 END CTAB
M  END
>  <i_epik_Tot_Q>  (1) 
0

>  <i_epik_Tot_abs_Q>  (1) 
0

>  <i_i_glide_confnum>  (1) 
2

>  <i_i_glide_lignum>  (1) 
63

>  <i_i_glide_posenum>  (1) 
206

>  <i_i_glide_rotatable_bonds>  (1) 
5

>  <i_lp_mmshare_version>  (1) 
72125

>  <i_m_source_file_index>  (1) 
20

>  <i_f3d_flags>  (1) 
0

>  <num_sample>  (1) 
50

>  <b_lp_Chiralities_Consistent>  (1) 
1

>  <r_epik_Charging_Adjusted_Penalty>  (1) 
6.6703818214750742e-05

>  <r_epik_Ionization_Penalty>  (1) 
7.3220417460206425e-05

>  <r_epik_Ionization_Penalty_Charging>  (1) 
6.6703818214750742e-05

>  <r_epik_Ionization_Penalty_Neutral>  (1) 
6.5165992454556827e-06

>  <r_epik_State_Penalty>  (1) 
-0

>  <r_glide_ring_energy>  (1) 
0

>  <r_i_docking_score>  (1) 
-5.1860165694788467

>  <r_i_glide_ecoul>  (1) 
0.75061738049570426

>  <r_i_glide_eff_state_penalty>  (1) 
-0

>  <r_i_glide_einternal>  (1) 
8.597107847563084

>  <r_i_glide_emodel>  (1) 
-40.924313197477652

>  <r_i_glide_emodel_strain>  (1) 
0.37341211297103882

>  <r_i_glide_energy>  (1) 
-37.435697783753916

>  <r_i_glide_erotb>  (1) 
0.52832890103692032

>  <r_i_glide_esite>  (1) 
0

>  <r_i_glide_evdw>  (1) 
-38.186315164249621

>  <r_i_glide_gscore>  (1) 
-5.1860165694788467

>  <r_i_glide_gscore_strain>  (1) 
0

>  <r_i_glide_hbond>  (1) 
0

>  <r_i_glide_ligand_efficiency>  (1) 
-0.20744066277915388

>  <r_i_glide_ligand_efficiency_ln>  (1) 
-1.2292413393420649

>  <r_i_glide_ligand_efficiency_sa>  (1) 
-0.60656017759287939

>  <r_i_glide_lipo>  (1) 
-2.9220450477731683

>  <r_i_glide_metal>  (1) 
-0

>  <r_i_glide_rewards>  (1) 
-0.9955772716044734

>  <r_lp_Energy>  (1) 
18.166922

>  <r_lp_tautomer_probability>  (1) 
1

>  <s_epik_Chemistry_Notes>  (1) 
This compound has an imine and may undergo hydrolysis. This compound contains an acetal/aminal-like group ( X-CH(R)-Y where X, Y are N, S, or O) that may be acid/base labile, releasing an aldehyde.

>  <s_epik_cmdline>  (1) 
J2VwaWtfcHl0aG9uJywgJy1waHQnLCAnMS4wJywgJy1waCcsICc3LjQnLCAnLXRuJywgJzgnLCAnLW1hJywgJzUwMCcsICctaW1hZScsICc8aW5maWxlLm1hZT4nLCAnLW9tYWUnLCAnPG91dGZpbGUubWFlPic=

>  <s_epik_input>  (1) 
W0NIMl0xU1tDSF09W0NIXU4xW0NAQEhdMltDSDJdW0NIMl1bQ0BIXShbQ0gyXVtDSDJdMilPW0NASF0oW0NIXT1bQ0hdMylbQ0gyXU4oTjM0KVtDSDJdU1tDQEhdKFtDSDJdNClbQ0BIXShbT0hdKVtDSDNd

>  <s_glide_docking_method>  (1) 
confgen

>  <s_i_glide_gridfile>  (1) 
gpcr_drd2_6luq_protein_autoprepared_prepared

>  <s_lp_Force_Field>  (1) 
S-OPLS

>  <s_lp_Variant>  (1) 
DiffSBDD_19-1

>  <s_m_source_file>  (1) 
generated_generic_title2_ligand_DiffSBDD_2026-06-23_prepared.sdf

>  <GenAI_Model>  (1) 
DiffSBDD

>  <Protein>  (1) 
generic_title2

$$$$
DiffSBDD_23
     RDKit          3D

  0  0  0  0  0  0  0  0  0  0999 V3000
M  V30 BEGIN CTAB
M  V30 COUNTS 57 60 0 0 1
M  V30 BEGIN ATOM
M  V30 1 C 11.871717 9.215932 -4.557404 0
M  V30 2 C 12.663988 5.969269 -1.843012 0
M  V30 3 F 9.742213 5.190315 -14.642487 0
M  V30 4 S 9.418816 5.830393 -11.654928 0 CHG=1
M  V30 5 C 8.591177 4.923493 -14.023559 0 CFG=1
M  V30 6 C 9.558659 7.413809 -10.823065 0
M  V30 7 C 5.789916 7.167684 -14.748109 0
M  V30 8 C 6.815342 6.288195 -12.616451 0
M  V30 9 C 9.372792 4.801403 -9.127815 0
M  V30 10 O 10.818249 5.988263 -7.596061 0
M  V30 11 O 9.611094 8.734229 -6.385382 0
M  V30 12 C 12.602329 9.425189 -3.382535 0
M  V30 13 C 10.222714 7.181398 -9.475730 0
M  V30 14 C 8.486627 4.961890 -10.360397 0
M  V30 15 C 11.375532 7.936760 -4.852231 0
M  V30 16 C 6.130161 4.701520 -14.420791 0 CFG=2
M  V30 17 C 8.295209 6.090636 -13.045942 0 CFG=1
M  V30 18 F 11.640121 10.249470 -5.399290 0
M  V30 19 C 12.847235 8.376506 -2.497291 0
M  V30 20 C 10.138589 6.061817 -8.764723 0
M  V30 21 S 11.185136 8.425878 -8.815775 0
M  V30 22 C 12.378449 7.095343 -2.788489 0
M  V30 23 C 11.352168 7.300236 -7.347732 0 CFG=1
M  V30 24 C 5.906154 3.492362 -13.480481 0
M  V30 25 C 7.519106 4.702069 -15.086199 0 CFG=2
M  V30 26 C 10.539030 7.708562 -6.098003 0 CFG=2
M  V30 27 O 7.735793 3.477402 -15.758708 0
M  V30 28 C 5.835214 6.062380 -13.766864 0 CFG=2
M  V30 29 C 5.712267 8.021496 -15.617465 0
M  V30 30 C 11.640112 6.865370 -3.969036 0
M  V30 31 H 13.305709 6.269504 -1.017493 0
M  V30 32 H 11.734531 5.590092 -1.425770 0
M  V30 33 H 13.193844 5.192476 -2.380648 0
M  V30 34 H 8.748130 3.994793 -13.472087 0
M  V30 35 H 10.175369 8.063182 -11.442227 0
M  V30 36 H 8.580612 7.882790 -10.732960 0
M  V30 37 H 6.667321 7.281676 -12.184538 0
M  V30 38 H 6.509555 5.593274 -11.839890 0
M  V30 39 H 10.091397 4.000767 -9.290264 0
M  V30 40 H 8.771865 4.487483 -8.274604 0
M  V30 41 H 8.974287 8.401237 -7.002211 0
M  V30 42 H 12.976118 10.390228 -3.157173 0
M  V30 43 H 7.613719 5.534519 -10.049687 0
M  V30 44 H 8.141774 3.992227 -10.722811 0
M  V30 45 H 5.383162 4.626738 -15.185152 0
M  V30 46 H 8.574570 7.011472 -13.549632 0
M  V30 47 H 13.404956 8.557215 -1.590375 0
M  V30 48 H 12.420684 7.189503 -7.181612 0
M  V30 49 H 6.565464 3.490425 -12.614619 0
M  V30 50 H 4.879641 3.486248 -13.117583 0
M  V30 51 H 6.082531 2.545673 -13.993776 0
M  V30 52 H 7.593308 5.490466 -15.834345 0
M  V30 53 H 9.881648 6.883981 -5.812595 0
M  V30 54 H 7.208596 3.462009 -16.543390 0
M  V30 55 H 4.831483 6.030358 -13.355394 0
M  V30 56 H 5.625505 8.779915 -16.366813 0
M  V30 57 H 11.265366 5.877649 -4.188524 0
M  V30 END ATOM
M  V30 BEGIN BOND
M  V30 1 1 5 3
M  V30 2 1 4 6 CFG=1
M  V30 3 1 12 1
M  V30 4 1 13 6
M  V30 5 1 14 4
M  V30 6 1 14 9
M  V30 7 2 15 1
M  V30 8 1 17 4
M  V30 9 1 17 5
M  V30 10 1 17 8
M  V30 11 1 18 1
M  V30 12 2 19 12
M  V30 13 1 20 9
M  V30 14 1 20 10
M  V30 15 2 20 13
M  V30 16 1 21 13
M  V30 17 1 22 2
M  V30 18 1 22 19
M  V30 19 1 23 10
M  V30 20 1 23 21
M  V30 21 1 24 16
M  V30 22 1 25 5
M  V30 23 1 25 16
M  V30 24 1 26 11
M  V30 25 1 26 15
M  V30 26 1 26 23
M  V30 27 1 27 25
M  V30 28 1 28 7
M  V30 29 1 28 8
M  V30 30 1 28 16
M  V30 31 3 29 7
M  V30 32 1 30 15
M  V30 33 2 30 22
M  V30 34 1 31 2
M  V30 35 1 32 2
M  V30 36 1 33 2
M  V30 37 1 5 34 CFG=1
M  V30 38 1 35 6
M  V30 39 1 36 6
M  V30 40 1 37 8
M  V30 41 1 38 8
M  V30 42 1 39 9
M  V30 43 1 40 9
M  V30 44 1 41 11
M  V30 45 1 42 12
M  V30 46 1 43 14
M  V30 47 1 44 14
M  V30 48 1 16 45 CFG=3
M  V30 49 1 17 46 CFG=3
M  V30 50 1 47 19
M  V30 51 1 23 48 CFG=1
M  V30 52 1 49 24
M  V30 53 1 50 24
M  V30 54 1 51 24
M  V30 55 1 25 52 CFG=3
M  V30 56 1 26 53 CFG=1
M  V30 57 1 54 27
M  V30 58 1 28 55 CFG=1
M  V30 59 1 56 29
M  V30 60 1 57 30
M  V30 END BOND
M  V30 END CTAB
M  END
>  <i_epik_Tot_Q>  (1) 
1

>  <i_epik_Tot_abs_Q>  (1) 
1

>  <i_i_glide_confnum>  (1) 
24

>  <i_i_glide_lignum>  (1) 
70

>  <i_i_glide_posenum>  (1) 
326

>  <i_i_glide_rotatable_bonds>  (1) 
6

>  <i_lp_mmshare_version>  (1) 
72125

>  <i_m_source_file_index>  (1) 
24

>  <i_f3d_flags>  (1) 
0

>  <num_sample>  (1) 
50

>  <b_lp_Chiralities_Consistent>  (1) 
1

>  <r_epik_Charging_Adjusted_Penalty>  (1) 
0

>  <r_epik_Ionization_Penalty>  (1) 
0.0001931723336569867

>  <r_epik_Ionization_Penalty_Charging>  (1) 
0

>  <r_epik_Ionization_Penalty_Neutral>  (1) 
0.0001931723336569867

>  <r_epik_State_Penalty>  (1) 
-0

>  <r_glide_ring_energy>  (1) 
1.5751490715595688

>  <r_i_docking_score>  (1) 
-5.1847115669747827

>  <r_i_glide_ecoul>  (1) 
-4.5258131139257118

>  <r_i_glide_eff_state_penalty>  (1) 
-0

>  <r_i_glide_einternal>  (1) 
17.08716388869918

>  <r_i_glide_emodel>  (1) 
-32.955423666914974

>  <r_i_glide_emodel_strain>  (1) 
0.84380026866013225

>  <r_i_glide_energy>  (1) 
-35.820096126036773

>  <r_i_glide_erotb>  (1) 
0.39027100354639338

>  <r_i_glide_esite>  (1) 
-0.01795915188420753

>  <r_i_glide_evdw>  (1) 
-31.294283012111059

>  <r_i_glide_gscore>  (1) 
-5.1847115669747827

>  <r_i_glide_gscore_strain>  (1) 
0

>  <r_i_glide_hbond>  (1) 
0

>  <r_i_glide_ligand_efficiency>  (1) 
-0.17282371889915943

>  <r_i_glide_ligand_efficiency_ln>  (1) 
-1.1780229599738434

>  <r_i_glide_ligand_efficiency_sa>  (1) 
-0.53700347716330044

>  <r_i_glide_lipo>  (1) 
-3.2779511922403262

>  <r_i_glide_metal>  (1) 
-0

>  <r_i_glide_rewards>  (1) 
-0.035486108702232622

>  <r_lp_Energy>  (1) 
9.4869079999999997

>  <r_lp_tautomer_probability>  (1) 
1

>  <s_epik_Chemistry_Notes>  (1) 
This compound contains an acetal/aminal-like group ( X-CH(R)-Y where X, Y are N, S, or O) that may be acid/base labile, releasing an aldehyde.

>  <s_epik_cmdline>  (1) 
J2VwaWtfcHl0aG9uJywgJy1waHQnLCAnMS4wJywgJy1waCcsICc3LjQnLCAnLXRuJywgJzgnLCAnLW1hJywgJzUwMCcsICctaW1hZScsICc8aW5maWxlLm1hZT4nLCAnLW9tYWUnLCAnPG91dGZpbGUubWFlPic=

>  <s_epik_input>  (1) 
RmMxW2NIXVtjSF1jKFtDSDNdKVtjSF1jMVtDQEBIXShbT0hdKVtDQEhdKFMyKU9DKD1DMjMpW0NIMl1bQ0gyXVtTK10oW0NIMl0zKVtDQEBIXShbQ0BASF00RilbQ0gyXVtDQEBIXShDI1tDSF0pW0NASF0oW0NIM10pW0NAQEhdNFtPSF0=

>  <s_glide_docking_method>  (1) 
confgen

>  <s_i_glide_gridfile>  (1) 
gpcr_drd2_6luq_protein_autoprepared_prepared

>  <s_lp_Force_Field>  (1) 
S-OPLS

>  <s_lp_Variant>  (1) 
DiffSBDD_23-1

>  <s_m_source_file>  (1) 
generated_generic_title2_ligand_DiffSBDD_2026-06-23_prepared.sdf

>  <GenAI_Model>  (1) 
DiffSBDD

>  <Protein>  (1) 
generic_title2

$$$$
DiffSBDD_0
     RDKit          3D

  0  0  0  0  0  0  0  0  0  0999 V3000
M  V30 BEGIN CTAB
M  V30 COUNTS 70 74 0 0 1
M  V30 BEGIN ATOM
M  V30 1 C 6.178042 8.325327 -22.277118 0
M  V30 2 N 6.165229 6.166602 -13.473772 0
M  V30 3 C 9.415324 7.557420 -11.813105 0 CFG=1
M  V30 4 C 5.944965 7.216489 -15.668739 0
M  V30 5 F 4.766081 5.767995 -22.008524 0
M  V30 6 C 5.757153 7.320082 -12.709827 0
M  V30 7 C 5.966477 8.857024 -20.852569 0
M  V30 8 C 6.761817 6.078870 -17.626435 0
M  V30 9 C 5.735230 6.445331 -19.976711 0 CFG=1
M  V30 10 C 10.175275 6.794650 -9.422742 0
M  V30 11 C 6.686095 5.094595 -12.665353 0 CFG=2
M  V30 12 C 6.896399 1.504536 -13.430425 0
M  V30 13 C 10.487185 7.095530 -10.862200 0 CFG=1
M  V30 14 O 6.088412 7.187238 -17.038738 0
M  V30 15 C 5.952649 5.942372 -21.422305 0 CFG=2
M  V30 16 C 10.209496 6.323175 -12.149406 0 CFG=1
M  V30 17 N 8.018885 7.086566 -11.585028 0 CFG=2 CHG=1
M  V30 18 C 7.019000 6.321659 -19.120807 0
M  V30 19 C 7.011520 2.769311 -12.570528 0
M  V30 20 C 7.914701 5.604323 -11.828145 0 CFG=2
M  V30 21 O 8.175449 1.060308 -13.817207 0
M  V30 22 C 5.147169 7.877100 -19.994384 0
M  V30 23 N 10.574543 7.610200 -8.406961 0
M  V30 24 C 7.050068 7.990221 -12.259468 0
M  V30 25 N 9.496762 5.702788 -9.062634 0
M  V30 26 O 9.435258 5.791431 -7.661823 0
M  V30 27 C 10.116906 6.917028 -7.380855 0
M  V30 28 O 6.955257 3.927479 -13.377954 0
M  V30 29 N 10.275379 7.177444 -6.032466 0
M  V30 30 C 6.279263 6.181182 -14.864634 0
M  V30 31 C 6.794234 6.918116 -22.264368 0
M  V30 32 C 10.975235 8.246584 -5.346459 0
M  V30 33 C 9.278937 5.163130 -12.374042 0
M  V30 34 H 5.222465 8.298445 -22.802909 0
M  V30 35 H 6.818361 9.007225 -22.837362 0
M  V30 36 H 9.557819 8.471327 -12.384752 0
M  V30 37 H 5.542386 8.156336 -15.323839 0
M  V30 38 H 5.099317 7.989828 -13.261520 0
M  V30 39 H 5.185209 7.000282 -11.837455 0
M  V30 40 H 5.449542 9.814886 -20.900041 0
M  V30 41 H 6.931021 9.050158 -20.385184 0
M  V30 42 H 7.726847 5.924505 -17.141148 0
M  V30 43 H 6.173670 5.170328 -17.496798 0
M  V30 44 H 4.991072 5.785703 -19.527920 0
M  V30 45 H 5.862546 4.869034 -11.984559 0
M  V30 46 H 6.266787 1.671993 -14.304776 0
M  V30 47 H 6.433510 0.703484 -12.852441 0
M  V30 48 H 11.411460 7.670379 -10.878101 0
M  V30 49 H 6.417289 4.955663 -21.418468 0
M  V30 50 H 10.991482 6.408243 -12.901708 0
M  V30 51 H 7.662825 7.190086 -19.250739 0
M  V30 52 H 7.606379 5.475458 -19.479086 0
M  V30 53 H 6.175379 2.768693 -11.871162 0
M  V30 54 H 7.932239 2.790253 -11.985339 0
M  V30 55 H 7.790782 5.138476 -10.852092 0
M  V30 56 H 8.688962 0.900366 -13.038078 0
M  V30 57 H 4.139385 7.837887 -20.402615 0
M  V30 58 H 5.038375 8.270968 -18.985003 0
M  V30 59 H 7.521014 8.390225 -13.157543 0
M  V30 60 H 6.843161 8.829776 -11.592628 0
M  V30 61 H 9.837660 6.505611 -5.416899 0
M  V30 62 H 6.676662 5.263232 -15.266362 0
M  V30 63 H 6.885734 6.544334 -23.284872 0
M  V30 64 H 7.808536 6.968435 -21.866254 0
M  V30 65 H 11.358481 7.903379 -4.385239 0
M  V30 66 H 11.816356 8.594221 -5.946393 0
M  V30 67 H 10.307637 9.091949 -5.185037 0
M  V30 68 H 9.233755 4.970531 -13.446564 0
M  V30 69 H 9.665281 4.269196 -11.883708 0
M  V30 70 H 7.769032 7.227641 -10.598818 0
M  V30 END ATOM
M  V30 BEGIN BOND
M  V30 1 1 6 2
M  V30 2 1 7 1
M  V30 3 1 11 2
M  V30 4 1 13 3
M  V30 5 1 13 10
M  V30 6 1 14 4
M  V30 7 1 14 8
M  V30 8 1 15 5
M  V30 9 1 15 9
M  V30 10 1 16 3
M  V30 11 1 16 13
M  V30 12 1 17 3
M  V30 13 1 18 8
M  V30 14 1 18 9
M  V30 15 1 19 12
M  V30 16 1 20 11
M  V30 17 1 20 17
M  V30 18 1 21 12
M  V30 19 1 22 7
M  V30 20 1 22 9
M  V30 21 1 23 10
M  V30 22 1 24 6
M  V30 23 1 24 17
M  V30 24 2 25 10
M  V30 25 1 26 25
M  V30 26 2 27 23
M  V30 27 1 27 26
M  V30 28 1 28 11
M  V30 29 1 28 19
M  V30 30 1 29 27
M  V30 31 1 30 2
M  V30 32 2 30 4
M  V30 33 1 31 1
M  V30 34 1 31 15
M  V30 35 1 32 29
M  V30 36 1 33 16
M  V30 37 1 33 20
M  V30 38 1 34 1
M  V30 39 1 35 1
M  V30 40 1 3 36 CFG=3
M  V30 41 1 37 4
M  V30 42 1 38 6
M  V30 43 1 39 6
M  V30 44 1 40 7
M  V30 45 1 41 7
M  V30 46 1 42 8
M  V30 47 1 43 8
M  V30 48 1 9 44 CFG=1
M  V30 49 1 11 45 CFG=1
M  V30 50 1 46 12
M  V30 51 1 47 12
M  V30 52 1 13 48 CFG=1
M  V30 53 1 15 49 CFG=1
M  V30 54 1 16 50 CFG=3
M  V30 55 1 51 18
M  V30 56 1 52 18
M  V30 57 1 53 19
M  V30 58 1 54 19
M  V30 59 1 20 55 CFG=1
M  V30 60 1 56 21
M  V30 61 1 57 22
M  V30 62 1 58 22
M  V30 63 1 59 24
M  V30 64 1 60 24
M  V30 65 1 61 29
M  V30 66 1 62 30
M  V30 67 1 63 31
M  V30 68 1 64 31
M  V30 69 1 65 32
M  V30 70 1 66 32
M  V30 71 1 67 32
M  V30 72 1 68 33
M  V30 73 1 69 33
M  V30 74 1 17 70 CFG=1
M  V30 END BOND
M  V30 END CTAB
M  END
>  <i_epik_Tot_Q>  (1) 
1

>  <i_epik_Tot_abs_Q>  (1) 
1

>  <i_i_glide_confnum>  (1) 
411

>  <i_i_glide_lignum>  (1) 
1

>  <i_i_glide_posenum>  (1) 
116

>  <i_i_glide_rotatable_bonds>  (1) 
11

>  <i_lp_mmshare_version>  (1) 
72125

>  <i_m_source_file_index>  (1) 
1

>  <i_f3d_flags>  (1) 
0

>  <num_sample>  (1) 
50

>  <b_lp_Chiralities_Consistent>  (1) 
1

>  <r_epik_Charging_Adjusted_Penalty>  (1) 
0.41344222577729461

>  <r_epik_Ionization_Penalty>  (1) 
0.0027644559619576371

>  <r_epik_Ionization_Penalty_Charging>  (1) 
0.0027623868246906495

>  <r_epik_Ionization_Penalty_Neutral>  (1) 
2.0691372669875143e-06

>  <r_epik_State_Penalty>  (1) 
0.41067983895260396

>  <r_glide_ring_energy>  (1) 
1.3007136337365919

>  <r_i_docking_score>  (1) 
-5.1832417380742761

>  <r_i_glide_ecoul>  (1) 
-8.4362045932410386

>  <r_i_glide_eff_state_penalty>  (1) 
0.41067983895260396

>  <r_i_glide_einternal>  (1) 
16.120256240510329

>  <r_i_glide_emodel>  (1) 
-43.437595142174999

>  <r_i_glide_emodel_strain>  (1) 
6.4240663637833677

>  <r_i_glide_energy>  (1) 
-45.94884394084486

>  <r_i_glide_erotb>  (1) 
0.74142510397790429

>  <r_i_glide_esite>  (1) 
-0.24626105771194584

>  <r_i_glide_evdw>  (1) 
-37.512639347603823

>  <r_i_glide_gscore>  (1) 
-5.5939215770268804

>  <r_i_glide_gscore_strain>  (1) 
0.60601659094584193

>  <r_i_glide_hbond>  (1) 
-0.20000000000000001

>  <r_i_glide_ligand_efficiency>  (1) 
-0.15706793145679623

>  <r_i_glide_ligand_efficiency_ln>  (1) 
-1.1527261251583054

>  <r_i_glide_ligand_efficiency_sa>  (1) 
-0.50380078228910541

>  <r_i_glide_lipo>  (1) 
-2.1942799440759964

>  <r_i_glide_metal>  (1) 
-0

>  <r_i_glide_rewards>  (1) 
-1.1597596137963366

>  <r_lp_Energy>  (1) 
39.475147

>  <r_lp_tautomer_probability>  (1) 
0.5

>  <s_epik_Chemistry_Notes>  (1) 
This compound has an imine and may undergo hydrolysis. This compound contains an acetal/aminal-like group ( X-CH(R)-Y where X, Y are N, S, or O) that may be acid/base labile, releasing an aldehyde.

>  <s_epik_cmdline>  (1) 
J2VwaWtfcHl0aG9uJywgJy1waHQnLCAnMS4wJywgJy1waCcsICc3LjQnLCAnLXRuJywgJzgnLCAnLW1hJywgJzUwMCcsICctaW1hZScsICc8aW5maWxlLm1hZT4nLCAnLW9tYWUnLCAnPG91dGZpbGUubWFlPic=

>  <s_epik_input>  (1) 
W0NIMl0xW0NIMl1bQ0gyXVtDSDJdW0NASF0oRilbQ0BIXTFbQ0gyXVtDSDJdTy9bQ0hdPVtDSF0vTihbQ0BIXTJPW0NIMl1bQ0gyXVtPSF0pW0NIMl1bQ0gyXU4zW0NAQEhdMltDSDJdW0NAQEhdKFtDQEBIXTM0KVtDQEBIXTRjNW5jKG9uNSlbTkhdW0NIM10=

>  <s_glide_docking_method>  (1) 
confgen

>  <s_i_glide_gridfile>  (1) 
gpcr_drd2_6luq_protein_autoprepared_prepared

>  <s_lp_Force_Field>  (1) 
S-OPLS

>  <s_lp_Variant>  (1) 
DiffSBDD_0-1

>  <s_m_source_file>  (1) 
generated_generic_title2_ligand_DiffSBDD_2026-06-23_prepared.sdf

>  <GenAI_Model>  (1) 
DiffSBDD

>  <Protein>  (1) 
generic_title2

$$$$
DiffSBDD_45
     RDKit          3D

  0  0  0  0  0  0  0  0  0  0999 V3000
M  V30 BEGIN CTAB
M  V30 COUNTS 54 58 0 0 1
M  V30 BEGIN ATOM
M  V30 1 C 11.943072 8.119748 -9.437531 0
M  V30 2 C 5.654192 5.843909 -17.437652 0 CFG=1
M  V30 3 C 7.024163 4.391162 -11.263962 0
M  V30 4 C 8.038728 5.356973 -11.022089 0
M  V30 5 C 6.985852 5.401969 -16.857350 0
M  V30 6 C 6.931647 4.926421 -15.388569 0
M  V30 7 C 9.851198 6.771661 -10.109151 0
M  V30 8 C 10.865412 7.091290 -9.001932 0 CFG=2
M  V30 9 C 4.796169 6.919112 -16.829233 0 CFG=1
M  V30 10 C 8.922163 7.263408 -12.296488 0
M  V30 11 N 7.111026 5.626842 -13.010379 0
M  V30 12 C 5.381447 6.741744 -14.363455 0
M  V30 13 O 11.775416 9.190255 -3.159065 0
M  V30 14 C 9.813500 7.563615 -11.274338 0
M  V30 15 O 12.259492 8.800936 -7.170223 0
M  V30 16 C 10.267973 7.535386 -7.659059 0
M  V30 17 C 5.185309 7.669155 -15.578569 0
M  V30 18 F 10.575426 6.878339 -4.784937 0
M  V30 19 C 12.958783 8.409341 -8.338434 0
M  V30 20 C 6.752762 6.058841 -14.354956 0 CFG=2
M  V30 21 C 8.065740 6.176724 -12.167899 0
M  V30 22 O 5.616233 7.173334 -17.975876 0
M  V30 23 C 11.034098 8.047702 -5.227250 0 CFG=1
M  V30 24 C 12.204000 8.497458 -4.311586 0
M  V30 25 C 11.442574 7.748486 -6.672980 0 CFG=2
M  V30 26 C 8.961598 5.667005 -9.976973 0
M  V30 27 N 6.468322 4.547344 -12.445350 0
M  V30 28 H 11.475653 9.076001 -9.675165 0
M  V30 29 H 12.465536 7.778266 -10.331570 0
M  V30 30 H 5.155143 5.114840 -18.068692 0
M  V30 31 H 6.684718 3.591980 -10.621158 0
M  V30 32 H 7.707579 6.208258 -16.967437 0
M  V30 33 H 7.359721 4.589365 -17.480553 0
M  V30 34 H 7.882529 4.433734 -15.179198 0
M  V30 35 H 6.175423 4.159335 -15.238665 0
M  V30 36 H 11.374199 6.156302 -8.784996 0
M  V30 37 H 3.728916 6.865575 -17.035738 0
M  V30 38 H 8.896318 7.867558 -13.183239 0
M  V30 39 H 4.610402 5.975325 -14.290708 0
M  V30 40 H 5.296058 7.352426 -13.462853 0
M  V30 41 H 12.529131 9.399315 -2.625878 0
M  V30 42 H 10.475931 8.391458 -11.386892 0
M  V30 43 H 9.584714 6.774008 -7.280518 0
M  V30 44 H 9.687929 8.451572 -7.780009 0
M  V30 45 H 6.086317 8.254464 -15.766718 0
M  V30 46 H 4.402191 8.397646 -15.371667 0
M  V30 47 H 13.639685 9.190222 -8.650060 0
M  V30 48 H 13.599468 7.564756 -8.137195 0
M  V30 49 H 7.485069 6.821881 -14.617570 0
M  V30 50 H 10.224310 8.775738 -5.215448 0
M  V30 51 H 12.871069 9.184291 -4.835094 0
M  V30 52 H 12.800290 7.644006 -3.985021 0
M  V30 53 H 12.034945 6.830354 -6.643366 0
M  V30 54 H 8.984369 5.060703 -9.084381 0
M  V30 END ATOM
M  V30 BEGIN BOND
M  V30 1 1 4 3
M  V30 2 1 5 2
M  V30 3 1 6 5
M  V30 4 1 8 1
M  V30 5 1 8 7
M  V30 6 1 9 2
M  V30 7 1 14 7
M  V30 8 2 14 10
M  V30 9 1 16 8
M  V30 10 1 17 9
M  V30 11 1 17 12
M  V30 12 1 19 1
M  V30 13 1 19 15
M  V30 14 1 20 6
M  V30 15 1 20 11
M  V30 16 1 20 12
M  V30 17 2 21 4
M  V30 18 1 21 10
M  V30 19 1 21 11
M  V30 20 1 22 2
M  V30 21 1 22 9
M  V30 22 1 23 18
M  V30 23 1 24 13
M  V30 24 1 24 23
M  V30 25 1 25 15
M  V30 26 1 25 16
M  V30 27 1 25 23
M  V30 28 1 26 4
M  V30 29 2 26 7
M  V30 30 2 27 3
M  V30 31 1 27 11
M  V30 32 1 28 1
M  V30 33 1 29 1
M  V30 34 1 2 30 CFG=3
M  V30 35 1 31 3
M  V30 36 1 32 5
M  V30 37 1 33 5
M  V30 38 1 34 6
M  V30 39 1 35 6
M  V30 40 1 8 36 CFG=1
M  V30 41 1 9 37 CFG=3
M  V30 42 1 38 10
M  V30 43 1 39 12
M  V30 44 1 40 12
M  V30 45 1 41 13
M  V30 46 1 42 14
M  V30 47 1 43 16
M  V30 48 1 44 16
M  V30 49 1 45 17
M  V30 50 1 46 17
M  V30 51 1 47 19
M  V30 52 1 48 19
M  V30 53 1 20 49 CFG=3
M  V30 54 1 23 50 CFG=3
M  V30 55 1 51 24
M  V30 56 1 52 24
M  V30 57 1 25 53 CFG=1
M  V30 58 1 54 26
M  V30 END BOND
M  V30 END CTAB
M  END
>  <i_epik_Tot_Q>  (1) 
0

>  <i_epik_Tot_abs_Q>  (1) 
0

>  <i_i_glide_confnum>  (1) 
42

>  <i_i_glide_lignum>  (1) 
123

>  <i_i_glide_posenum>  (1) 
194

>  <i_i_glide_rotatable_bonds>  (1) 
5

>  <i_lp_mmshare_version>  (1) 
72125

>  <i_m_source_file_index>  (1) 
46

>  <i_f3d_flags>  (1) 
0

>  <num_sample>  (1) 
50

>  <b_lp_Chiralities_Consistent>  (1) 
1

>  <r_epik_Charging_Adjusted_Penalty>  (1) 
0

>  <r_epik_Ionization_Penalty>  (1) 
1.2822463511274088e-05

>  <r_epik_Ionization_Penalty_Charging>  (1) 
0

>  <r_epik_Ionization_Penalty_Neutral>  (1) 
1.2822463511274088e-05

>  <r_epik_State_Penalty>  (1) 
-0

>  <r_glide_ring_energy>  (1) 
0

>  <r_i_docking_score>  (1) 
-5.1821433784943061

>  <r_i_glide_ecoul>  (1) 
0.30595076747095307

>  <r_i_glide_eff_state_penalty>  (1) 
-0

>  <r_i_glide_einternal>  (1) 
3.8768824210152548

>  <r_i_glide_emodel>  (1) 
-31.276066856056033

>  <r_i_glide_emodel_strain>  (1) 
0.72871979939385056

>  <r_i_glide_energy>  (1) 
-28.253922614633616

>  <r_i_glide_erotb>  (1) 
0.55159765068717725

>  <r_i_glide_esite>  (1) 
0

>  <r_i_glide_evdw>  (1) 
-28.55987338210457

>  <r_i_glide_gscore>  (1) 
-5.1821433784943061

>  <r_i_glide_gscore_strain>  (1) 
0

>  <r_i_glide_hbond>  (1) 
0

>  <r_i_glide_ligand_efficiency>  (1) 
-0.19193123624052985

>  <r_i_glide_ligand_efficiency_ln>  (1) 
-1.2063175442028258

>  <r_i_glide_ligand_efficiency_sa>  (1) 
-0.57579370872158964

>  <r_i_glide_lipo>  (1) 
-2.3671661814289919

>  <r_i_glide_metal>  (1) 
-0

>  <r_i_glide_rewards>  (1) 
-1.9844737937679053

>  <r_lp_Energy>  (1) 
29.727612999999998

>  <r_lp_tautomer_probability>  (1) 
1

>  <s_epik_cmdline>  (1) 
J2VwaWtfcHl0aG9uJywgJy1waHQnLCAnMS4wJywgJy1waCcsICc3LjQnLCAnLXRuJywgJzgnLCAnLW1hJywgJzUwMCcsICctaW1hZScsICc8aW5maWxlLm1hZT4nLCAnLW9tYWUnLCAnPG91dGZpbGUubWFlPic=

>  <s_epik_input>  (1) 
W09IXVtDSDJdW0NASF0oRilbQ0BASF0oW0NIMl0xKU9bQ0gyXVtDSDJdW0NASF0xYyhbY0hdMilbY0hdW2NIXWMoYzIzKW4obltjSF0zKVtDQEBIXShbQ0gyXVtDSDJdNClbQ0gyXVtDSDJdW0NAQEhdKE81KVtDQEhdNDU=

>  <s_glide_docking_method>  (1) 
confgen

>  <s_i_glide_gridfile>  (1) 
gpcr_drd2_6luq_protein_autoprepared_prepared

>  <s_lp_Force_Field>  (1) 
S-OPLS

>  <s_lp_Variant>  (1) 
DiffSBDD_45-2

>  <s_m_source_file>  (1) 
generated_generic_title2_ligand_DiffSBDD_2026-06-23_prepared.sdf

>  <GenAI_Model>  (1) 
DiffSBDD

>  <Protein>  (1) 
generic_title2

$$$$
DiffSBDD_39
     RDKit          3D

  0  0  0  0  0  0  0  0  0  0999 V3000
M  V30 BEGIN CTAB
M  V30 COUNTS 68 71 0 0 1
M  V30 BEGIN ATOM
M  V30 1 C 7.844793 6.041936 -15.043081 0
M  V30 2 F 15.029280 4.652170 -16.010468 0
M  V30 3 F 13.251738 3.735623 -16.839514 0
M  V30 4 C 11.514866 8.501969 -9.679646 0
M  V30 5 C 7.483977 6.460476 -12.550226 0
M  V30 6 C 6.576108 4.599159 -11.179844 0 CFG=1
M  V30 7 O 12.759326 8.398280 -9.015464 0
M  V30 8 C 12.020616 6.567189 -17.101499 0 CFG=2
M  V30 9 C 7.684092 3.191227 -14.688328 0
M  V30 10 C 8.709067 5.768812 -10.392417 0 CFG=2
M  V30 11 O 13.485050 7.989705 -18.430639 0
M  V30 12 C 7.991773 3.814776 -16.078039 0
M  V30 13 N 8.571484 5.189477 -16.021818 0 CFG=2 CHG=1
M  V30 14 C 14.398642 5.278658 -18.191048 0
M  V30 15 C 7.947451 5.459842 -13.631394 0 CFG=1
M  V30 16 C 10.061854 5.276989 -15.923829 0
M  V30 17 O 13.284317 5.720814 -18.973074 0
M  V30 18 C 7.046492 3.587645 -12.247181 0
M  V30 19 N 7.419894 5.842934 -11.184974 0 CFG=1 CHG=1
M  V30 20 C 10.690992 7.221771 -9.469950 0 CFG=1
M  V30 21 C 10.128807 7.101380 -8.055098 0
M  V30 22 C 10.725413 5.709789 -17.251718 0
M  V30 23 C 7.105211 4.179947 -13.657545 0 CFG=2
M  V30 24 C 12.634077 6.863280 -18.488287 0 CFG=1
M  V30 25 C 13.088204 5.978975 -16.189317 0
M  V30 26 C 9.549140 5.700496 -7.893166 0
M  V30 27 C 13.954959 4.866750 -16.774453 0
M  V30 28 O 13.245398 6.390253 -15.041769 0
M  V30 29 C 8.416757 5.435036 -8.894536 0
M  V30 30 O 5.375451 4.992549 -11.514893 0 CHG=-1
M  V30 31 C 9.564221 7.072796 -10.511531 0
M  V30 32 H 6.797496 6.105434 -15.347493 0
M  V30 33 H 8.175367 7.068496 -15.042308 0
M  V30 34 H 10.975132 9.385883 -9.341252 0
M  V30 35 H 11.723936 8.634376 -10.738511 0
M  V30 36 H 6.487787 6.826418 -12.809415 0
M  V30 37 H 8.098214 7.358076 -12.569132 0
M  V30 38 H 6.683769 4.077282 -10.236031 0
M  V30 39 H 13.272547 9.173726 -9.210645 0
M  V30 40 H 11.775316 7.528877 -16.656110 0
M  V30 41 H 6.996397 2.354772 -14.817444 0
M  V30 42 H 8.575409 2.748215 -14.265362 0
M  V30 43 H 9.310091 4.955919 -10.799522 0
M  V30 44 H 12.952617 8.764807 -18.293464 0
M  V30 45 H 7.054279 3.888699 -16.633683 0
M  V30 46 H 8.631703 3.155078 -16.666034 0
M  V30 47 H 15.162219 6.056609 -18.143540 0
M  V30 48 H 14.864569 4.431406 -18.694355 0
M  V30 49 H 8.983011 5.204506 -13.404635 0
M  V30 50 H 10.350905 5.990190 -15.155557 0
M  V30 51 H 10.489337 4.340021 -15.584583 0
M  V30 52 H 6.392144 2.713990 -12.247148 0
M  V30 53 H 8.039689 3.222010 -11.985125 0
M  V30 54 H 11.367636 6.390236 -9.584785 0
M  V30 55 H 10.910694 7.257348 -7.312025 0
M  V30 56 H 9.365870 7.858486 -7.873128 0
M  V30 57 H 10.918345 4.825408 -17.859820 0
M  V30 58 H 10.011864 6.303897 -17.824806 0
M  V30 59 H 6.085920 4.425096 -13.963177 0
M  V30 60 H 11.855421 7.109150 -19.210469 0
M  V30 61 H 10.337265 4.957337 -8.011366 0
M  V30 62 H 9.165625 5.589500 -6.878853 0
M  V30 63 H 8.143870 4.391870 -8.769637 0
M  V30 64 H 7.549080 5.990216 -8.563543 0
M  V30 65 H 8.943516 7.960959 -10.429574 0
M  V30 66 H 10.016704 7.113797 -11.502688 0
M  V30 67 H 8.363896 5.590743 -16.925802 0
M  V30 68 H 6.892387 6.515851 -10.628403 0
M  V30 END ATOM
M  V30 BEGIN BOND
M  V30 1 1 7 4
M  V30 2 1 12 9
M  V30 3 1 13 1
M  V30 4 1 13 12
M  V30 5 1 15 1
M  V30 6 1 15 5
M  V30 7 1 16 13
M  V30 8 1 17 14
M  V30 9 1 18 6
M  V30 10 1 19 5
M  V30 11 1 19 6
M  V30 12 1 19 10
M  V30 13 1 20 4
M  V30 14 1 21 20
M  V30 15 1 22 8
M  V30 16 1 22 16
M  V30 17 1 23 9
M  V30 18 1 23 15
M  V30 19 1 23 18
M  V30 20 1 24 8
M  V30 21 1 24 11
M  V30 22 1 24 17
M  V30 23 1 25 8
M  V30 24 1 26 21
M  V30 25 1 27 2
M  V30 26 1 27 3
M  V30 27 1 27 14
M  V30 28 1 27 25
M  V30 29 2 28 25
M  V30 30 1 29 10
M  V30 31 1 29 26
M  V30 32 1 30 6
M  V30 33 1 31 10
M  V30 34 1 31 20
M  V30 35 1 32 1
M  V30 36 1 33 1
M  V30 37 1 34 4
M  V30 38 1 35 4
M  V30 39 1 36 5
M  V30 40 1 37 5
M  V30 41 1 6 38 CFG=1
M  V30 42 1 39 7
M  V30 43 1 8 40 CFG=1
M  V30 44 1 41 9
M  V30 45 1 42 9
M  V30 46 1 10 43 CFG=3
M  V30 47 1 44 11
M  V30 48 1 45 12
M  V30 49 1 46 12
M  V30 50 1 47 14
M  V30 51 1 48 14
M  V30 52 1 15 49 CFG=1
M  V30 53 1 50 16
M  V30 54 1 51 16
M  V30 55 1 52 18
M  V30 56 1 53 18
M  V30 57 1 20 54 CFG=3
M  V30 58 1 55 21
M  V30 59 1 56 21
M  V30 60 1 57 22
M  V30 61 1 58 22
M  V30 62 1 23 59 CFG=3
M  V30 63 1 24 60 CFG=3
M  V30 64 1 61 26
M  V30 65 1 62 26
M  V30 66 1 63 29
M  V30 67 1 64 29
M  V30 68 1 65 31
M  V30 69 1 66 31
M  V30 70 1 13 67 CFG=3
M  V30 71 1 19 68 CFG=1
M  V30 END BOND
M  V30 END CTAB
M  END
>  <i_epik_Tot_Q>  (1) 
1

>  <i_epik_Tot_abs_Q>  (1) 
3

>  <i_i_glide_confnum>  (1) 
11

>  <i_i_glide_lignum>  (1) 
106

>  <i_i_glide_posenum>  (1) 
230

>  <i_i_glide_rotatable_bonds>  (1) 
7

>  <i_lp_mmshare_version>  (1) 
72125

>  <i_m_source_file_index>  (1) 
40

>  <i_f3d_flags>  (1) 
0

>  <num_sample>  (1) 
50

>  <b_lp_Chiralities_Consistent>  (1) 
1

>  <r_epik_Charging_Adjusted_Penalty>  (1) 
0.43569023002306473

>  <r_epik_Ionization_Penalty>  (1) 
0.17475065349743213

>  <r_epik_Ionization_Penalty_Charging>  (1) 
0.17468327186895813

>  <r_epik_Ionization_Penalty_Neutral>  (1) 
6.7381628474014066e-05

>  <r_epik_State_Penalty>  (1) 
0.26100695815410663

>  <r_glide_ring_energy>  (1) 
1.2534239858202354

>  <r_i_docking_score>  (1) 
-5.1754977052550961

>  <r_i_glide_ecoul>  (1) 
-10.095292409715523

>  <r_i_glide_eff_state_penalty>  (1) 
0.26100695815410663

>  <r_i_glide_einternal>  (1) 
6.3559223560569169

>  <r_i_glide_emodel>  (1) 
-36.597885220971229

>  <r_i_glide_emodel_strain>  (1) 
3.2644966063033962

>  <r_i_glide_energy>  (1) 
-32.005259229091308

>  <r_i_glide_erotb>  (1) 
0.49989103335302049

>  <r_i_glide_esite>  (1) 
-0.096011664377451705

>  <r_i_glide_evdw>  (1) 
-21.909966819375786

>  <r_i_glide_gscore>  (1) 
-5.4365046634092025

>  <r_i_glide_gscore_strain>  (1) 
0

>  <r_i_glide_hbond>  (1) 
-0.70883060400583964

>  <r_i_glide_ligand_efficiency>  (1) 
-0.16695153887919664

>  <r_i_glide_ligand_efficiency_ln>  (1) 
-1.167233342491355

>  <r_i_glide_ligand_efficiency_sa>  (1) 
-0.52445833412207787

>  <r_i_glide_lipo>  (1) 
-1.2158280550024074

>  <r_i_glide_metal>  (1) 
-0

>  <r_i_glide_rewards>  (1) 
-1.3059331709504072

>  <r_lp_Energy>  (1) 
53.105624999999996

>  <r_lp_tautomer_probability>  (1) 
0.99995000000000001

>  <s_epik_Chemistry_Notes>  (1) 
This compound contains an acetal/aminal-like group ( X-CH(R)-Y where X, Y are N, S, or O) that may be acid/base labile, releasing an aldehyde.

>  <s_epik_cmdline>  (1) 
J2VwaWtfcHl0aG9uJywgJy1waHQnLCAnMS4wJywgJy1waCcsICc3LjQnLCAnLXRuJywgJzgnLCAnLW1hJywgJzUwMCcsICctaW1hZScsICc8aW5maWxlLm1hZT4nLCAnLW9tYWUnLCAnPG91dGZpbGUubWFlPic=

>  <s_epik_input>  (1) 
RkMxKEYpW0NIMl1PW0NASF0oW09IXSlbQ0BIXShDMT1PKVtDSDJdW0NIMl1OKFtDSDJdMilbQ0gyXVtDSDJdW0NASF0oW0NAQEhdMjMpW0NIMl1bQ0BIXShbT0hdKU4oW0NIMl0zKVtDQEBIXTRbQ0gyXVtDSDJdW0NIMl1bQ0BASF0oW0NIMl00KVtDSDJdW09IXQ==

>  <s_glide_docking_method>  (1) 
confgen

>  <s_i_glide_gridfile>  (1) 
gpcr_drd2_6luq_protein_autoprepared_prepared

>  <s_lp_Force_Field>  (1) 
S-OPLS

>  <s_lp_Variant>  (1) 
DiffSBDD_39-2

>  <s_m_source_file>  (1) 
generated_generic_title2_ligand_DiffSBDD_2026-06-23_prepared.sdf

>  <GenAI_Model>  (1) 
DiffSBDD

>  <Protein>  (1) 
generic_title2

$$$$
DiffSBDD_0
     RDKit          3D

  0  0  0  0  0  0  0  0  0  0999 V3000
M  V30 BEGIN CTAB
M  V30 COUNTS 70 74 0 0 1
M  V30 BEGIN ATOM
M  V30 1 C 11.592318 8.953445 -6.500660 0
M  V30 2 N 7.749655 4.023793 -13.256467 0
M  V30 3 C 7.523080 5.420188 -17.275057 0 CFG=1
M  V30 4 C 9.111223 4.112338 -11.193185 0
M  V30 5 F 12.228399 8.590001 -10.105329 0
M  V30 6 C 7.460892 5.462907 -13.399887 0
M  V30 7 C 10.331197 8.086972 -6.436472 0
M  V30 8 C 9.101321 5.763905 -9.516120 0
M  V30 9 C 10.148589 8.154635 -9.013612 0 CFG=1
M  V30 10 C 10.058133 4.680167 -17.691582 0
M  V30 11 C 7.205943 3.189281 -14.336303 0 CFG=1
M  V30 12 C 6.975420 -0.133282 -12.930347 0
M  V30 13 C 8.669348 4.963122 -18.178639 0 CFG=1
M  V30 14 O 8.823742 5.409054 -10.870304 0
M  V30 15 C 11.516427 8.906993 -9.024701 0 CFG=1
M  V30 16 C 7.482941 4.055636 -17.934575 0 CFG=1
M  V30 17 N 7.440589 5.047148 -15.841625 0 CFG=1 CHG=1
M  V30 18 C 10.340062 6.680710 -9.432471 0
M  V30 19 C 6.426638 1.234358 -13.306029 0
M  V30 20 C 7.887709 3.665091 -15.620695 0 CFG=2
M  V30 21 O 6.175409 -0.801598 -11.985031 0
M  V30 22 C 9.425244 8.325876 -7.651037 0
M  V30 23 N 10.800118 5.590225 -16.998536 0
M  V30 24 C 7.919072 5.971918 -14.794178 0
M  V30 25 N 10.660023 3.521116 -17.962954 0
M  V30 26 O 11.953229 3.680055 -17.440877 0
M  V30 27 C 11.940337 4.920787 -16.921843 0
M  V30 28 O 7.382135 1.823973 -14.182484 0
M  V30 29 N 13.146089 5.331419 -16.384999 0
M  V30 30 C 8.611859 3.486801 -12.282115 0
M  V30 31 C 12.372872 8.625373 -7.777777 0
M  V30 32 C 13.531809 6.567953 -15.735024 0
M  V30 33 C 7.514168 2.934886 -16.908453 0
M  V30 34 H 11.323639 10.009426 -6.485437 0
M  V30 35 H 12.203651 8.790229 -5.615582 0
M  V30 36 H 6.810972 6.176238 -17.600117 0
M  V30 37 H 9.775351 3.643146 -10.481874 0
M  V30 38 H 6.383171 5.597253 -13.294931 0
M  V30 39 H 7.905007 6.117674 -12.663581 0
M  V30 40 H 9.775403 8.307610 -5.529788 0
M  V30 41 H 10.602820 7.032127 -6.379764 0
M  V30 42 H 8.209578 6.224356 -9.110112 0
M  V30 43 H 9.250687 4.893418 -8.873274 0
M  V30 44 H 9.510454 8.604255 -9.775931 0
M  V30 45 H 6.133696 3.383792 -14.384895 0
M  V30 46 H 7.973451 -0.009653 -12.508887 0
M  V30 47 H 7.062584 -0.755304 -13.822396 0
M  V30 48 H 8.731007 5.437888 -19.156379 0
M  V30 49 H 11.375372 9.983387 -9.114023 0
M  V30 50 H 6.814529 3.904104 -18.780250 0
M  V30 51 H 11.055228 6.214615 -8.758876 0
M  V30 52 H 10.796010 6.702213 -10.422199 0
M  V30 53 H 5.456860 1.147962 -13.797747 0
M  V30 54 H 6.287622 1.830811 -12.402314 0
M  V30 55 H 8.969740 3.632369 -15.486003 0
M  V30 56 H 5.620435 -1.407928 -12.482439 0
M  V30 57 H 8.990339 9.320751 -7.586215 0
M  V30 58 H 8.575429 7.655786 -7.568164 0
M  V30 59 H 7.550235 6.981944 -14.971841 0
M  V30 60 H 9.004535 5.990217 -14.837442 0
M  V30 61 H 13.884241 4.644833 -16.433303 0
M  V30 62 H 8.868824 2.454670 -12.472425 0
M  V30 63 H 13.302404 9.190126 -7.811559 0
M  V30 64 H 12.671238 7.579872 -7.762087 0
M  V30 65 H 14.381959 6.390184 -15.075398 0
M  V30 66 H 13.814482 7.317046 -16.475236 0
M  V30 67 H 12.708645 6.962885 -15.139070 0
M  V30 68 H 6.547850 2.442267 -16.847783 0
M  V30 69 H 8.251414 2.177691 -17.177436 0
M  V30 70 H 6.444298 5.007226 -15.683232 0
M  V30 END ATOM
M  V30 BEGIN BOND
M  V30 1 1 6 2
M  V30 2 1 7 1
M  V30 3 1 11 2
M  V30 4 1 13 3
M  V30 5 1 13 10
M  V30 6 1 14 4
M  V30 7 1 14 8
M  V30 8 1 15 5
M  V30 9 1 15 9
M  V30 10 1 16 3
M  V30 11 1 16 13
M  V30 12 1 17 3
M  V30 13 1 18 8
M  V30 14 1 18 9
M  V30 15 1 19 12
M  V30 16 1 20 11
M  V30 17 1 20 17
M  V30 18 1 21 12
M  V30 19 1 22 7
M  V30 20 1 22 9
M  V30 21 1 23 10
M  V30 22 1 24 6
M  V30 23 1 24 17
M  V30 24 2 25 10
M  V30 25 1 26 25
M  V30 26 2 27 23
M  V30 27 1 27 26
M  V30 28 1 28 11
M  V30 29 1 28 19
M  V30 30 1 29 27
M  V30 31 1 30 2
M  V30 32 2 30 4
M  V30 33 1 31 1
M  V30 34 1 31 15
M  V30 35 1 32 29
M  V30 36 1 33 16
M  V30 37 1 33 20
M  V30 38 1 34 1
M  V30 39 1 35 1
M  V30 40 1 3 36 CFG=3
M  V30 41 1 37 4
M  V30 42 1 38 6
M  V30 43 1 39 6
M  V30 44 1 40 7
M  V30 45 1 41 7
M  V30 46 1 42 8
M  V30 47 1 43 8
M  V30 48 1 9 44 CFG=3
M  V30 49 1 11 45 CFG=3
M  V30 50 1 46 12
M  V30 51 1 47 12
M  V30 52 1 13 48 CFG=3
M  V30 53 1 15 49 CFG=3
M  V30 54 1 16 50 CFG=3
M  V30 55 1 51 18
M  V30 56 1 52 18
M  V30 57 1 53 19
M  V30 58 1 54 19
M  V30 59 1 20 55 CFG=1
M  V30 60 1 56 21
M  V30 61 1 57 22
M  V30 62 1 58 22
M  V30 63 1 59 24
M  V30 64 1 60 24
M  V30 65 1 61 29
M  V30 66 1 62 30
M  V30 67 1 63 31
M  V30 68 1 64 31
M  V30 69 1 65 32
M  V30 70 1 66 32
M  V30 71 1 67 32
M  V30 72 1 68 33
M  V30 73 1 69 33
M  V30 74 1 17 70 CFG=1
M  V30 END BOND
M  V30 END CTAB
M  END
>  <i_epik_Tot_Q>  (1) 
1

>  <i_epik_Tot_abs_Q>  (1) 
1

>  <i_i_glide_confnum>  (1) 
163

>  <i_i_glide_lignum>  (1) 
16

>  <i_i_glide_posenum>  (1) 
199

>  <i_i_glide_rotatable_bonds>  (1) 
11

>  <i_lp_mmshare_version>  (1) 
72125

>  <i_m_source_file_index>  (1) 
1

>  <i_f3d_flags>  (1) 
0

>  <num_sample>  (1) 
50

>  <b_lp_Chiralities_Consistent>  (1) 
1

>  <r_epik_Charging_Adjusted_Penalty>  (1) 
0.41344222577729461

>  <r_epik_Ionization_Penalty>  (1) 
0.0027644559619576371

>  <r_epik_Ionization_Penalty_Charging>  (1) 
0.0027623868246906495

>  <r_epik_Ionization_Penalty_Neutral>  (1) 
2.0691372669875143e-06

>  <r_epik_State_Penalty>  (1) 
0.41067983895260396

>  <r_glide_ring_energy>  (1) 
1.6783687507503939

>  <r_i_docking_score>  (1) 
-5.1752354598503212

>  <r_i_glide_ecoul>  (1) 
-3.3102970997612271

>  <r_i_glide_eff_state_penalty>  (1) 
0.41067983895260396

>  <r_i_glide_einternal>  (1) 
10.706458392567328

>  <r_i_glide_emodel>  (1) 
-44.660174703589469

>  <r_i_glide_emodel_strain>  (1) 
0.82411246451280817

>  <r_i_glide_energy>  (1) 
-37.25581859013235

>  <r_i_glide_erotb>  (1) 
0.74142510397790429

>  <r_i_glide_esite>  (1) 
0

>  <r_i_glide_evdw>  (1) 
-33.945521490371121

>  <r_i_glide_gscore>  (1) 
-5.5859152988029255

>  <r_i_glide_gscore_strain>  (1) 
0

>  <r_i_glide_hbond>  (1) 
-0.16

>  <r_i_glide_ligand_efficiency>  (1) 
-0.15682531696516125

>  <r_i_glide_ligand_efficiency_ln>  (1) 
-1.150945570335588

>  <r_i_glide_ligand_efficiency_sa>  (1) 
-0.50302258797823163

>  <r_i_glide_lipo>  (1) 
-2.3584722206743587

>  <r_i_glide_metal>  (1) 
-0

>  <r_i_glide_rewards>  (1) 
-1.6150475426237307

>  <r_lp_Energy>  (1) 
50.173428000000001

>  <r_lp_tautomer_probability>  (1) 
0.5

>  <s_epik_Chemistry_Notes>  (1) 
This compound has an imine and may undergo hydrolysis. This compound contains an acetal/aminal-like group ( X-CH(R)-Y where X, Y are N, S, or O) that may be acid/base labile, releasing an aldehyde.

>  <s_epik_cmdline>  (1) 
J2VwaWtfcHl0aG9uJywgJy1waHQnLCAnMS4wJywgJy1waCcsICc3LjQnLCAnLXRuJywgJzgnLCAnLW1hJywgJzUwMCcsICctaW1hZScsICc8aW5maWxlLm1hZT4nLCAnLW9tYWUnLCAnPG91dGZpbGUubWFlPic=

>  <s_epik_input>  (1) 
W0NIMl0xW0NIMl1bQ0gyXVtDSDJdW0NASF0oRilbQ0BIXTFbQ0gyXVtDSDJdTy9bQ0hdPVtDSF1cTihbQ0BIXTJPW0NIMl1bQ0gyXVtPSF0pW0NIMl1bQ0gyXU4zW0NAQEhdMltDSDJdW0NAQEhdKFtDQEBIXTM0KVtDQEBIXTRjNW5jKG9uNSlbTkhdW0NIM10=

>  <s_glide_docking_method>  (1) 
confgen

>  <s_i_glide_gridfile>  (1) 
gpcr_drd2_6luq_protein_autoprepared_prepared

>  <s_lp_Force_Field>  (1) 
S-OPLS

>  <s_lp_Variant>  (1) 
DiffSBDD_0-16

>  <s_m_source_file>  (1) 
generated_generic_title2_ligand_DiffSBDD_2026-06-23_prepared.sdf

>  <GenAI_Model>  (1) 
DiffSBDD

>  <Protein>  (1) 
generic_title2

$$$$
DiffSBDD_38
     RDKit          3D

  0  0  0  0  0  0  0  0  0  0999 V3000
M  V30 BEGIN CTAB
M  V30 COUNTS 55 57 0 0 1
M  V30 BEGIN ATOM
M  V30 1 C 8.867857 8.280218 -11.636174 0
M  V30 2 C 10.424078 7.246445 -8.695014 0
M  V30 3 N 9.832221 6.739841 -9.932081 0
M  V30 4 C 5.604336 7.085203 -15.229908 0 CFG=2
M  V30 5 C 4.682280 7.695631 -16.269861 0 CFG=1
M  V30 6 C 6.175248 7.860368 -16.385060 0
M  V30 7 C 7.804308 7.478416 -12.385093 0
M  V30 8 C 6.326511 5.414302 -12.666223 0
M  V30 9 C 7.074045 3.586311 -14.272815 0
M  V30 10 C 10.042941 6.834685 -7.451066 0
M  V30 11 C 11.544731 8.271575 -8.902993 0
M  V30 12 C 6.811610 5.092015 -14.104876 0 CFG=1
M  V30 13 C 11.552399 8.590719 -6.397348 0
M  V30 14 C 7.341532 6.135782 -11.767904 0 CFG=1
M  V30 15 C 5.778182 5.584370 -15.125170 0
M  V30 16 C 10.097366 7.469387 -11.202827 0
M  V30 17 C 12.410535 8.399815 -7.651962 0
M  V30 18 C 8.479136 5.194588 -11.337827 0
M  V30 19 C 3.912157 6.856008 -17.270034 0
M  V30 20 C 10.668959 7.354633 -6.167565 0
M  V30 21 C 9.066371 5.590168 -9.974245 0
M  V30 22 O 8.848557 4.871549 -9.003044 0
M  V30 23 H 9.188011 9.073913 -12.311376 0
M  V30 24 H 8.433028 8.796675 -10.785024 0
M  V30 25 H 5.572300 7.590709 -14.270445 0
M  V30 26 H 4.129801 8.570264 -15.933569 0
M  V30 27 H 6.575415 8.843868 -16.167253 0
M  V30 28 H 6.674496 7.305827 -17.177042 0
M  V30 29 H 8.175364 7.348334 -13.396819 0
M  V30 30 H 6.928693 8.113533 -12.469853 0
M  V30 31 H 5.988783 4.502035 -12.172588 0
M  V30 32 H 5.427543 6.029959 -12.690684 0
M  V30 33 H 6.175552 2.998628 -14.085258 0
M  V30 34 H 7.416285 3.355903 -15.282288 0
M  V30 35 H 7.844520 3.242633 -13.581965 0
M  V30 36 H 9.255809 6.126248 -7.314474 0
M  V30 37 H 12.236089 7.957272 -9.684918 0
M  V30 38 H 11.117735 9.240589 -9.166002 0
M  V30 39 H 7.758836 5.571423 -14.336843 0
M  V30 40 H 12.175207 8.779937 -5.522475 0
M  V30 41 H 10.924626 9.474097 -6.520989 0
M  V30 42 H 6.775823 6.379287 -10.869244 0
M  V30 43 H 5.997377 5.190221 -16.115851 0
M  V30 44 H 4.834444 5.190235 -14.785019 0
M  V30 45 H 10.902665 8.184893 -11.184991 0
M  V30 46 H 10.429438 6.800952 -11.995736 0
M  V30 47 H 12.977466 7.476022 -7.584984 0
M  V30 48 H 13.146712 9.190208 -7.759665 0
M  V30 49 H 9.235632 5.068119 -12.110986 0
M  V30 50 H 8.072478 4.191629 -11.201537 0
M  V30 51 H 4.542839 6.080245 -17.703045 0
M  V30 52 H 3.058136 6.383510 -16.785031 0
M  V30 53 H 3.542701 7.487960 -18.077891 0
M  V30 54 H 9.875614 7.590224 -5.458625 0
M  V30 55 H 11.253963 6.544649 -5.730632 0
M  V30 END ATOM
M  V30 BEGIN BOND
M  V30 1 1 3 2
M  V30 2 1 5 4
M  V30 3 1 6 4
M  V30 4 1 6 5
M  V30 5 1 7 1
M  V30 6 2 10 2
M  V30 7 1 11 2
M  V30 8 1 12 8
M  V30 9 1 12 9
M  V30 10 1 14 7
M  V30 11 1 14 8
M  V30 12 1 15 4
M  V30 13 1 15 12
M  V30 14 1 16 1
M  V30 15 1 16 3
M  V30 16 1 17 11
M  V30 17 1 17 13
M  V30 18 1 18 14
M  V30 19 1 19 5
M  V30 20 1 20 10
M  V30 21 1 20 13
M  V30 22 1 21 3
M  V30 23 1 21 18
M  V30 24 2 22 21
M  V30 25 1 23 1
M  V30 26 1 24 1
M  V30 27 1 4 25 CFG=1
M  V30 28 1 5 26 CFG=1
M  V30 29 1 27 6
M  V30 30 1 28 6
M  V30 31 1 29 7
M  V30 32 1 30 7
M  V30 33 1 31 8
M  V30 34 1 32 8
M  V30 35 1 33 9
M  V30 36 1 34 9
M  V30 37 1 35 9
M  V30 38 1 36 10
M  V30 39 1 37 11
M  V30 40 1 38 11
M  V30 41 1 12 39 CFG=3
M  V30 42 1 40 13
M  V30 43 1 41 13
M  V30 44 1 14 42 CFG=1
M  V30 45 1 43 15
M  V30 46 1 44 15
M  V30 47 1 45 16
M  V30 48 1 46 16
M  V30 49 1 47 17
M  V30 50 1 48 17
M  V30 51 1 49 18
M  V30 52 1 50 18
M  V30 53 1 51 19
M  V30 54 1 52 19
M  V30 55 1 53 19
M  V30 56 1 54 20
M  V30 57 1 55 20
M  V30 END BOND
M  V30 END CTAB
M  END
>  <i_epik_Tot_Q>  (1) 
0

>  <i_epik_Tot_abs_Q>  (1) 
0

>  <i_i_glide_confnum>  (1) 
314

>  <i_i_glide_lignum>  (1) 
104

>  <i_i_glide_posenum>  (1) 
321

>  <i_i_glide_rotatable_bonds>  (1) 
5

>  <i_lp_mmshare_version>  (1) 
72125

>  <i_m_source_file_index>  (1) 
39

>  <i_f3d_flags>  (1) 
0

>  <num_sample>  (1) 
50

>  <b_lp_Chiralities_Consistent>  (1) 
1

>  <r_epik_Charging_Adjusted_Penalty>  (1) 
0

>  <r_epik_Ionization_Penalty>  (1) 
3.750095861585333e-08

>  <r_epik_Ionization_Penalty_Charging>  (1) 
0

>  <r_epik_Ionization_Penalty_Neutral>  (1) 
3.750095861585333e-08

>  <r_epik_State_Penalty>  (1) 
-0

>  <r_glide_ring_energy>  (1) 
0.00030315173059249431

>  <r_i_docking_score>  (1) 
-5.1687792644499115

>  <r_i_glide_ecoul>  (1) 
-0.11656553809006875

>  <r_i_glide_eff_state_penalty>  (1) 
-0

>  <r_i_glide_einternal>  (1) 
8.3299252040027838

>  <r_i_glide_emodel>  (1) 
-33.354728493879882

>  <r_i_glide_emodel_strain>  (1) 
0.031252538190379653

>  <r_i_glide_energy>  (1) 
-29.975462190795174

>  <r_i_glide_erotb>  (1) 
1.0003538244760346

>  <r_i_glide_esite>  (1) 
-0.14454786280521992

>  <r_i_glide_evdw>  (1) 
-29.858896652705106

>  <r_i_glide_gscore>  (1) 
-5.1687792644499115

>  <r_i_glide_gscore_strain>  (1) 
0

>  <r_i_glide_hbond>  (1) 
0

>  <r_i_glide_ligand_efficiency>  (1) 
-0.23494451202045052

>  <r_i_glide_ligand_efficiency_ln>  (1) 
-1.2634381880361292

>  <r_i_glide_ligand_efficiency_sa>  (1) 
-0.65832376320293984

>  <r_i_glide_lipo>  (1) 
-2.2743290400446865

>  <r_i_glide_metal>  (1) 
-0

>  <r_i_glide_rewards>  (1) 
-2.2398265227272738

>  <r_lp_Energy>  (1) 
35.882517999999997

>  <r_lp_tautomer_probability>  (1) 
1

>  <s_epik_cmdline>  (1) 
J2VwaWtfcHl0aG9uJywgJy1waHQnLCAnMS4wJywgJy1waCcsICc3LjQnLCAnLXRuJywgJzgnLCAnLW1hJywgJzUwMCcsICctaW1hZScsICc8aW5maWxlLm1hZT4nLCAnLW9tYWUnLCAnPG91dGZpbGUubWFlPic=

>  <s_epik_input>  (1) 
W0NIMl0xW0NIMl1bQ0gyXVtDSDJdW0NIXT1DMU4yW0NIMl1bQ0gyXVtDSDJdW0NASF0oW0NIMl1DMj1PKVtDSDJdW0NASF0oW0NIM10pW0NIMl1bQ0BASF0zW0NAQEhdKFtDSDJdMylbQ0gzXQ==

>  <s_glide_docking_method>  (1) 
confgen

>  <s_i_glide_gridfile>  (1) 
gpcr_drd2_6luq_protein_autoprepared_prepared

>  <s_lp_Force_Field>  (1) 
S-OPLS

>  <s_lp_Variant>  (1) 
DiffSBDD_38-2

>  <s_m_source_file>  (1) 
generated_generic_title2_ligand_DiffSBDD_2026-06-23_prepared.sdf

>  <GenAI_Model>  (1) 
DiffSBDD

>  <Protein>  (1) 
generic_title2

$$$$
DiffSBDD_12
     RDKit          3D

  0  0  0  0  0  0  0  0  0  0999 V3000
M  V30 BEGIN CTAB
M  V30 COUNTS 55 56 0 0 1
M  V30 BEGIN ATOM
M  V30 1 C 6.982605 5.799580 -18.839283 0 CFG=2
M  V30 2 C 10.311795 7.522904 -6.048822 0 CFG=2
M  V30 3 C 11.254382 8.619042 -6.571315 0
M  V30 4 C 10.102305 6.802129 -8.469578 0
M  V30 5 C 11.147636 7.791434 -8.981253 0
M  V30 6 C 8.055850 6.267446 -12.890573 0
M  V30 7 C 4.843887 5.769051 -20.274294 0
M  V30 8 C 6.245476 6.361541 -20.067223 0
M  V30 9 C 11.005243 6.648980 -4.992651 0
M  V30 10 C 6.560984 6.111951 -14.939018 0
M  V30 11 C 9.403337 6.517649 -10.752517 0
M  V30 12 C 7.051222 5.397020 -13.669509 0 CFG=1
M  V30 13 C 8.988485 4.211161 -11.765779 0
M  V30 14 C 6.385226 6.251777 -17.496704 0
M  V30 15 C 7.630944 3.984990 -13.901656 0
M  V30 16 C 7.093279 5.611049 -16.289172 0
M  V30 17 C 8.006422 3.336597 -12.563790 0
M  V30 18 O 9.547502 5.992504 -9.435348 0
M  V30 19 F 8.248854 6.213509 -18.892761 0
M  V30 20 C 9.738679 6.679416 -7.182403 0
M  V30 21 C 12.048065 8.310142 -7.843665 0
M  V30 22 O 5.775410 7.056103 -14.872176 0
M  V30 23 O 11.375405 9.693833 -5.985048 0
M  V30 24 C 8.425088 5.629381 -11.537634 0 CFG=2
M  V30 25 H 7.016677 4.710644 -18.893574 0
M  V30 26 H 9.467282 8.030778 -5.585029 0
M  V30 27 H 11.782336 7.316829 -9.728954 0
M  V30 28 H 10.645122 8.633756 -9.458371 0
M  V30 29 H 7.643890 7.265044 -12.726792 0
M  V30 30 H 8.961804 6.390225 -13.483112 0
M  V30 31 H 4.391496 6.161386 -21.185347 0
M  V30 32 H 4.883299 4.683300 -20.365930 0
M  V30 33 H 4.176103 6.011628 -19.448154 0
M  V30 34 H 6.180455 7.447925 -19.994108 0
M  V30 35 H 6.839665 6.154405 -20.958263 0
M  V30 36 H 11.775428 6.019110 -5.440004 0
M  V30 37 H 11.475288 7.253526 -4.216269 0
M  V30 38 H 10.286626 5.992196 -4.502022 0
M  V30 39 H 9.001315 7.531336 -10.704816 0
M  V30 40 H 10.360127 6.559205 -11.273539 0
M  V30 41 H 6.164224 5.285157 -13.044667 0
M  V30 42 H 9.937486 4.270457 -12.300838 0
M  V30 43 H 9.208318 3.736045 -10.809166 0
M  V30 44 H 5.327622 5.990356 -17.456702 0
M  V30 45 H 6.434854 7.338831 -17.427845 0
M  V30 46 H 8.518984 4.032970 -14.533781 0
M  V30 47 H 6.905892 3.351867 -14.414952 0
M  V30 48 H 8.162761 5.817590 -16.328695 0
M  V30 49 H 6.975445 4.530033 -16.349633 0
M  V30 50 H 8.437432 2.348510 -12.730891 0
M  V30 51 H 7.094700 3.190234 -11.985029 0
M  V30 52 H 8.994322 5.946198 -6.908476 0
M  V30 53 H 12.786821 7.551771 -7.588523 0
M  V30 54 H 12.601075 9.190224 -8.167483 0
M  V30 55 H 7.511316 5.549191 -10.945672 0
M  V30 END ATOM
M  V30 BEGIN BOND
M  V30 1 1 3 2
M  V30 2 1 5 4
M  V30 3 1 8 1
M  V30 4 1 8 7
M  V30 5 1 9 2
M  V30 6 1 12 6
M  V30 7 1 12 10
M  V30 8 1 14 1
M  V30 9 1 15 12
M  V30 10 1 16 10
M  V30 11 1 16 14
M  V30 12 1 17 13
M  V30 13 1 17 15
M  V30 14 1 18 4
M  V30 15 1 18 11
M  V30 16 1 19 1
M  V30 17 1 20 2
M  V30 18 2 20 4
M  V30 19 1 21 3
M  V30 20 1 21 5
M  V30 21 2 22 10
M  V30 22 2 23 3
M  V30 23 1 24 6
M  V30 24 1 24 11
M  V30 25 1 24 13
M  V30 26 1 1 25 CFG=3
M  V30 27 1 2 26 CFG=1
M  V30 28 1 27 5
M  V30 29 1 28 5
M  V30 30 1 29 6
M  V30 31 1 30 6
M  V30 32 1 31 7
M  V30 33 1 32 7
M  V30 34 1 33 7
M  V30 35 1 34 8
M  V30 36 1 35 8
M  V30 37 1 36 9
M  V30 38 1 37 9
M  V30 39 1 38 9
M  V30 40 1 39 11
M  V30 41 1 40 11
M  V30 42 1 12 41 CFG=1
M  V30 43 1 42 13
M  V30 44 1 43 13
M  V30 45 1 44 14
M  V30 46 1 45 14
M  V30 47 1 46 15
M  V30 48 1 47 15
M  V30 49 1 48 16
M  V30 50 1 49 16
M  V30 51 1 50 17
M  V30 52 1 51 17
M  V30 53 1 52 20
M  V30 54 1 53 21
M  V30 55 1 54 21
M  V30 56 1 24 55 CFG=1
M  V30 END BOND
M  V30 END CTAB
M  END
>  <i_epik_Tot_Q>  (1) 
0

>  <i_epik_Tot_abs_Q>  (1) 
0

>  <i_i_glide_confnum>  (1) 
210

>  <i_i_glide_lignum>  (1) 
49

>  <i_i_glide_posenum>  (1) 
175

>  <i_i_glide_rotatable_bonds>  (1) 
8

>  <i_lp_mmshare_version>  (1) 
72125

>  <i_m_source_file_index>  (1) 
13

>  <i_f3d_flags>  (1) 
0

>  <num_sample>  (1) 
50

>  <b_lp_Chiralities_Consistent>  (1) 
1

>  <r_epik_Charging_Adjusted_Penalty>  (1) 
0

>  <r_epik_Ionization_Penalty>  (1) 
4.1955247269604324e-12

>  <r_epik_Ionization_Penalty_Charging>  (1) 
0

>  <r_epik_Ionization_Penalty_Neutral>  (1) 
4.1955247269604324e-12

>  <r_epik_State_Penalty>  (1) 
-0

>  <r_glide_ring_energy>  (1) 
0

>  <r_i_docking_score>  (1) 
-5.165863458688766

>  <r_i_glide_ecoul>  (1) 
-0.68706045232225588

>  <r_i_glide_eff_state_penalty>  (1) 
-0

>  <r_i_glide_einternal>  (1) 
6.9786348287326536

>  <r_i_glide_emodel>  (1) 
-42.547893735565907

>  <r_i_glide_emodel_strain>  (1) 
0.33595666692651704

>  <r_i_glide_energy>  (1) 
-35.738064048378462

>  <r_i_glide_erotb>  (1) 
1.1556109002290837

>  <r_i_glide_esite>  (1) 
0

>  <r_i_glide_evdw>  (1) 
-35.051003596056205

>  <r_i_glide_gscore>  (1) 
-5.165863458688766

>  <r_i_glide_gscore_strain>  (1) 
0

>  <r_i_glide_hbond>  (1) 
0

>  <r_i_glide_ligand_efficiency>  (1) 
-0.21524431077869857

>  <r_i_glide_ligand_efficiency_ln>  (1) 
-1.236428171692215

>  <r_i_glide_ligand_efficiency_sa>  (1) 
-0.6208720294633846

>  <r_i_glide_lipo>  (1) 
-2.0574684123097207

>  <r_i_glide_metal>  (1) 
-0

>  <r_i_glide_rewards>  (1) 
-2.4083966989569801

>  <r_lp_Energy>  (1) 
10.280693999999999

>  <r_lp_tautomer_probability>  (1) 
1

>  <s_epik_cmdline>  (1) 
J2VwaWtfcHl0aG9uJywgJy1waHQnLCAnMS4wJywgJy1waCcsICc3LjQnLCAnLXRuJywgJzgnLCAnLW1hJywgJzUwMCcsICctaW1hZScsICc8aW5maWxlLm1hZT4nLCAnLW9tYWUnLCAnPG91dGZpbGUubWFlPic=

>  <s_epik_input>  (1) 
W0NIM11bQ0gyXVtDQEBIXShGKVtDSDJdW0NIMl1DKD1PKVtDQEBIXTFbQ0gyXVtDQEBIXShbQ0gyXVtDSDJdW0NIMl0xKVtDSDJdT0MoPVtDSF0yKVtDSDJdW0NIMl1DKD1PKVtDQEhdMltDSDNd

>  <s_glide_docking_method>  (1) 
confgen

>  <s_i_glide_gridfile>  (1) 
gpcr_drd2_6luq_protein_autoprepared_prepared

>  <s_lp_Force_Field>  (1) 
S-OPLS

>  <s_lp_Variant>  (1) 
DiffSBDD_12-2

>  <s_m_source_file>  (1) 
generated_generic_title2_ligand_DiffSBDD_2026-06-23_prepared.sdf

>  <GenAI_Model>  (1) 
DiffSBDD

>  <Protein>  (1) 
generic_title2

$$$$
DiffSBDD_28
     RDKit          3D

  0  0  0  0  0  0  0  0  0  0999 V3000
M  V30 BEGIN CTAB
M  V30 COUNTS 79 86 0 0 1
M  V30 BEGIN ATOM
M  V30 1 F 7.828010 -0.793158 -16.836861 0
M  V30 2 C 11.222567 7.285310 -7.454595 0 CFG=1
M  V30 3 C 9.442365 6.442099 -10.470082 0 CFG=2
M  V30 4 C 10.682429 8.652603 -5.157451 0 CFG=2
M  V30 5 C 8.721629 4.390392 -14.224216 0 CFG=1
M  V30 6 C 11.396570 6.031282 -6.593723 0
M  V30 7 C 7.712639 5.833319 -12.230558 0 CFG=2
M  V30 8 C 7.252180 2.251726 -16.650505 0 CFG=1
M  V30 9 C 9.626399 7.950946 -10.520239 0
M  V30 10 C 7.365971 3.790098 -14.554694 0 CFG=1
M  V30 11 C 12.333000 9.172750 -7.230750 0 CFG=1
M  V30 12 C 7.853042 4.824707 -9.913429 0
M  V30 13 C 11.260809 8.455633 -6.505450 0 CFG=1
M  V30 14 O 13.388367 9.590261 -6.384998 0
M  V30 15 C 8.741488 0.202000 -17.125545 0 CFG=1
M  V30 16 C 8.883939 5.364056 -13.087740 0 CFG=1
M  V30 17 O 9.229327 3.992316 -12.938902 0
M  V30 18 N 8.067938 5.990197 -10.784983 0 CFG=1 CHG=1
M  V30 19 O 12.479055 9.177984 -3.573857 0
M  V30 20 C 9.233451 0.136322 -18.522141 0
M  V30 21 O 10.061183 9.189818 -6.319936 0
M  V30 22 C 6.218747 4.629275 -13.934223 0
M  V30 23 C 12.468936 7.929895 -8.111346 0
M  V30 24 N 9.949421 7.225695 -8.213298 0
M  V30 25 C 11.292132 9.658634 -4.188369 0
M  V30 26 N 7.012428 2.546660 -18.086476 0 CHG=1
M  V30 27 C 6.453937 4.958020 -12.455350 0
M  V30 28 C 7.064060 4.007039 -18.306570 0
M  V30 29 C 7.541822 4.605576 -16.985159 0
M  V30 30 O 9.168031 1.128473 -19.248183 0
M  V30 31 C 8.511104 5.206564 -8.595346 0
M  V30 32 C 8.623612 1.568609 -16.442259 0
M  V30 33 O 10.083942 -0.192991 -17.584922 0
M  V30 34 N 7.118954 3.588352 -16.007747 0 CFG=1 CHG=1
M  V30 35 C 9.635946 8.381324 -9.057639 0
M  V30 36 C 12.257406 8.266515 -2.512043 0
M  V30 37 C 9.720614 6.036000 -9.021680 0 CFG=1
M  V30 38 H 10.176023 5.934498 -11.084610 0
M  V30 39 H 10.197469 7.760967 -4.785031 0
M  V30 40 H 9.486448 4.390812 -14.996671 0
M  V30 41 H 12.175444 6.136438 -5.842070 0
M  V30 42 H 10.477233 5.807607 -6.055218 0
M  V30 43 H 11.653363 5.161070 -7.184355 0
M  V30 44 H 7.478303 6.840447 -12.577781 0
M  V30 45 H 6.465633 1.596652 -16.272356 0
M  V30 46 H 8.864958 8.476395 -11.095282 0
M  V30 47 H 10.592628 8.180475 -10.967531 0
M  V30 48 H 7.325892 2.808431 -14.080039 0
M  V30 49 H 11.893519 9.990234 -7.783213 0
M  V30 50 H 8.370725 3.990355 -10.377092 0
M  V30 51 H 6.801708 4.573127 -9.778009 0
M  V30 52 H 14.056913 9.972687 -6.931969 0
M  V30 53 H 9.727186 6.043824 -13.184537 0
M  V30 54 H 5.280970 4.079862 -13.995453 0
M  V30 55 H 6.074288 5.559725 -14.485850 0
M  V30 56 H 12.413996 8.105904 -9.185256 0
M  V30 57 H 13.377024 7.412171 -7.840770 0
M  V30 58 H 11.551725 10.547544 -4.762874 0
M  V30 59 H 10.575532 9.990132 -3.443055 0
M  V30 60 H 6.110582 2.187918 -18.373414 0
M  V30 61 H 6.527486 4.002240 -11.937207 0
M  V30 62 H 5.579993 5.460596 -12.038535 0
M  V30 63 H 6.058908 4.356799 -18.543523 0
M  V30 64 H 7.713226 4.264135 -19.143692 0
M  V30 65 H 7.106079 5.586805 -16.787928 0
M  V30 66 H 8.627418 4.703356 -17.003815 0
M  V30 67 H 8.785104 4.344972 -7.988116 0
M  V30 68 H 7.821897 5.811998 -8.008307 0
M  V30 69 H 9.432968 2.220519 -16.780173 0
M  V30 70 H 8.779292 1.396701 -15.379437 0
M  V30 71 H 8.671403 8.790229 -8.758346 0
M  V30 72 H 10.335942 9.194243 -8.936053 0
M  V30 73 H 13.214710 8.001480 -2.063721 0
M  V30 74 H 11.637566 8.710614 -1.732046 0
M  V30 75 H 11.785451 7.348132 -2.859409 0
M  V30 76 H 10.575513 5.379554 -9.009444 0
M  V30 77 H 7.459876 6.704962 -10.364946 0
M  V30 78 H 7.730925 2.102673 -18.651471 0
M  V30 79 H 6.115575 3.698882 -16.017267 0
M  V30 END ATOM
M  V30 BEGIN BOND
M  V30 1 1 2 6 CFG=1
M  V30 2 1 9 3
M  V30 3 1 10 5
M  V30 4 1 13 2
M  V30 5 1 13 4
M  V30 6 1 13 11
M  V30 7 1 14 11
M  V30 8 1 15 1 CFG=3
M  V30 9 1 16 5
M  V30 10 1 16 7
M  V30 11 1 17 5
M  V30 12 1 17 16
M  V30 13 1 18 3
M  V30 14 1 18 7
M  V30 15 1 18 12
M  V30 16 1 20 15
M  V30 17 1 21 4
M  V30 18 1 13 21 CFG=3
M  V30 19 1 22 10
M  V30 20 1 23 2
M  V30 21 1 23 11
M  V30 22 1 24 2
M  V30 23 1 25 4
M  V30 24 1 25 19
M  V30 25 1 26 8
M  V30 26 1 27 7
M  V30 27 1 27 22
M  V30 28 1 28 26
M  V30 29 1 29 28
M  V30 30 2 30 20
M  V30 31 1 31 12
M  V30 32 1 32 8
M  V30 33 1 32 15
M  V30 34 1 33 15
M  V30 35 1 33 20
M  V30 36 1 34 8
M  V30 37 1 34 10
M  V30 38 1 34 29
M  V30 39 1 35 9
M  V30 40 1 35 24
M  V30 41 1 36 19
M  V30 42 1 37 3
M  V30 43 1 37 24
M  V30 44 1 37 31
M  V30 45 1 3 38 CFG=3
M  V30 46 1 4 39 CFG=1
M  V30 47 1 5 40 CFG=3
M  V30 48 1 41 6
M  V30 49 1 42 6
M  V30 50 1 43 6
M  V30 51 1 7 44 CFG=3
M  V30 52 1 8 45 CFG=1
M  V30 53 1 46 9
M  V30 54 1 47 9
M  V30 55 1 10 48 CFG=1
M  V30 56 1 11 49 CFG=3
M  V30 57 1 50 12
M  V30 58 1 51 12
M  V30 59 1 52 14
M  V30 60 1 16 53 CFG=3
M  V30 61 1 54 22
M  V30 62 1 55 22
M  V30 63 1 56 23
M  V30 64 1 57 23
M  V30 65 1 58 25
M  V30 66 1 59 25
M  V30 67 1 60 26
M  V30 68 1 61 27
M  V30 69 1 62 27
M  V30 70 1 63 28
M  V30 71 1 64 28
M  V30 72 1 65 29
M  V30 73 1 66 29
M  V30 74 1 67 31
M  V30 75 1 68 31
M  V30 76 1 69 32
M  V30 77 1 70 32
M  V30 78 1 71 35
M  V30 79 1 72 35
M  V30 80 1 73 36
M  V30 81 1 74 36
M  V30 82 1 75 36
M  V30 83 1 37 76 CFG=3
M  V30 84 1 18 77 CFG=1
M  V30 85 1 78 26
M  V30 86 1 34 79 CFG=1
M  V30 END BOND
M  V30 END CTAB
M  END
>  <i_epik_Tot_Q>  (1) 
3

>  <i_epik_Tot_abs_Q>  (1) 
3

>  <i_i_glide_confnum>  (1) 
251

>  <i_i_glide_lignum>  (1) 
78

>  <i_i_glide_posenum>  (1) 
340

>  <i_i_glide_rotatable_bonds>  (1) 
8

>  <i_lp_mmshare_version>  (1) 
72125

>  <i_m_source_file_index>  (1) 
29

>  <i_f3d_flags>  (1) 
0

>  <num_sample>  (1) 
50

>  <b_lp_Chiralities_Consistent>  (1) 
1

>  <r_epik_Charging_Adjusted_Penalty>  (1) 
2.5241965566360229

>  <r_epik_Ionization_Penalty>  (1) 
2.0480993089750741

>  <r_epik_Ionization_Penalty_Charging>  (1) 
2.0477503768466887

>  <r_epik_Ionization_Penalty_Neutral>  (1) 
0.00034893212838530931

>  <r_epik_State_Penalty>  (1) 
0.4764461797893344

>  <r_glide_ring_energy>  (1) 
0.81914574756084313

>  <r_i_docking_score>  (1) 
-5.1564165382731391

>  <r_i_glide_ecoul>  (1) 
-6.4468073823980276

>  <r_i_glide_eff_state_penalty>  (1) 
0.4764461797893344

>  <r_i_glide_einternal>  (1) 
27.8491522856466

>  <r_i_glide_emodel>  (1) 
-28.359023868479483

>  <r_i_glide_emodel_strain>  (1) 
1.8902480724510724

>  <r_i_glide_energy>  (1) 
-35.978532961383678

>  <r_i_glide_erotb>  (1) 
0.44698704239028575

>  <r_i_glide_esite>  (1) 
-0.12871030271755071

>  <r_i_glide_evdw>  (1) 
-29.53172557898565

>  <r_i_glide_gscore>  (1) 
-5.6328627180624737

>  <r_i_glide_gscore_strain>  (1) 
0

>  <r_i_glide_hbond>  (1) 
-0.20000000000000001

>  <r_i_glide_ligand_efficiency>  (1) 
-0.13936260914251727

>  <r_i_glide_ligand_efficiency_ln>  (1) 
-1.1183058635967102

>  <r_i_glide_ligand_efficiency_sa>  (1) 
-0.46438713148709021

>  <r_i_glide_lipo>  (1) 
-2.3568819265078935

>  <r_i_glide_metal>  (1) 
-0

>  <r_i_glide_rewards>  (1) 
-0.95065014491832822

>  <r_lp_Energy>  (1) 
76.503242

>  <s_epik_Chemistry_Notes>  (1) 
This compound has an ester and may undergo hydrolysis at high or low pH. This compound contains an acetal/aminal-like group ( X-CH(R)-Y where X, Y are N, S, or O) that may be acid/base labile, releasing an aldehyde.

>  <s_epik_cmdline>  (1) 
J2VwaWtfcHl0aG9uJywgJy1waHQnLCAnMS4wJywgJy1waCcsICc3LjQnLCAnLXRuJywgJzgnLCAnLW1hJywgJzUwMCcsICctaW1hZScsICc8aW5maWxlLm1hZT4nLCAnLW9tYWUnLCAnPG91dGZpbGUubWFlPic=

>  <s_epik_input>  (1) 
Tz1DKE8xKUMxKEYpW0NIMl1bQ0BASF0yW05IXVtDSDJdW0NIMl1OMltDQEBIXTNbQ0gyXVtDSDJdW0NASF0oW0NAQEhdKE80KVtDQEhdMzQpTjVbQ0gyXVtDSDJdW0NAQEhdKFtDQEhdNTYpTihbQ0gyXVtDSDJdNilbQ0BAXShbQ0gzXSkoW0NIMl1bQ0BASF03W09IXSlbQ0BAXTc4W0NASF0oTzgpW0NIMl1PW0NIM10=

>  <s_glide_docking_method>  (1) 
confgen

>  <s_i_glide_gridfile>  (1) 
gpcr_drd2_6luq_protein_autoprepared_prepared

>  <s_lp_Force_Field>  (1) 
S-OPLS

>  <s_lp_Variant>  (1) 
DiffSBDD_28-1

>  <s_m_source_file>  (1) 
generated_generic_title2_ligand_DiffSBDD_2026-06-23_prepared.sdf

>  <GenAI_Model>  (1) 
DiffSBDD

>  <Protein>  (1) 
generic_title2

$$$$
DiffSBDD_2
     RDKit          3D

  0  0  0  0  0  0  0  0  0  0999 V3000
M  V30 BEGIN CTAB
M  V30 COUNTS 61 63 0 0 1
M  V30 BEGIN ATOM
M  V30 1 C 10.024361 7.694891 -6.117432 0 CFG=1
M  V30 2 C 7.728732 4.886211 -9.390073 0
M  V30 3 C 10.797895 6.804747 -5.119191 0
M  V30 4 C 5.375827 7.612971 -12.009283 0
M  V30 5 N 6.997079 2.638943 -15.033005 0
M  V30 6 C 7.374757 4.521833 -10.820271 0 CFG=2
M  V30 7 C 11.375499 7.246338 -8.141144 0
M  V30 8 C 8.407006 4.191831 -11.873046 0 CFG=2
M  V30 9 C 6.193230 0.486712 -15.853874 0
M  V30 10 C 7.448090 3.484820 -14.173008 0
M  V30 11 C 7.146455 1.254425 -14.941733 0
M  V30 12 C 6.633319 5.624284 -13.102183 0 CFG=1
M  V30 13 C 9.068688 5.589792 -9.173345 0
M  V30 14 C 9.279466 5.954537 -7.698940 0
M  V30 15 C 7.614462 5.487270 -11.955579 0 CFG=1
M  V30 16 C 6.566717 5.388368 -15.674009 0
M  V30 17 C 11.940229 8.676365 -8.141725 0
M  V30 18 C 11.888963 9.299612 -6.739269 0
M  V30 19 O 7.940651 0.640395 -14.226232 0
M  V30 20 C 6.134027 7.082804 -13.242720 0
M  V30 21 C 7.292321 5.008604 -14.367963 0 CFG=2
M  V30 22 C 10.499237 9.136901 -6.132257 0
M  V30 23 N 10.022404 7.213156 -7.524692 0 CFG=1 CHG=1
M  V30 24 C 8.162622 3.072987 -12.875598 0
M  V30 25 H 8.983318 7.729624 -5.800165 0
M  V30 26 H 6.975345 5.585504 -9.061058 0
M  V30 27 H 7.622844 4.017253 -8.743173 0
M  V30 28 H 10.977001 7.322559 -4.179502 0
M  V30 29 H 10.224134 5.915453 -4.876742 0
M  V30 30 H 11.775279 6.489000 -5.474444 0
M  V30 31 H 4.662538 8.386541 -12.294778 0
M  V30 32 H 4.823321 6.822213 -11.505531 0
M  V30 33 H 6.029392 8.065667 -11.268577 0
M  V30 34 H 6.435853 3.974780 -10.877884 0
M  V30 35 H 12.035160 6.587060 -7.584978 0
M  V30 36 H 11.351797 6.881197 -9.167307 0
M  V30 37 H 9.453021 4.287845 -11.590734 0
M  V30 38 H 5.947107 1.059701 -16.749300 0
M  V30 39 H 5.269111 0.257908 -15.321367 0
M  V30 40 H 6.642804 -0.456492 -16.166289 0
M  V30 41 H 5.752058 5.023367 -12.868061 0
M  V30 42 H 9.888822 4.961991 -9.511093 0
M  V30 43 H 9.084625 6.498805 -9.773705 0
M  V30 44 H 8.313490 6.046942 -7.198775 0
M  V30 45 H 9.830696 5.182375 -7.185500 0
M  V30 46 H 8.187494 6.389045 -11.754930 0
M  V30 47 H 6.958002 4.848978 -16.536882 0
M  V30 48 H 5.499357 5.191120 -15.593255 0
M  V30 49 H 6.688977 6.449007 -15.894986 0
M  V30 50 H 12.965966 8.673739 -8.511916 0
M  V30 51 H 11.366283 9.289292 -8.837538 0
M  V30 52 H 12.593075 8.815350 -6.075986 0
M  V30 53 H 12.165685 10.352453 -6.775621 0
M  V30 54 H 6.968214 7.741703 -13.488793 0
M  V30 55 H 5.437458 7.142434 -14.078431 0
M  V30 56 H 8.300398 5.417658 -14.459341 0
M  V30 57 H 10.442648 9.611295 -5.154396 0
M  V30 58 H 9.774588 9.590923 -6.784905 0
M  V30 59 H 7.571955 2.302826 -12.385184 0
M  V30 60 H 9.123358 2.629750 -13.124845 0
M  V30 61 H 9.470063 7.887853 -8.038338 0
M  V30 END ATOM
M  V30 BEGIN BOND
M  V30 1 1 3 1
M  V30 2 1 6 2
M  V30 3 1 8 6
M  V30 4 2 10 5
M  V30 5 1 11 5
M  V30 6 1 11 9
M  V30 7 1 13 2
M  V30 8 1 14 13
M  V30 9 1 15 6
M  V30 10 1 15 8
M  V30 11 1 15 12
M  V30 12 1 17 7
M  V30 13 1 18 17
M  V30 14 2 19 11
M  V30 15 1 20 4
M  V30 16 1 20 12
M  V30 17 1 21 10
M  V30 18 1 21 12
M  V30 19 1 21 16
M  V30 20 1 22 1
M  V30 21 1 22 18
M  V30 22 1 23 1
M  V30 23 1 23 7
M  V30 24 1 23 14
M  V30 25 1 24 8
M  V30 26 1 24 10
M  V30 27 1 1 25 CFG=1
M  V30 28 1 26 2
M  V30 29 1 27 2
M  V30 30 1 28 3
M  V30 31 1 29 3
M  V30 32 1 30 3
M  V30 33 1 31 4
M  V30 34 1 32 4
M  V30 35 1 33 4
M  V30 36 1 6 34 CFG=1
M  V30 37 1 35 7
M  V30 38 1 36 7
M  V30 39 1 8 37 CFG=1
M  V30 40 1 38 9
M  V30 41 1 39 9
M  V30 42 1 40 9
M  V30 43 1 12 41 CFG=1
M  V30 44 1 42 13
M  V30 45 1 43 13
M  V30 46 1 44 14
M  V30 47 1 45 14
M  V30 48 1 15 46 CFG=1
M  V30 49 1 47 16
M  V30 50 1 48 16
M  V30 51 1 49 16
M  V30 52 1 50 17
M  V30 53 1 51 17
M  V30 54 1 52 18
M  V30 55 1 53 18
M  V30 56 1 54 20
M  V30 57 1 55 20
M  V30 58 1 21 56 CFG=3
M  V30 59 1 57 22
M  V30 60 1 58 22
M  V30 61 1 59 24
M  V30 62 1 60 24
M  V30 63 1 23 61 CFG=3
M  V30 END BOND
M  V30 END CTAB
M  END
>  <i_epik_Tot_Q>  (1) 
1

>  <i_epik_Tot_abs_Q>  (1) 
1

>  <i_i_glide_confnum>  (1) 
213

>  <i_i_glide_lignum>  (1) 
21

>  <i_i_glide_posenum>  (1) 
344

>  <i_i_glide_rotatable_bonds>  (1) 
6

>  <i_lp_mmshare_version>  (1) 
72125

>  <i_m_source_file_index>  (1) 
3

>  <i_f3d_flags>  (1) 
0

>  <num_sample>  (1) 
50

>  <b_lp_Chiralities_Consistent>  (1) 
1

>  <r_epik_Charging_Adjusted_Penalty>  (1) 
0.0011657924221308697

>  <r_epik_Ionization_Penalty>  (1) 
0.0011657924221308697

>  <r_epik_Ionization_Penalty_Charging>  (1) 
0.0011657924221308697

>  <r_epik_Ionization_Penalty_Neutral>  (1) 
0

>  <r_epik_State_Penalty>  (1) 
-0

>  <r_glide_ring_energy>  (1) 
0

>  <r_i_docking_score>  (1) 
-5.1438339914234774

>  <r_i_glide_ecoul>  (1) 
-1.7170660331240728

>  <r_i_glide_eff_state_penalty>  (1) 
-0

>  <r_i_glide_einternal>  (1) 
5.9518713408045105

>  <r_i_glide_emodel>  (1) 
-36.155705630673189

>  <r_i_glide_emodel_strain>  (1) 
1.5892037655675963

>  <r_i_glide_energy>  (1) 
-29.648805829040828

>  <r_i_glide_erotb>  (1) 
0.84713914833173298

>  <r_i_glide_esite>  (1) 
-0.028015894816234978

>  <r_i_glide_evdw>  (1) 
-27.931739795916755

>  <r_i_glide_gscore>  (1) 
-5.1438339914234774

>  <r_i_glide_gscore_strain>  (1) 
0

>  <r_i_glide_hbond>  (1) 
0

>  <r_i_glide_ligand_efficiency>  (1) 
-0.21432641630931157

>  <r_i_glide_ligand_efficiency_ln>  (1) 
-1.2311555093092477

>  <r_i_glide_ligand_efficiency_sa>  (1) 
-0.61822436365526268

>  <r_i_glide_lipo>  (1) 
-1.8931537583390747

>  <r_i_glide_metal>  (1) 
-0

>  <r_i_glide_rewards>  (1) 
-2.4156565918354511

>  <r_lp_Energy>  (1) 
45.776719999999997

>  <r_lp_tautomer_probability>  (1) 
1

>  <s_epik_Chemistry_Notes>  (1) 
This compound has an imine and may undergo hydrolysis.

>  <s_epik_cmdline>  (1) 
J2VwaWtfcHl0aG9uJywgJy1waHQnLCAnMS4wJywgJy1waCcsICc3LjQnLCAnLXRuJywgJzgnLCAnLW1hJywgJzUwMCcsICctaW1hZScsICc8aW5maWxlLm1hZT4nLCAnLW9tYWUnLCAnPG91dGZpbGUubWFlPic=

>  <s_epik_input>  (1) 
W0NIM11bQ0BIXTFbQ0gyXVtDSDJdW0NIMl1bQ0gyXU4xW0NIMl1bQ0gyXVtDSDJdW0NASF0yW0NAQEhdKFtDQEBIXTIzKVtDQEBIXShbQ0gyXVtDSDNdKVtDQEhdKFtDSDNdKVxDKFtDSDJdMyk9TlxDKD1PKVtDSDNd

>  <s_glide_docking_method>  (1) 
confgen

>  <s_i_glide_gridfile>  (1) 
gpcr_drd2_6luq_protein_autoprepared_prepared

>  <s_lp_Force_Field>  (1) 
S-OPLS

>  <s_lp_Variant>  (1) 
DiffSBDD_2-1

>  <s_m_source_file>  (1) 
generated_generic_title2_ligand_DiffSBDD_2026-06-23_prepared.sdf

>  <GenAI_Model>  (1) 
DiffSBDD

>  <Protein>  (1) 
generic_title2

$$$$
DiffSBDD_9
     RDKit          3D

  0  0  0  0  0  0  0  0  0  0999 V3000
M  V30 BEGIN CTAB
M  V30 COUNTS 77 78 0 0 1
M  V30 BEGIN ATOM
M  V30 1 C 9.660397 8.201525 -7.803177 0
M  V30 2 F 7.003177 0.507496 -17.218889 0
M  V30 3 C 7.130610 5.077874 -15.049045 0 CFG=1
M  V30 4 O 7.683426 2.152118 -18.582071 0
M  V30 5 F 5.377150 7.061238 -13.211501 0
M  V30 6 C 7.206885 5.011307 -12.336622 0 CFG=2
M  V30 7 O 12.512325 7.696861 -2.428475 0
M  V30 8 C 9.835466 6.439181 -11.112900 0
M  V30 9 C 8.463172 4.304327 -11.883236 0 CFG=2
M  V30 10 F 7.281457 0.112715 -19.315296 0
M  V30 11 O 10.085876 7.264882 -11.986523 0
M  V30 12 C 12.175807 7.935944 -3.586336 0
M  V30 13 C 6.993318 4.246460 -18.128404 0
M  V30 14 C 8.301317 4.100680 -15.288638 0
M  V30 15 O 9.842685 5.026746 -17.961714 0
M  V30 16 F 9.982432 0.456996 -19.117409 0
M  V30 17 C 10.980677 7.897979 -7.089153 0
M  V30 18 C 9.775754 8.143206 -9.339250 0
M  V30 19 F 9.601372 3.510892 -19.585229 0
M  V30 20 O 11.295661 6.749745 -6.784932 0
M  V30 21 C 7.789385 0.821498 -18.277033 0
M  V30 22 N 9.687907 6.767789 -9.819626 0
M  V30 23 C 9.535747 3.681088 -18.241550 0
M  V30 24 C 5.940822 4.127934 -12.169111 0
M  V30 25 O 7.290185 7.964013 -12.384830 0
M  V30 26 F 10.489226 2.891962 -17.692409 0
M  V30 27 C 8.112727 3.250563 -17.743042 0 CFG=2
M  V30 28 C 7.383209 5.841161 -13.667447 0 CFG=2
M  V30 29 C 6.976796 6.022766 -16.257154 0
M  V30 30 O 8.775981 4.390494 -10.485619 0
M  V30 31 C 6.696654 7.225230 -13.443241 0 CFG=1
M  V30 32 C 6.036598 2.717546 -12.785005 0
M  V30 33 C 5.565209 4.057065 -10.673325 0
M  V30 34 C 12.575568 9.250056 -4.258436 0
M  V30 35 C 9.708874 4.975292 -11.402355 0 CFG=2
M  V30 36 C 6.928565 5.665531 -17.565847 0
M  V30 37 C 9.200186 0.245981 -18.058211 0
M  V30 38 C 11.636801 9.727792 -5.390353 0
M  V30 39 C 8.005332 2.937506 -16.235161 0
M  V30 40 C 11.894377 9.085763 -6.771220 0
M  V30 41 H 9.330590 9.191033 -7.498721 0
M  V30 42 H 8.885457 7.520045 -7.449813 0
M  V30 43 H 6.188543 4.536971 -14.967223 0
M  V30 44 H 7.075343 5.747896 -11.548042 0
M  V30 45 H 8.605625 3.302655 -12.277773 0
M  V30 46 H 11.588486 7.250530 -4.196775 0
M  V30 47 H 6.037747 3.773524 -17.985214 0
M  V30 48 H 7.016644 4.385173 -19.210670 0
M  V30 49 H 9.199272 4.645634 -15.574020 0
M  V30 50 H 8.573832 3.633561 -14.354775 0
M  V30 51 H 9.932342 5.474180 -18.787951 0
M  V30 52 H 10.710965 8.599829 -9.670521 0
M  V30 53 H 8.975514 8.731169 -9.790818 0
M  V30 54 H 9.481278 6.042054 -9.147973 0
M  V30 55 H 5.116927 4.628397 -12.676939 0
M  V30 56 H 6.975438 7.661069 -11.537062 0
M  V30 57 H 8.435992 6.116810 -13.723146 0
M  V30 58 H 6.909137 7.066307 -16.032892 0
M  V30 59 H 6.823077 7.903936 -14.277327 0
M  V30 60 H 6.317106 1.964113 -12.051016 0
M  V30 61 H 5.072983 2.415424 -13.185027 0
M  V30 62 H 6.739322 2.651535 -13.607782 0
M  V30 63 H 6.438616 3.993109 -10.028492 0
M  V30 64 H 5.022357 4.957670 -10.385198 0
M  V30 65 H 4.975100 3.192935 -10.385184 0
M  V30 66 H 13.599544 9.191035 -4.627680 0
M  V30 67 H 12.588608 9.990350 -3.462073 0
M  V30 68 H 10.576230 4.393679 -11.646729 0
M  V30 69 H 6.818111 6.447300 -18.303069 0
M  V30 70 H 9.704941 0.649831 -17.185645 0
M  V30 71 H 9.143875 -0.833858 -17.916138 0
M  V30 72 H 11.775408 10.802768 -5.503530 0
M  V30 73 H 10.592330 9.615295 -5.096805 0
M  V30 74 H 7.009161 2.559686 -16.003453 0
M  V30 75 H 8.689868 2.134188 -15.983065 0
M  V30 76 H 12.937707 8.790196 -6.866527 0
M  V30 77 H 11.746576 9.834762 -7.548038 0
M  V30 END ATOM
M  V30 BEGIN BOND
M  V30 1 1 9 6
M  V30 2 2 11 8
M  V30 3 2 12 7
M  V30 4 1 14 3
M  V30 5 1 17 1
M  V30 6 1 18 1
M  V30 7 2 20 17
M  V30 8 1 21 2
M  V30 9 1 21 4
M  V30 10 1 21 10
M  V30 11 1 22 8
M  V30 12 1 22 18
M  V30 13 1 23 15
M  V30 14 1 23 19
M  V30 15 1 24 6
M  V30 16 1 26 23
M  V30 17 1 27 4 CFG=3
M  V30 18 1 27 13
M  V30 19 1 27 23
M  V30 20 1 28 3
M  V30 21 1 28 6
M  V30 22 1 29 3
M  V30 23 1 30 9
M  V30 24 1 31 5
M  V30 25 1 31 25
M  V30 26 1 31 28
M  V30 27 1 32 24
M  V30 28 1 33 24
M  V30 29 1 34 12
M  V30 30 1 35 8
M  V30 31 1 35 9
M  V30 32 1 35 30
M  V30 33 1 36 13
M  V30 34 2 36 29
M  V30 35 1 37 16
M  V30 36 1 37 21
M  V30 37 1 38 34
M  V30 38 1 39 14
M  V30 39 1 39 27
M  V30 40 1 40 17
M  V30 41 1 40 38
M  V30 42 1 41 1
M  V30 43 1 42 1
M  V30 44 1 3 43 CFG=1
M  V30 45 1 6 44 CFG=1
M  V30 46 1 9 45 CFG=3
M  V30 47 1 46 12
M  V30 48 1 47 13
M  V30 49 1 48 13
M  V30 50 1 49 14
M  V30 51 1 50 14
M  V30 52 1 51 15
M  V30 53 1 52 18
M  V30 54 1 53 18
M  V30 55 1 54 22
M  V30 56 1 55 24
M  V30 57 1 56 25
M  V30 58 1 28 57 CFG=3
M  V30 59 1 58 29
M  V30 60 1 31 59 CFG=3
M  V30 61 1 60 32
M  V30 62 1 61 32
M  V30 63 1 62 32
M  V30 64 1 63 33
M  V30 65 1 64 33
M  V30 66 1 65 33
M  V30 67 1 66 34
M  V30 68 1 67 34
M  V30 69 1 35 68 CFG=3
M  V30 70 1 69 36
M  V30 71 1 70 37
M  V30 72 1 71 37
M  V30 73 1 72 38
M  V30 74 1 73 38
M  V30 75 1 74 39
M  V30 76 1 75 39
M  V30 77 1 76 40
M  V30 78 1 77 40
M  V30 END BOND
M  V30 END CTAB
M  END
>  <i_epik_Tot_Q>  (1) 
0

>  <i_epik_Tot_abs_Q>  (1) 
0

>  <i_i_glide_confnum>  (1) 
7072

>  <i_i_glide_lignum>  (1) 
45

>  <i_i_glide_posenum>  (1) 
33

>  <i_i_glide_rotatable_bonds>  (1) 
20

>  <i_lp_mmshare_version>  (1) 
72125

>  <i_m_source_file_index>  (1) 
10

>  <i_f3d_flags>  (1) 
0

>  <num_sample>  (1) 
50

>  <b_lp_Chiralities_Consistent>  (1) 
1

>  <r_epik_Charging_Adjusted_Penalty>  (1) 
0.024791601223723252

>  <r_epik_Ionization_Penalty>  (1) 
0.024829857689501161

>  <r_epik_Ionization_Penalty_Charging>  (1) 
0

>  <r_epik_Ionization_Penalty_Neutral>  (1) 
0.024829857689501161

>  <r_epik_State_Penalty>  (1) 
0.024791601223723252

>  <r_glide_ring_energy>  (1) 
0

>  <r_i_docking_score>  (1) 
-5.1294251984825436

>  <r_i_glide_ecoul>  (1) 
-1.7522475673216826

>  <r_i_glide_eff_state_penalty>  (1) 
0.024791601223723252

>  <r_i_glide_einternal>  (1) 
14.553154764343919

>  <r_i_glide_emodel>  (1) 
-39.977202633360882

>  <r_i_glide_emodel_strain>  (1) 
4.4324989995073807

>  <r_i_glide_energy>  (1) 
-40.531247251745683

>  <r_i_glide_erotb>  (1) 
0.79596426883134463

>  <r_i_glide_esite>  (1) 
-0.13609978290589553

>  <r_i_glide_evdw>  (1) 
-38.778999684424001

>  <r_i_glide_gscore>  (1) 
-5.1542167997062664

>  <r_i_glide_gscore_strain>  (1) 
0.10812474987684517

>  <r_i_glide_hbond>  (1) 
-0.13193551039705526

>  <r_i_glide_ligand_efficiency>  (1) 
-0.12823562996206359

>  <r_i_glide_ligand_efficiency_ln>  (1) 
-1.0939554425913169

>  <r_i_glide_ligand_efficiency_sa>  (1) 
-0.43855968548412466

>  <r_i_glide_lipo>  (1) 
-2.3132537878995092

>  <r_i_glide_metal>  (1) 
-0

>  <r_i_glide_rewards>  (1) 
-1.2752296178925435

>  <r_lp_Energy>  (1) 
29.47728

>  <r_lp_tautomer_probability>  (1) 
0.99989996500775002

>  <s_epik_cmdline>  (1) 
J2VwaWtfcHl0aG9uJywgJy1waHQnLCAnMS4wJywgJy1waCcsICc3LjQnLCAnLXRuJywgJzgnLCAnLW1hJywgJzUwMCcsICctaW1hZScsICc8aW5maWxlLm1hZT4nLCAnLW9tYWUnLCAnPG91dGZpbGUubWFlPic=

>  <s_epik_input>  (1) 
Tz1bQ0hdW0NIMl1bQ0gyXVtDSDJdQyg9TylbQ0gyXVtDSDJdW05IXUMoPU8pW0NASF0xT1tDQEhdMVtDQEhdKFtDSF0oW0NIM10pW0NIM10pW0NASF0oW0NAQEhdKEYpW09IXSlbQ0BIXShbQ0gyXVtDSDJdMilbQ0hdPVtDSF1bQ0gyXVtDQF0yKEMoRikoRilbT0hdKU9DKEYpKEYpW0NIMl1G

>  <s_glide_docking_method>  (1) 
confgen

>  <s_i_glide_gridfile>  (1) 
gpcr_drd2_6luq_protein_autoprepared_prepared

>  <s_lp_Force_Field>  (1) 
S-OPLS

>  <s_lp_Variant>  (1) 
DiffSBDD_9-2

>  <s_m_source_file>  (1) 
generated_generic_title2_ligand_DiffSBDD_2026-06-23_prepared.sdf

>  <GenAI_Model>  (1) 
DiffSBDD

>  <Protein>  (1) 
generic_title2

$$$$
DiffSBDD_11
     RDKit          3D

  0  0  0  0  0  0  0  0  0  0999 V3000
M  V30 BEGIN CTAB
M  V30 COUNTS 46 47 0 0 1
M  V30 BEGIN ATOM
M  V30 1 N 7.331107 2.759699 -14.385088 0
M  V30 2 O 8.175356 5.190237 -7.985023 0
M  V30 3 C 6.461768 0.964766 -13.724835 0
M  V30 4 C 10.084784 6.881505 -6.265540 0
M  V30 5 O 8.250198 4.634172 -15.401266 0
M  V30 6 N 6.925209 2.114343 -13.268019 0
M  V30 7 C 6.126721 -0.266257 -15.958390 0
M  V30 8 N 5.929428 -0.009769 -12.882579 0
M  V30 9 C 7.128439 1.994255 -15.541632 0
M  V30 10 C 7.903398 4.103780 -14.347802 0
M  V30 11 C 6.548023 0.817364 -15.144557 0
M  V30 12 C 11.307811 6.894297 -7.144157 0
M  V30 13 C 9.426761 5.567838 -8.505247 0 CFG=1
M  V30 14 C 9.311634 5.689591 -10.042571 0
M  V30 15 C 10.199889 8.790186 -9.251961 0
M  V30 16 C 8.049299 4.804223 -12.994718 0
M  V30 17 C 9.078984 4.325946 -10.694543 0
M  V30 18 C 7.500669 2.470484 -16.920417 0
M  V30 19 N 9.375408 8.074959 -8.274152 0 CHG=1
M  V30 20 N 5.775481 -1.138954 -16.632144 0
M  V30 21 C 9.926792 6.808659 -7.771254 0
M  V30 22 C 9.264643 4.274743 -12.214112 0
M  V30 23 H 7.536335 5.873037 -8.157596 0
M  V30 24 H 9.830961 7.810539 -5.758789 0
M  V30 25 H 9.894021 5.990236 -5.681529 0
M  V30 26 H 5.594357 -0.909685 -13.238333 0
M  V30 27 H 5.901603 0.121356 -11.883090 0
M  V30 28 H 11.912669 5.992272 -7.115239 0
M  V30 29 H 11.870218 7.823416 -7.193389 0
M  V30 30 H 10.124888 4.764934 -8.274001 0
M  V30 31 H 8.514179 6.375577 -10.328914 0
M  V30 32 H 10.216641 6.107304 -10.460548 0
M  V30 33 H 9.561266 9.590514 -9.585024 0
M  V30 34 H 11.103239 9.208686 -8.811324 0
M  V30 35 H 10.471099 8.198845 -10.122109 0
M  V30 36 H 7.126415 4.645535 -12.436012 0
M  V30 37 H 8.131525 5.881267 -13.142234 0
M  V30 38 H 9.775395 3.607508 -10.261831 0
M  V30 39 H 8.077694 3.990234 -10.431215 0
M  V30 40 H 7.244757 1.726741 -17.674360 0
M  V30 41 H 6.975344 3.386368 -17.189010 0
M  V30 42 H 8.573937 2.646071 -17.000108 0
M  V30 43 H 8.461750 7.892536 -8.706577 0
M  V30 44 H 10.170206 4.806402 -12.509695 0
M  V30 45 H 9.443174 3.229845 -12.474907 0
M  V30 46 H 9.207012 8.681086 -7.485783 0
M  V30 END ATOM
M  V30 BEGIN BOND
M  V30 1 1 6 1
M  V30 2 2 6 3
M  V30 3 1 8 3
M  V30 4 1 9 1
M  V30 5 1 10 1
M  V30 6 2 10 5
M  V30 7 1 11 3
M  V30 8 1 11 7
M  V30 9 2 11 9
M  V30 10 1 12 4
M  V30 11 1 13 2
M  V30 12 1 14 13
M  V30 13 1 16 10
M  V30 14 1 17 14
M  V30 15 1 18 9
M  V30 16 1 19 15
M  V30 17 3 20 7
M  V30 18 1 21 4
M  V30 19 1 21 12
M  V30 20 1 21 13
M  V30 21 1 21 19
M  V30 22 1 22 16
M  V30 23 1 22 17
M  V30 24 1 23 2
M  V30 25 1 24 4
M  V30 26 1 25 4
M  V30 27 1 26 8
M  V30 28 1 27 8
M  V30 29 1 28 12
M  V30 30 1 29 12
M  V30 31 1 13 30 CFG=3
M  V30 32 1 31 14
M  V30 33 1 32 14
M  V30 34 1 33 15
M  V30 35 1 34 15
M  V30 36 1 35 15
M  V30 37 1 36 16
M  V30 38 1 37 16
M  V30 39 1 38 17
M  V30 40 1 39 17
M  V30 41 1 40 18
M  V30 42 1 41 18
M  V30 43 1 42 18
M  V30 44 1 43 19
M  V30 45 1 44 22
M  V30 46 1 45 22
M  V30 47 1 46 19
M  V30 END BOND
M  V30 END CTAB
M  END
>  <i_epik_Tot_Q>  (1) 
1

>  <i_epik_Tot_abs_Q>  (1) 
1

>  <i_i_glide_confnum>  (1) 
43

>  <i_i_glide_lignum>  (1) 
46

>  <i_i_glide_posenum>  (1) 
360

>  <i_i_glide_rotatable_bonds>  (1) 
9

>  <i_lp_mmshare_version>  (1) 
72125

>  <i_m_source_file_index>  (1) 
12

>  <i_f3d_flags>  (1) 
0

>  <num_sample>  (1) 
50

>  <b_lp_Chiralities_Consistent>  (1) 
1

>  <r_epik_Charging_Adjusted_Penalty>  (1) 
0.78432572632575315

>  <r_epik_Ionization_Penalty>  (1) 
0.3972836053020487

>  <r_epik_Ionization_Penalty_Charging>  (1) 
0.39216286316287657

>  <r_epik_Ionization_Penalty_Neutral>  (1) 
0.0051207421391721471

>  <r_epik_State_Penalty>  (1) 
0.39216286316287657

>  <r_glide_ring_energy>  (1) 
0

>  <r_i_docking_score>  (1) 
-5.1264681511365788

>  <r_i_glide_ecoul>  (1) 
-7.2528452885601116

>  <r_i_glide_eff_state_penalty>  (1) 
0.39216286316287657

>  <r_i_glide_einternal>  (1) 
4.6862434665253101

>  <r_i_glide_emodel>  (1) 
-52.106460244399607

>  <r_i_glide_emodel_strain>  (1) 
0.64107399821494937

>  <r_i_glide_energy>  (1) 
-37.114389957246765

>  <r_i_glide_erotb>  (1) 
1.377350469870575

>  <r_i_glide_esite>  (1) 
-0.14586536849045525

>  <r_i_glide_evdw>  (1) 
-29.861544668686651

>  <r_i_glide_gscore>  (1) 
-5.518631014299455

>  <r_i_glide_gscore_strain>  (1) 
0

>  <r_i_glide_hbond>  (1) 
-0.50948460885273072

>  <r_i_glide_ligand_efficiency>  (1) 
-0.23302127959711721

>  <r_i_glide_ligand_efficiency_ln>  (1) 
-1.2530958086069939

>  <r_i_glide_ligand_efficiency_sa>  (1) 
-0.65293479031076818

>  <r_i_glide_lipo>  (1) 
-1.4958013871736835

>  <r_i_glide_metal>  (1) 
-0

>  <r_i_glide_rewards>  (1) 
-2.1638260929348112

>  <r_lp_Energy>  (1) 
18.601261000000001

>  <s_epik_cmdline>  (1) 
J2VwaWtfcHl0aG9uJywgJy1waHQnLCAnMS4wJywgJy1waCcsICc3LjQnLCAnLXRuJywgJzgnLCAnLW1hJywgJzUwMCcsICctaW1hZScsICc8aW5maWxlLm1hZT4nLCAnLW9tYWUnLCAnPG91dGZpbGUubWFlPic=

>  <s_epik_input>  (1) 
W0NIM11jMWMoQyNOKWMoW05IMl0pbm4xQyg9TylbQ0gyXVtDSDJdW0NIMl1bQ0gyXVtDQEhdKFtPSF0pQzIoW0NIMl1bQ0gyXTIpW05IXVtDSDNd

>  <s_glide_docking_method>  (1) 
confgen

>  <s_i_glide_gridfile>  (1) 
gpcr_drd2_6luq_protein_autoprepared_prepared

>  <s_lp_Force_Field>  (1) 
S-OPLS

>  <s_lp_Variant>  (1) 
DiffSBDD_11-1

>  <s_m_source_file>  (1) 
generated_generic_title2_ligand_DiffSBDD_2026-06-23_prepared.sdf

>  <GenAI_Model>  (1) 
DiffSBDD

>  <Protein>  (1) 
generic_title2

$$$$
DiffSBDD_40
     RDKit          3D

  0  0  0  0  0  0  0  0  0  0999 V3000
M  V30 BEGIN CTAB
M  V30 COUNTS 74 76 0 0 1
M  V30 BEGIN ATOM
M  V30 1 C 9.774821 7.118718 -8.693557 0
M  V30 2 O 12.733867 6.501053 -20.404297 0 CHG=-1
M  V30 3 C 13.029992 3.481562 -17.338028 0
M  V30 4 C 10.457834 7.423072 -9.811138 0
M  V30 5 C 9.796574 1.790107 -18.904635 0 CFG=2
M  V30 6 C 8.008520 5.420651 -17.291894 0
M  V30 7 C 7.783755 5.626229 -15.773123 0 CFG=2
M  V30 8 C 9.962370 0.403709 -18.253233 0
M  V30 9 C 12.163129 2.375729 -17.960979 0
M  V30 10 C 8.825353 5.624779 -11.326829 0
M  V30 11 C 11.116864 8.255089 -6.818117 0
M  V30 12 C 11.744961 5.229489 -18.640266 0 CFG=2
M  V30 13 F 10.975395 5.990172 -7.092483 0
M  V30 14 C 8.149593 4.352587 -14.981564 0
M  V30 15 C 10.742342 2.883754 -18.300880 0 CFG=1
M  V30 16 C 10.895685 4.093644 -19.253545 0
M  V30 17 C 6.690456 5.781015 -12.770937 0
M  V30 18 C 6.438921 6.784056 -13.912204 0
M  V30 19 C 12.575347 8.478260 -8.839015 0
M  V30 20 C 8.295292 2.117610 -18.929073 0
M  V30 21 C 7.212368 4.298615 -17.932504 0
M  V30 22 C 11.857585 7.884212 -9.837868 0
M  V30 23 F 10.854730 8.718079 -5.584937 0
M  V30 24 S 9.624190 7.257072 -11.368263 0
M  V30 25 O 10.780937 7.193006 -19.585169 0
M  V30 26 C 14.011181 5.793633 -17.533764 0
M  V30 27 C 12.130143 8.814594 -7.483614 0
M  V30 28 C 8.772785 4.675081 -13.640870 0
M  V30 29 C 11.756679 6.411561 -19.627545 0
M  V30 30 C 10.306936 7.116550 -7.308029 0 CFG=2
M  V30 31 C 8.136912 5.315700 -12.645839 0
M  V30 32 C 7.775947 3.210591 -18.410115 0
M  V30 33 C 13.159244 4.721670 -18.243149 0 CFG=1
M  V30 34 C 5.872800 7.290791 -16.299039 0
M  V30 35 C 6.401409 6.198757 -15.346603 0 CFG=1
M  V30 36 H 8.750626 6.790223 -8.788409 0
M  V30 37 H 12.592072 3.777362 -16.384998 0
M  V30 38 H 14.017963 3.081819 -17.108484 0
M  V30 39 H 10.080604 1.666015 -19.950406 0
M  V30 40 H 9.068195 5.232196 -17.442900 0
M  V30 41 H 7.819937 6.336668 -17.851090 0
M  V30 42 H 8.519186 6.383474 -15.505139 0
M  V30 43 H 9.268456 -0.320158 -18.682025 0
M  V30 44 H 10.961568 -0.004721 -18.403769 0
M  V30 45 H 9.767853 0.448696 -17.183334 0
M  V30 46 H 12.119378 1.556537 -17.243554 0
M  V30 47 H 12.646875 1.986835 -18.857866 0
M  V30 48 H 8.110097 5.556155 -10.507586 0
M  V30 49 H 9.596359 4.877531 -11.135255 0
M  V30 50 H 11.256068 5.584582 -17.733094 0
M  V30 51 H 7.286411 3.698788 -14.851192 0
M  V30 52 H 8.886875 3.770447 -15.533643 0
M  V30 53 H 10.313108 3.224117 -17.358760 0
M  V30 54 H 11.358041 3.761512 -20.184562 0
M  V30 55 H 9.921190 4.486566 -19.540676 0
M  V30 56 H 6.042983 4.910454 -12.879205 0
M  V30 57 H 6.395059 6.253716 -11.832857 0
M  V30 58 H 5.475280 7.253973 -13.710297 0
M  V30 59 H 7.171648 7.590294 -13.855130 0
M  V30 60 H 13.576270 8.790221 -9.099527 0
M  V30 61 H 7.660383 1.384215 -19.404364 0
M  V30 62 H 6.145384 4.437593 -17.985025 0
M  V30 63 H 12.365594 7.788118 -10.785451 0
M  V30 64 H 13.513978 6.161598 -16.635733 0
M  V30 65 H 14.979615 5.391349 -17.236236 0
M  V30 66 H 14.204123 6.651321 -18.178082 0
M  V30 67 H 12.676755 9.590219 -6.969983 0
M  V30 68 H 9.798332 4.370472 -13.503513 0
M  V30 69 H 9.436767 7.054466 -6.652396 0
M  V30 70 H 13.687690 4.416377 -19.148031 0
M  V30 71 H 6.575410 8.119868 -16.383650 0
M  V30 72 H 5.683224 6.902802 -17.299412 0
M  V30 73 H 4.927852 7.702525 -15.943928 0
M  V30 74 H 5.673427 5.387666 -15.364954 0
M  V30 END ATOM
M  V30 BEGIN BOND
M  V30 1 2 4 1
M  V30 2 1 7 6
M  V30 3 1 8 5
M  V30 4 1 9 3
M  V30 5 1 14 7
M  V30 6 1 15 5
M  V30 7 1 15 9
M  V30 8 1 16 12
M  V30 9 1 16 15
M  V30 10 1 18 17
M  V30 11 1 20 5
M  V30 12 1 21 6
M  V30 13 1 22 4
M  V30 14 2 22 19
M  V30 15 1 23 11
M  V30 16 1 24 4
M  V30 17 1 24 10
M  V30 18 2 27 11
M  V30 19 1 27 19
M  V30 20 1 28 14
M  V30 21 1 29 2
M  V30 22 1 29 12
M  V30 23 2 29 25
M  V30 24 1 30 1
M  V30 25 1 30 11
M  V30 26 1 30 13
M  V30 27 1 31 10
M  V30 28 1 31 17
M  V30 29 2 31 28
M  V30 30 2 32 20
M  V30 31 2 32 21
M  V30 32 1 33 3
M  V30 33 1 33 12
M  V30 34 1 33 26
M  V30 35 1 35 7
M  V30 36 1 35 18
M  V30 37 1 35 34
M  V30 38 1 36 1
M  V30 39 1 37 3
M  V30 40 1 38 3
M  V30 41 1 5 39 CFG=3
M  V30 42 1 40 6
M  V30 43 1 41 6
M  V30 44 1 7 42 CFG=1
M  V30 45 1 43 8
M  V30 46 1 44 8
M  V30 47 1 45 8
M  V30 48 1 46 9
M  V30 49 1 47 9
M  V30 50 1 48 10
M  V30 51 1 49 10
M  V30 52 1 12 50 CFG=1
M  V30 53 1 51 14
M  V30 54 1 52 14
M  V30 55 1 15 53 CFG=1
M  V30 56 1 54 16
M  V30 57 1 55 16
M  V30 58 1 56 17
M  V30 59 1 57 17
M  V30 60 1 58 18
M  V30 61 1 59 18
M  V30 62 1 60 19
M  V30 63 1 61 20
M  V30 64 1 62 21
M  V30 65 1 63 22
M  V30 66 1 64 26
M  V30 67 1 65 26
M  V30 68 1 66 26
M  V30 69 1 67 27
M  V30 70 1 68 28
M  V30 71 1 30 69 CFG=1
M  V30 72 1 33 70 CFG=3
M  V30 73 1 71 34
M  V30 74 1 72 34
M  V30 75 1 73 34
M  V30 76 1 35 74 CFG=1
M  V30 END BOND
M  V30 END CTAB
M  END
>  <i_epik_Tot_Q>  (1) 
-1

>  <i_epik_Tot_abs_Q>  (1) 
1

>  <i_i_glide_confnum>  (1) 
182

>  <i_i_glide_lignum>  (1) 
115

>  <i_i_glide_posenum>  (1) 
224

>  <i_i_glide_rotatable_bonds>  (1) 
8

>  <i_lp_mmshare_version>  (1) 
72125

>  <i_m_source_file_index>  (1) 
41

>  <i_f3d_flags>  (1) 
0

>  <num_sample>  (1) 
50

>  <b_lp_Chiralities_Consistent>  (1) 
1

>  <r_epik_Charging_Adjusted_Penalty>  (1) 
0.0014684053483694905

>  <r_epik_Ionization_Penalty>  (1) 
0.0014684053483694905

>  <r_epik_Ionization_Penalty_Charging>  (1) 
0.0014684053483694905

>  <r_epik_Ionization_Penalty_Neutral>  (1) 
0

>  <r_epik_State_Penalty>  (1) 
-0

>  <r_glide_ring_energy>  (1) 
0

>  <r_i_docking_score>  (1) 
-5.1228585825668285

>  <r_i_glide_ecoul>  (1) 
-0.71775744944202935

>  <r_i_glide_eff_state_penalty>  (1) 
-0

>  <r_i_glide_einternal>  (1) 
8.2147170488059462

>  <r_i_glide_emodel>  (1) 
-38.510565788546664

>  <r_i_glide_emodel_strain>  (1) 
0.41569301367303524

>  <r_i_glide_energy>  (1) 
-34.118344703714527

>  <r_i_glide_erotb>  (1) 
0.56810967558155767

>  <r_i_glide_esite>  (1) 
0

>  <r_i_glide_evdw>  (1) 
-33.400587254272494

>  <r_i_glide_gscore>  (1) 
-5.1228585825668285

>  <r_i_glide_gscore_strain>  (1) 
0

>  <r_i_glide_hbond>  (1) 
0

>  <r_i_glide_ligand_efficiency>  (1) 
-0.14636738807333796

>  <r_i_glide_ligand_efficiency_ln>  (1) 
-1.1245811545938957

>  <r_i_glide_ligand_efficiency_sa>  (1) 
-0.47877743203699508

>  <r_i_glide_lipo>  (1) 
-2.4843799219372142

>  <r_i_glide_metal>  (1) 
-0

>  <r_i_glide_rewards>  (1) 
-1.4288953560812419

>  <r_lp_Energy>  (1) 
5.7710229999999996

>  <r_lp_tautomer_probability>  (1) 
1

>  <s_epik_cmdline>  (1) 
J2VwaWtfcHl0aG9uJywgJy1waHQnLCAnMS4wJywgJy1waCcsICc3LjQnLCAnLXRuJywgJzgnLCAnLW1hJywgJzUwMCcsICctaW1hZScsICc8aW5maWxlLm1hZT4nLCAnLW9tYWUnLCAnPG91dGZpbGUubWFlPic=

>  <s_epik_input>  (1) 
W0NIXTE9W0NIXVtDSF09QyhGKVtDQEhdKEYpW0NIXT1DMVNbQ0gyXUMoW0NIMl1bQ0gyXVtDQEhdMltDSDNdKT1bQ0hdW0NIMl1bQ0BIXTJbQ0gyXVtDSF09Qz1bQ0hdW0NASF0oW0NIM10pW0NAQEhdKFtDSDJdW0NIMl1bQ0BASF0zW0NIM10pW0NIMl1bQ0BASF0zQyg9TylbT0hd

>  <s_glide_docking_method>  (1) 
confgen

>  <s_i_glide_gridfile>  (1) 
gpcr_drd2_6luq_protein_autoprepared_prepared

>  <s_lp_Force_Field>  (1) 
S-OPLS

>  <s_lp_Variant>  (1) 
DiffSBDD_40-1

>  <s_m_source_file>  (1) 
generated_generic_title2_ligand_DiffSBDD_2026-06-23_prepared.sdf

>  <GenAI_Model>  (1) 
DiffSBDD

>  <Protein>  (1) 
generic_title2

$$$$
DiffSBDD_12
     RDKit          3D

  0  0  0  0  0  0  0  0  0  0999 V3000
M  V30 BEGIN CTAB
M  V30 COUNTS 55 56 0 0 1
M  V30 BEGIN ATOM
M  V30 1 C 4.892624 7.451818 -18.400154 0 CFG=2
M  V30 2 C 10.694294 8.292361 -8.583188 0 CFG=1
M  V30 3 C 10.285857 7.863805 -7.160725 0
M  V30 4 C 9.672503 6.119836 -9.385726 0
M  V30 5 C 9.225171 5.697189 -8.008378 0
M  V30 6 C 7.682369 6.383802 -13.536600 0
M  V30 7 C 5.904697 8.618543 -20.479031 0
M  V30 8 C 4.783477 7.739722 -19.910463 0
M  V30 9 C 12.195948 8.616615 -8.635098 0
M  V30 10 C 6.124266 7.067948 -15.423314 0
M  V30 11 C 9.292685 5.557338 -11.744990 0
M  V30 12 C 6.215393 6.559109 -13.972629 0 CFG=1
M  V30 13 C 6.936632 4.648516 -11.813812 0
M  V30 14 C 6.068598 6.543985 -17.983516 0
M  V30 15 C 5.410985 5.269959 -13.707759 0
M  V30 16 C 5.970552 6.021967 -16.531443 0
M  V30 17 C 5.484206 4.889163 -12.227445 0
M  V30 18 O 9.369861 5.195809 -10.365187 0
M  V30 19 F 3.757720 6.864045 -18.022852 0
M  V30 20 C 10.322924 7.272064 -9.648622 0
M  V30 21 C 10.065317 6.368374 -6.908734 0
M  V30 22 O 6.175410 8.267175 -15.680255 0
M  V30 23 O 10.163900 8.688540 -6.256854 0
M  V30 24 C 7.826656 5.879571 -12.084061 0 CFG=2
M  V30 25 H 4.940263 8.390227 -17.855249 0
M  V30 26 H 10.126069 9.190231 -8.812128 0
M  V30 27 H 8.175430 5.968459 -7.891216 0
M  V30 28 H 9.278503 4.612212 -7.936865 0
M  V30 29 H 8.176760 7.350616 -13.613894 0
M  V30 30 H 8.196542 5.702350 -14.216335 0
M  V30 31 H 5.734420 8.809320 -21.538539 0
M  V30 32 H 5.941858 9.587187 -19.984076 0
M  V30 33 H 6.881623 8.145462 -20.382695 0
M  V30 34 H 4.736607 6.802458 -20.467269 0
M  V30 35 H 3.835611 8.248504 -20.096107 0
M  V30 36 H 12.798071 7.708505 -8.656531 0
M  V30 37 H 12.441712 9.198175 -9.524055 0
M  V30 38 H 12.511206 9.189827 -7.764212 0
M  V30 39 H 9.963570 6.337764 -12.090847 0
M  V30 40 H 9.605487 4.678366 -12.310069 0
M  V30 41 H 5.780254 7.343215 -13.350720 0
M  V30 42 H 7.323616 3.782281 -12.352540 0
M  V30 43 H 6.965720 4.389603 -10.753965 0
M  V30 44 H 7.012175 7.070579 -18.128173 0
M  V30 45 H 6.105716 5.679552 -18.647592 0
M  V30 46 H 5.789450 4.442698 -14.307730 0
M  V30 47 H 4.371050 5.396857 -13.985025 0
M  V30 48 H 6.704385 5.232079 -16.368063 0
M  V30 49 H 4.983381 5.590107 -16.394342 0
M  V30 50 H 4.899338 3.990555 -12.043850 0
M  V30 51 H 5.046395 5.679442 -11.613671 0
M  V30 52 H 10.623040 7.511918 -10.649942 0
M  V30 53 H 9.589624 6.226178 -5.938315 0
M  V30 54 H 11.046133 5.895867 -6.856417 0
M  V30 55 H 7.496611 6.682778 -11.425576 0
M  V30 END ATOM
M  V30 BEGIN BOND
M  V30 1 1 3 2
M  V30 2 1 5 4
M  V30 3 1 8 1
M  V30 4 1 8 7
M  V30 5 1 9 2
M  V30 6 1 12 6
M  V30 7 1 12 10
M  V30 8 1 14 1
M  V30 9 1 15 12
M  V30 10 1 16 10
M  V30 11 1 16 14
M  V30 12 1 17 13
M  V30 13 1 17 15
M  V30 14 1 18 4
M  V30 15 1 18 11
M  V30 16 1 19 1
M  V30 17 1 20 2
M  V30 18 2 20 4
M  V30 19 1 21 3
M  V30 20 1 21 5
M  V30 21 2 22 10
M  V30 22 2 23 3
M  V30 23 1 24 6
M  V30 24 1 24 11
M  V30 25 1 24 13
M  V30 26 1 1 25 CFG=1
M  V30 27 1 2 26 CFG=3
M  V30 28 1 27 5
M  V30 29 1 28 5
M  V30 30 1 29 6
M  V30 31 1 30 6
M  V30 32 1 31 7
M  V30 33 1 32 7
M  V30 34 1 33 7
M  V30 35 1 34 8
M  V30 36 1 35 8
M  V30 37 1 36 9
M  V30 38 1 37 9
M  V30 39 1 38 9
M  V30 40 1 39 11
M  V30 41 1 40 11
M  V30 42 1 12 41 CFG=1
M  V30 43 1 42 13
M  V30 44 1 43 13
M  V30 45 1 44 14
M  V30 46 1 45 14
M  V30 47 1 46 15
M  V30 48 1 47 15
M  V30 49 1 48 16
M  V30 50 1 49 16
M  V30 51 1 50 17
M  V30 52 1 51 17
M  V30 53 1 52 20
M  V30 54 1 53 21
M  V30 55 1 54 21
M  V30 56 1 24 55 CFG=1
M  V30 END BOND
M  V30 END CTAB
M  END
>  <i_epik_Tot_Q>  (1) 
0

>  <i_epik_Tot_abs_Q>  (1) 
0

>  <i_i_glide_confnum>  (1) 
59

>  <i_i_glide_lignum>  (1) 
48

>  <i_i_glide_posenum>  (1) 
84

>  <i_i_glide_rotatable_bonds>  (1) 
8

>  <i_lp_mmshare_version>  (1) 
72125

>  <i_m_source_file_index>  (1) 
13

>  <i_f3d_flags>  (1) 
0

>  <num_sample>  (1) 
50

>  <b_lp_Chiralities_Consistent>  (1) 
1

>  <r_epik_Charging_Adjusted_Penalty>  (1) 
0

>  <r_epik_Ionization_Penalty>  (1) 
4.1955247269604324e-12

>  <r_epik_Ionization_Penalty_Charging>  (1) 
0

>  <r_epik_Ionization_Penalty_Neutral>  (1) 
4.1955247269604324e-12

>  <r_epik_State_Penalty>  (1) 
-0

>  <r_glide_ring_energy>  (1) 
0

>  <r_i_docking_score>  (1) 
-5.1064011199127108

>  <r_i_glide_ecoul>  (1) 
-1.2920112808210997

>  <r_i_glide_eff_state_penalty>  (1) 
-0

>  <r_i_glide_einternal>  (1) 
7.4377419052587825

>  <r_i_glide_emodel>  (1) 
-40.0489218710551

>  <r_i_glide_emodel_strain>  (1) 
1.5491385102250632

>  <r_i_glide_energy>  (1) 
-35.094557877513402

>  <r_i_glide_erotb>  (1) 
1.1556109002290837

>  <r_i_glide_esite>  (1) 
0

>  <r_i_glide_evdw>  (1) 
-33.802546596692302

>  <r_i_glide_gscore>  (1) 
-5.1064011199127108

>  <r_i_glide_gscore_strain>  (1) 
0

>  <r_i_glide_hbond>  (1) 
0

>  <r_i_glide_ligand_efficiency>  (1) 
-0.21276671332969629

>  <r_i_glide_ligand_efficiency_ln>  (1) 
-1.2221961054741732

>  <r_i_glide_ligand_efficiency_sa>  (1) 
-0.61372540175094803

>  <r_i_glide_lipo>  (1) 
-1.9903868854388391

>  <r_i_glide_metal>  (1) 
-0

>  <r_i_glide_rewards>  (1) 
-2.387696112745175

>  <r_lp_Energy>  (1) 
11.614072

>  <r_lp_tautomer_probability>  (1) 
1

>  <s_epik_cmdline>  (1) 
J2VwaWtfcHl0aG9uJywgJy1waHQnLCAnMS4wJywgJy1waCcsICc3LjQnLCAnLXRuJywgJzgnLCAnLW1hJywgJzUwMCcsICctaW1hZScsICc8aW5maWxlLm1hZT4nLCAnLW9tYWUnLCAnPG91dGZpbGUubWFlPic=

>  <s_epik_input>  (1) 
W0NIM11bQ0gyXVtDQEBIXShGKVtDSDJdW0NIMl1DKD1PKVtDQEBIXTFbQ0gyXVtDQEBIXShbQ0gyXVtDSDJdW0NIMl0xKVtDSDJdT0MoPVtDSF0yKVtDSDJdW0NIMl1DKD1PKVtDQEhdMltDSDNd

>  <s_glide_docking_method>  (1) 
confgen

>  <s_i_glide_gridfile>  (1) 
gpcr_drd2_6luq_protein_autoprepared_prepared

>  <s_lp_Force_Field>  (1) 
S-OPLS

>  <s_lp_Variant>  (1) 
DiffSBDD_12-1

>  <s_m_source_file>  (1) 
generated_generic_title2_ligand_DiffSBDD_2026-06-23_prepared.sdf

>  <GenAI_Model>  (1) 
DiffSBDD

>  <Protein>  (1) 
generic_title2

$$$$
DiffSBDD_28
     RDKit          3D

  0  0  0  0  0  0  0  0  0  0999 V3000
M  V30 BEGIN CTAB
M  V30 COUNTS 79 86 0 0 1
M  V30 BEGIN ATOM
M  V30 1 F 10.641705 3.056538 -18.674985 0
M  V30 2 C 11.189466 7.314076 -7.544273 0 CFG=1
M  V30 3 C 9.306899 6.460050 -10.590452 0 CFG=2
M  V30 4 C 10.622383 8.666437 -5.196467 0 CFG=2
M  V30 5 C 8.335874 5.770314 -14.630001 0 CFG=1
M  V30 6 C 11.314922 6.044621 -6.698100 0
M  V30 7 C 7.383077 5.762866 -12.172772 0 CFG=2
M  V30 8 C 7.972118 4.219749 -17.557997 0 CFG=1
M  V30 9 C 9.451461 7.982296 -10.644988 0
M  V30 10 C 7.627870 4.492098 -15.018501 0 CFG=1
M  V30 11 C 12.302392 9.178830 -7.249028 0 CFG=1
M  V30 12 C 7.754810 4.862361 -9.839723 0
M  V30 13 C 11.214727 8.459530 -6.553802 0 CFG=1
M  V30 14 O 13.349568 9.590230 -6.385044 0
M  V30 15 C 10.318724 4.398542 -18.599330 0 CFG=1
M  V30 16 C 8.252832 6.376662 -13.250382 0 CFG=1
M  V30 17 O 9.372498 5.590241 -13.654548 0
M  V30 18 N 7.913435 5.984374 -10.784996 0 CFG=1 CHG=1
M  V30 19 O 12.500348 9.209609 -3.773703 0
M  V30 20 C 10.333460 5.081868 -19.910676 0
M  V30 21 O 10.010188 9.190157 -6.375008 0
M  V30 22 C 6.537142 4.135903 -13.984366 0
M  V30 23 C 12.453495 7.969221 -8.173014 0
M  V30 24 N 9.946118 7.282087 -8.356679 0
M  V30 25 C 11.241667 9.672916 -4.239736 0
M  V30 26 N 7.186275 4.668442 -18.734238 0 CHG=1
M  V30 27 C 7.033101 4.287782 -12.534527 0
M  V30 28 C 6.154316 5.631822 -18.301995 0
M  V30 29 C 6.245481 5.699669 -16.779936 0
M  V30 30 O 9.353259 5.731662 -20.276196 0
M  V30 31 C 8.540292 5.254279 -8.601151 0
M  V30 32 C 9.366253 4.899237 -17.521251 0
M  V30 33 O 11.307673 5.373632 -19.074219 0
M  V30 34 N 7.080798 4.536947 -16.405476 0 CFG=1 CHG=1
M  V30 35 C 9.651449 8.441875 -9.199459 0
M  V30 36 C 12.392572 8.154032 -2.830625 0
M  V30 37 C 9.697912 6.086991 -9.150258 0 CFG=1
M  V30 38 H 9.988355 5.962007 -11.279664 0
M  V30 39 H 10.175463 7.770012 -4.785047 0
M  V30 40 H 8.643962 6.390230 -15.453733 0
M  V30 41 H 12.175326 6.058010 -6.036516 0
M  V30 42 H 10.438257 5.924198 -6.062998 0
M  V30 43 H 11.375422 5.144591 -7.294648 0
M  V30 44 H 6.442418 6.313062 -12.199475 0
M  V30 45 H 8.105424 3.137796 -17.600855 0
M  V30 46 H 8.602130 8.486699 -11.107057 0
M  V30 47 H 10.338533 8.238339 -11.222573 0
M  V30 48 H 8.369350 3.690656 -14.993884 0
M  V30 49 H 11.867062 9.990254 -7.806142 0
M  V30 50 H 8.237469 3.990216 -10.266847 0
M  V30 51 H 6.714037 4.626756 -9.623033 0
M  V30 52 H 13.088450 9.384205 -5.494243 0
M  V30 53 H 8.436701 7.446480 -13.184109 0
M  V30 54 H 6.205661 3.109233 -14.145203 0
M  V30 55 H 5.655941 4.765221 -14.118818 0
M  V30 56 H 12.381886 8.206693 -9.234838 0
M  V30 57 H 13.392031 7.470415 -7.971834 0
M  V30 58 H 11.398939 10.605223 -4.782531 0
M  V30 59 H 10.575407 9.926446 -3.418401 0
M  V30 60 H 6.726111 3.872439 -19.156436 0
M  V30 61 H 7.905002 3.644350 -12.405362 0
M  V30 62 H 6.258397 3.908598 -11.867131 0
M  V30 63 H 5.173448 5.279349 -18.623989 0
M  V30 64 H 6.323240 6.611870 -18.753173 0
M  V30 65 H 5.263784 5.659541 -16.306148 0
M  V30 66 H 6.705729 6.645299 -16.494470 0
M  V30 67 H 8.882186 4.390375 -8.031426 0
M  V30 68 H 7.912714 5.854657 -7.942904 0
M  V30 69 H 9.260659 5.983157 -17.605611 0
M  V30 70 H 9.873051 4.712400 -16.574848 0
M  V30 71 H 8.751792 8.926080 -8.822347 0
M  V30 72 H 10.418683 9.205585 -9.166618 0
M  V30 73 H 13.376508 7.921177 -2.433890 0
M  V30 74 H 11.759805 8.436662 -1.987896 0
M  V30 75 H 12.001060 7.241767 -3.284529 0
M  V30 76 H 10.575410 5.461757 -9.185082 0
M  V30 77 H 7.372550 6.738319 -10.340657 0
M  V30 78 H 7.791554 5.096092 -19.429921 0
M  V30 79 H 6.434543 3.759601 -16.411311 0
M  V30 END ATOM
M  V30 BEGIN BOND
M  V30 1 1 2 6 CFG=1
M  V30 2 1 9 3
M  V30 3 1 10 5
M  V30 4 1 13 2
M  V30 5 1 13 4
M  V30 6 1 13 11
M  V30 7 1 14 11
M  V30 8 1 15 1 CFG=3
M  V30 9 1 16 5
M  V30 10 1 16 7
M  V30 11 1 17 5
M  V30 12 1 17 16
M  V30 13 1 18 3
M  V30 14 1 18 7
M  V30 15 1 18 12
M  V30 16 1 20 15
M  V30 17 1 21 4
M  V30 18 1 13 21 CFG=3
M  V30 19 1 22 10
M  V30 20 1 23 2
M  V30 21 1 23 11
M  V30 22 1 24 2
M  V30 23 1 25 4
M  V30 24 1 25 19
M  V30 25 1 26 8
M  V30 26 1 27 7
M  V30 27 1 27 22
M  V30 28 1 28 26
M  V30 29 1 29 28
M  V30 30 2 30 20
M  V30 31 1 31 12
M  V30 32 1 32 8
M  V30 33 1 32 15
M  V30 34 1 33 15
M  V30 35 1 33 20
M  V30 36 1 34 8
M  V30 37 1 34 10
M  V30 38 1 34 29
M  V30 39 1 35 9
M  V30 40 1 35 24
M  V30 41 1 36 19
M  V30 42 1 37 3
M  V30 43 1 37 24
M  V30 44 1 37 31
M  V30 45 1 3 38 CFG=3
M  V30 46 1 4 39 CFG=1
M  V30 47 1 5 40 CFG=3
M  V30 48 1 41 6
M  V30 49 1 42 6
M  V30 50 1 43 6
M  V30 51 1 7 44 CFG=1
M  V30 52 1 8 45 CFG=3
M  V30 53 1 46 9
M  V30 54 1 47 9
M  V30 55 1 10 48 CFG=3
M  V30 56 1 11 49 CFG=3
M  V30 57 1 50 12
M  V30 58 1 51 12
M  V30 59 1 52 14
M  V30 60 1 16 53 CFG=3
M  V30 61 1 54 22
M  V30 62 1 55 22
M  V30 63 1 56 23
M  V30 64 1 57 23
M  V30 65 1 58 25
M  V30 66 1 59 25
M  V30 67 1 60 26
M  V30 68 1 61 27
M  V30 69 1 62 27
M  V30 70 1 63 28
M  V30 71 1 64 28
M  V30 72 1 65 29
M  V30 73 1 66 29
M  V30 74 1 67 31
M  V30 75 1 68 31
M  V30 76 1 69 32
M  V30 77 1 70 32
M  V30 78 1 71 35
M  V30 79 1 72 35
M  V30 80 1 73 36
M  V30 81 1 74 36
M  V30 82 1 75 36
M  V30 83 1 37 76 CFG=3
M  V30 84 1 18 77 CFG=1
M  V30 85 1 78 26
M  V30 86 1 34 79 CFG=1
M  V30 END BOND
M  V30 END CTAB
M  END
>  <i_epik_Tot_Q>  (1) 
3

>  <i_epik_Tot_abs_Q>  (1) 
3

>  <i_i_glide_confnum>  (1) 
251

>  <i_i_glide_lignum>  (1) 
78

>  <i_i_glide_posenum>  (1) 
381

>  <i_i_glide_rotatable_bonds>  (1) 
8

>  <i_lp_mmshare_version>  (1) 
72125

>  <i_m_source_file_index>  (1) 
29

>  <i_f3d_flags>  (1) 
0

>  <num_sample>  (1) 
50

>  <b_lp_Chiralities_Consistent>  (1) 
1

>  <r_epik_Charging_Adjusted_Penalty>  (1) 
2.5241965566360229

>  <r_epik_Ionization_Penalty>  (1) 
2.0480993089750741

>  <r_epik_Ionization_Penalty_Charging>  (1) 
2.0477503768466887

>  <r_epik_Ionization_Penalty_Neutral>  (1) 
0.00034893212838530931

>  <r_epik_State_Penalty>  (1) 
0.4764461797893344

>  <r_glide_ring_energy>  (1) 
0.81914574756084313

>  <r_i_docking_score>  (1) 
-5.0978988358426811

>  <r_i_glide_ecoul>  (1) 
-7.0682744834389926

>  <r_i_glide_eff_state_penalty>  (1) 
0.4764461797893344

>  <r_i_glide_einternal>  (1) 
16.092909741162796

>  <r_i_glide_emodel>  (1) 
-32.782356235094987

>  <r_i_glide_emodel_strain>  (1) 
1.2847185330218736

>  <r_i_glide_energy>  (1) 
-34.003352577675983

>  <r_i_glide_erotb>  (1) 
0.44698704239028575

>  <r_i_glide_esite>  (1) 
-0.096877451806376261

>  <r_i_glide_evdw>  (1) 
-26.935078094236992

>  <r_i_glide_gscore>  (1) 
-5.5743450156320158

>  <r_i_glide_gscore_strain>  (1) 
0

>  <r_i_glide_hbond>  (1) 
-0.18756864682624536

>  <r_i_glide_ligand_efficiency>  (1) 
-0.13778104961736976

>  <r_i_glide_ligand_efficiency_ln>  (1) 
-1.1056147457891281

>  <r_i_glide_ligand_efficiency_sa>  (1) 
-0.45911702427771489

>  <r_i_glide_lipo>  (1) 
-2.457248092733086

>  <r_i_glide_metal>  (1) 
-0

>  <r_i_glide_rewards>  (1) 
-0.87264278942889517

>  <r_lp_Energy>  (1) 
76.503242

>  <s_epik_Chemistry_Notes>  (1) 
This compound has an ester and may undergo hydrolysis at high or low pH. This compound contains an acetal/aminal-like group ( X-CH(R)-Y where X, Y are N, S, or O) that may be acid/base labile, releasing an aldehyde.

>  <s_epik_cmdline>  (1) 
J2VwaWtfcHl0aG9uJywgJy1waHQnLCAnMS4wJywgJy1waCcsICc3LjQnLCAnLXRuJywgJzgnLCAnLW1hJywgJzUwMCcsICctaW1hZScsICc8aW5maWxlLm1hZT4nLCAnLW9tYWUnLCAnPG91dGZpbGUubWFlPic=

>  <s_epik_input>  (1) 
Tz1DKE8xKUMxKEYpW0NIMl1bQ0BASF0yW05IXVtDSDJdW0NIMl1OMltDQEBIXTNbQ0gyXVtDSDJdW0NASF0oW0NAQEhdKE80KVtDQEhdMzQpTjVbQ0gyXVtDSDJdW0NAQEhdKFtDQEhdNTYpTihbQ0gyXVtDSDJdNilbQ0BAXShbQ0gzXSkoW0NIMl1bQ0BASF03W09IXSlbQ0BAXTc4W0NASF0oTzgpW0NIMl1PW0NIM10=

>  <s_glide_docking_method>  (1) 
confgen

>  <s_i_glide_gridfile>  (1) 
gpcr_drd2_6luq_protein_autoprepared_prepared

>  <s_lp_Force_Field>  (1) 
S-OPLS

>  <s_lp_Variant>  (1) 
DiffSBDD_28-1

>  <s_m_source_file>  (1) 
generated_generic_title2_ligand_DiffSBDD_2026-06-23_prepared.sdf

>  <GenAI_Model>  (1) 
DiffSBDD

>  <Protein>  (1) 
generic_title2

$$$$
DiffSBDD_39
     RDKit          3D

  0  0  0  0  0  0  0  0  0  0999 V3000
M  V30 BEGIN CTAB
M  V30 COUNTS 68 71 0 0 1
M  V30 BEGIN ATOM
M  V30 1 C 9.059417 5.452364 -9.968690 0
M  V30 2 F 8.203766 1.435049 -12.793081 0
M  V30 3 F 6.132876 0.858362 -12.535512 0
M  V30 4 C 12.941571 9.343800 -2.845354 0
M  V30 5 C 10.364286 6.344194 -7.895046 0
M  V30 6 C 11.466687 8.587285 -7.904437 0 CFG=1
M  V30 7 O 11.775379 9.980058 -2.384883 0
M  V30 8 C 7.290512 4.244790 -13.539696 0 CFG=2
M  V30 9 C 9.709510 7.901057 -11.353502 0
M  V30 10 C 11.375646 7.253774 -5.785506 0 CFG=2
M  V30 11 O 7.621193 4.919713 -15.828438 0
M  V30 12 C 9.569648 6.591857 -12.116816 0
M  V30 13 N 8.650361 5.702537 -11.389093 0 CFG=2 CHG=1
M  V30 14 C 6.821342 1.583753 -14.669293 0
M  V30 15 C 9.640345 6.683445 -9.204633 0 CFG=1
M  V30 16 C 7.223850 6.044244 -11.655275 0
M  V30 17 O 7.441889 2.680447 -15.350489 0
M  V30 18 C 10.780459 8.885697 -9.246087 0
M  V30 19 N 10.722809 7.569291 -7.100493 0 CFG=2 CHG=1
M  V30 20 C 12.549280 8.115381 -3.623565 0 CFG=1
M  V30 21 C 11.787734 7.152957 -2.719843 0
M  V30 22 C 6.808750 5.654843 -13.096925 0
M  V30 23 C 10.490867 7.626248 -10.068124 0 CFG=2
M  V30 24 C 6.981961 3.964050 -15.017497 0 CFG=1
M  V30 25 C 6.621029 3.145709 -12.740549 0
M  V30 26 C 11.145349 6.065820 -3.548440 0
M  V30 27 C 6.950027 1.715987 -13.145387 0
M  V30 28 O 5.858654 3.399873 -11.810299 0
M  V30 29 C 10.471850 6.483760 -4.868340 0
M  V30 30 O 12.638763 8.067283 -8.167808 0 CHG=-1
M  V30 31 C 11.841695 8.489548 -4.961518 0
M  V30 32 H 9.813515 4.671083 -10.005640 0
M  V30 33 H 8.232762 5.015905 -9.408929 0
M  V30 34 H 13.507448 9.990271 -3.509984 0
M  V30 35 H 13.575095 9.087129 -1.997823 0
M  V30 36 H 11.261311 5.763494 -8.084751 0
M  V30 37 H 9.687284 5.698000 -7.341661 0
M  V30 38 H 11.379058 9.528006 -7.365124 0
M  V30 39 H 11.520612 9.589434 -1.561547 0
M  V30 40 H 8.368617 4.142064 -13.417665 0
M  V30 41 H 10.175357 8.601233 -12.012987 0
M  V30 42 H 8.745166 8.349396 -11.117864 0
M  V30 43 H 12.175202 6.564336 -6.016571 0
M  V30 44 H 7.443789 4.693911 -16.728857 0
M  V30 45 H 10.539801 6.103278 -12.227426 0
M  V30 46 H 9.212650 6.778113 -13.127302 0
M  V30 47 H 7.299593 0.657587 -14.985814 0
M  V30 48 H 5.776758 1.480992 -14.954471 0
M  V30 49 H 8.799934 7.247855 -8.847998 0
M  V30 50 H 6.580101 5.572216 -10.914486 0
M  V30 51 H 7.040739 7.113039 -11.576262 0
M  V30 52 H 11.413247 9.587776 -9.780821 0
M  V30 53 H 9.829963 9.390331 -9.089507 0
M  V30 54 H 13.479270 7.606840 -3.843316 0
M  V30 55 H 12.498258 6.694341 -2.028776 0
M  V30 56 H 11.062558 7.624092 -2.053704 0
M  V30 57 H 5.723506 5.732847 -13.190907 0
M  V30 58 H 7.188923 6.407085 -13.787289 0
M  V30 59 H 11.443741 7.166973 -10.325151 0
M  V30 60 H 5.913406 4.068714 -15.183022 0
M  V30 61 H 11.946566 5.374244 -3.794357 0
M  V30 62 H 10.420458 5.596971 -2.899440 0
M  V30 63 H 10.149715 5.590263 -5.353366 0
M  V30 64 H 9.600074 7.095767 -4.785000 0
M  V30 65 H 10.983791 9.134327 -4.769390 0
M  V30 66 H 12.543573 9.097259 -5.536059 0
M  V30 67 H 8.753687 4.797715 -11.820742 0
M  V30 68 H 9.844105 8.014674 -6.880356 0
M  V30 END ATOM
M  V30 BEGIN BOND
M  V30 1 1 7 4
M  V30 2 1 12 9
M  V30 3 1 13 1
M  V30 4 1 13 12
M  V30 5 1 15 1
M  V30 6 1 15 5
M  V30 7 1 16 13
M  V30 8 1 17 14
M  V30 9 1 18 6
M  V30 10 1 19 5
M  V30 11 1 19 6
M  V30 12 1 19 10
M  V30 13 1 20 4
M  V30 14 1 21 20
M  V30 15 1 22 8
M  V30 16 1 22 16
M  V30 17 1 23 9
M  V30 18 1 23 15
M  V30 19 1 23 18
M  V30 20 1 24 8
M  V30 21 1 24 11
M  V30 22 1 24 17
M  V30 23 1 25 8
M  V30 24 1 26 21
M  V30 25 1 27 2
M  V30 26 1 27 3
M  V30 27 1 27 14
M  V30 28 1 27 25
M  V30 29 2 28 25
M  V30 30 1 29 10
M  V30 31 1 29 26
M  V30 32 1 30 6
M  V30 33 1 31 10
M  V30 34 1 31 20
M  V30 35 1 32 1
M  V30 36 1 33 1
M  V30 37 1 34 4
M  V30 38 1 35 4
M  V30 39 1 36 5
M  V30 40 1 37 5
M  V30 41 1 6 38 CFG=1
M  V30 42 1 39 7
M  V30 43 1 8 40 CFG=3
M  V30 44 1 41 9
M  V30 45 1 42 9
M  V30 46 1 10 43 CFG=3
M  V30 47 1 44 11
M  V30 48 1 45 12
M  V30 49 1 46 12
M  V30 50 1 47 14
M  V30 51 1 48 14
M  V30 52 1 15 49 CFG=1
M  V30 53 1 50 16
M  V30 54 1 51 16
M  V30 55 1 52 18
M  V30 56 1 53 18
M  V30 57 1 20 54 CFG=3
M  V30 58 1 55 21
M  V30 59 1 56 21
M  V30 60 1 57 22
M  V30 61 1 58 22
M  V30 62 1 23 59 CFG=3
M  V30 63 1 24 60 CFG=1
M  V30 64 1 61 26
M  V30 65 1 62 26
M  V30 66 1 63 29
M  V30 67 1 64 29
M  V30 68 1 65 31
M  V30 69 1 66 31
M  V30 70 1 13 67 CFG=3
M  V30 71 1 19 68 CFG=1
M  V30 END BOND
M  V30 END CTAB
M  END
>  <i_epik_Tot_Q>  (1) 
1

>  <i_epik_Tot_abs_Q>  (1) 
3

>  <i_i_glide_confnum>  (1) 
326

>  <i_i_glide_lignum>  (1) 
108

>  <i_i_glide_posenum>  (1) 
236

>  <i_i_glide_rotatable_bonds>  (1) 
7

>  <i_lp_mmshare_version>  (1) 
72125

>  <i_m_source_file_index>  (1) 
40

>  <i_f3d_flags>  (1) 
0

>  <num_sample>  (1) 
50

>  <b_lp_Chiralities_Consistent>  (1) 
1

>  <r_epik_Charging_Adjusted_Penalty>  (1) 
0.43569023002306473

>  <r_epik_Ionization_Penalty>  (1) 
0.17475065349743213

>  <r_epik_Ionization_Penalty_Charging>  (1) 
0.17468327186895813

>  <r_epik_Ionization_Penalty_Neutral>  (1) 
6.7381628474014066e-05

>  <r_epik_State_Penalty>  (1) 
0.26100695815410663

>  <r_glide_ring_energy>  (1) 
0

>  <r_i_docking_score>  (1) 
-5.095936201718815

>  <r_i_glide_ecoul>  (1) 
-5.1928654600010953

>  <r_i_glide_eff_state_penalty>  (1) 
0.26100695815410663

>  <r_i_glide_einternal>  (1) 
4.6961064806482291

>  <r_i_glide_emodel>  (1) 
-17.96939233315188

>  <r_i_glide_emodel_strain>  (1) 
2.9630840393777831

>  <r_i_glide_energy>  (1) 
-14.311184456422779

>  <r_i_glide_erotb>  (1) 
0.49989103335302049

>  <r_i_glide_esite>  (1) 
-0.020744361180327457

>  <r_i_glide_evdw>  (1) 
-9.1183189964216833

>  <r_i_glide_gscore>  (1) 
-5.3569431598729214

>  <r_i_glide_gscore_strain>  (1) 
0

>  <r_i_glide_hbond>  (1) 
-0.045156209323313552

>  <r_i_glide_ligand_efficiency>  (1) 
-0.16438503876512306

>  <r_i_glide_ligand_efficiency_ln>  (1) 
-1.149289785176665

>  <r_i_glide_ligand_efficiency_sa>  (1) 
-0.51639598031936684

>  <r_i_glide_lipo>  (1) 
-2.1553828214172435

>  <r_i_glide_metal>  (1) 
-0

>  <r_i_glide_rewards>  (1) 
-2.400705032483808

>  <r_lp_Energy>  (1) 
51.063981999999996

>  <r_lp_tautomer_probability>  (1) 
0.99995000000000001

>  <s_epik_Chemistry_Notes>  (1) 
This compound contains an acetal/aminal-like group ( X-CH(R)-Y where X, Y are N, S, or O) that may be acid/base labile, releasing an aldehyde.

>  <s_epik_cmdline>  (1) 
J2VwaWtfcHl0aG9uJywgJy1waHQnLCAnMS4wJywgJy1waCcsICc3LjQnLCAnLXRuJywgJzgnLCAnLW1hJywgJzUwMCcsICctaW1hZScsICc8aW5maWxlLm1hZT4nLCAnLW9tYWUnLCAnPG91dGZpbGUubWFlPic=

>  <s_epik_input>  (1) 
RkMxKEYpW0NIMl1PW0NASF0oW09IXSlbQ0BIXShDMT1PKVtDSDJdW0NIMl1OKFtDSDJdMilbQ0gyXVtDSDJdW0NASF0oW0NAQEhdMjMpW0NIMl1bQ0BIXShbT0hdKU4oW0NIMl0zKVtDQEBIXTRbQ0gyXVtDSDJdW0NIMl1bQ0BASF0oW0NIMl00KVtDSDJdW09IXQ==

>  <s_glide_docking_method>  (1) 
confgen

>  <s_i_glide_gridfile>  (1) 
gpcr_drd2_6luq_protein_autoprepared_prepared

>  <s_lp_Force_Field>  (1) 
S-OPLS

>  <s_lp_Variant>  (1) 
DiffSBDD_39-4

>  <s_m_source_file>  (1) 
generated_generic_title2_ligand_DiffSBDD_2026-06-23_prepared.sdf

>  <GenAI_Model>  (1) 
DiffSBDD

>  <Protein>  (1) 
generic_title2

$$$$
DiffSBDD_38
     RDKit          3D

  0  0  0  0  0  0  0  0  0  0999 V3000
M  V30 BEGIN CTAB
M  V30 COUNTS 55 57 0 0 1
M  V30 BEGIN ATOM
M  V30 1 C 11.384174 8.927648 -9.021610 0
M  V30 2 C 11.375409 7.725335 -5.356289 0
M  V30 3 N 11.071456 7.585797 -6.765815 0
M  V30 4 C 8.831754 5.159866 -13.705334 0 CFG=2
M  V30 5 C 8.261748 4.069858 -14.583692 0 CFG=1
M  V30 6 C 8.546129 3.794735 -13.121860 0
M  V30 7 C 10.959897 7.983420 -10.136753 0
M  V30 8 C 9.057587 6.450213 -10.931924 0
M  V30 9 C 7.913195 8.511100 -11.985029 0
M  V30 10 C 11.102348 6.732897 -4.461879 0
M  V30 11 C 12.032858 9.058415 -4.951801 0
M  V30 12 C 8.740310 7.240884 -12.227610 0 CFG=2
M  V30 13 C 12.408922 7.951148 -2.667351 0
M  V30 14 C 9.697351 7.229756 -9.753389 0 CFG=1
M  V30 15 C 8.018329 6.364149 -13.270301 0
M  V30 16 C 11.967385 8.261619 -7.759676 0
M  V30 17 C 12.040074 9.234009 -3.419752 0
M  V30 18 C 10.036448 6.269069 -8.616807 0
M  V30 19 C 6.840599 4.098546 -15.095353 0
M  V30 20 C 11.460584 6.790257 -2.986198 0
M  V30 21 C 10.039012 6.771397 -7.171761 0
M  V30 22 O 9.156363 6.390218 -6.409570 0
M  V30 23 H 12.151304 9.583618 -9.436008 0
M  V30 24 H 10.552681 9.573536 -8.785027 0
M  V30 25 H 9.877082 5.393419 -13.903579 0
M  V30 26 H 8.961669 3.674707 -15.316901 0
M  V30 27 H 9.399587 3.175621 -12.859368 0
M  V30 28 H 7.694951 3.702095 -12.450118 0
M  V30 29 H 11.767121 7.305966 -10.417482 0
M  V30 30 H 10.742142 8.580583 -11.011030 0
M  V30 31 H 9.718527 5.620168 -11.183250 0
M  V30 32 H 8.133952 5.990961 -10.575175 0
M  V30 33 H 6.925879 8.273135 -11.587630 0
M  V30 34 H 8.395163 9.186245 -11.279316 0
M  V30 35 H 7.775441 9.062063 -12.912861 0
M  V30 36 H 10.651760 5.813019 -4.791128 0
M  V30 37 H 13.060151 9.190229 -5.292854 0
M  V30 38 H 11.464683 9.880369 -5.391831 0
M  V30 39 H 9.686288 7.550302 -12.668365 0
M  V30 40 H 13.418168 7.659860 -2.953661 0
M  V30 41 H 12.433485 8.132196 -1.592132 0
M  V30 42 H 8.975409 7.953680 -9.387356 0
M  V30 43 H 7.058734 6.032482 -12.871865 0
M  V30 44 H 7.788716 6.954695 -14.158231 0
M  V30 45 H 12.551456 9.056480 -7.313347 0
M  V30 46 H 12.727942 7.549015 -8.065085 0
M  V30 47 H 12.768111 9.990226 -3.149483 0
M  V30 48 H 11.067559 9.590745 -3.080831 0
M  V30 49 H 10.975405 5.763301 -8.785023 0
M  V30 50 H 9.299356 5.464232 -8.627274 0
M  V30 51 H 6.138912 4.373629 -14.307782 0
M  V30 52 H 6.749744 4.812011 -15.914515 0
M  V30 53 H 6.575407 3.107970 -15.463720 0
M  V30 54 H 10.575422 6.790223 -2.352628 0
M  V30 55 H 11.970740 5.859444 -2.739066 0
M  V30 END ATOM
M  V30 BEGIN BOND
M  V30 1 1 3 2
M  V30 2 1 5 4
M  V30 3 1 6 4
M  V30 4 1 6 5
M  V30 5 1 7 1
M  V30 6 2 10 2
M  V30 7 1 11 2
M  V30 8 1 12 8
M  V30 9 1 12 9
M  V30 10 1 14 7
M  V30 11 1 14 8
M  V30 12 1 15 4
M  V30 13 1 15 12
M  V30 14 1 16 1
M  V30 15 1 16 3
M  V30 16 1 17 11
M  V30 17 1 17 13
M  V30 18 1 18 14
M  V30 19 1 19 5
M  V30 20 1 20 10
M  V30 21 1 20 13
M  V30 22 1 21 3
M  V30 23 1 21 18
M  V30 24 2 22 21
M  V30 25 1 23 1
M  V30 26 1 24 1
M  V30 27 1 4 25 CFG=3
M  V30 28 1 5 26 CFG=3
M  V30 29 1 27 6
M  V30 30 1 28 6
M  V30 31 1 29 7
M  V30 32 1 30 7
M  V30 33 1 31 8
M  V30 34 1 32 8
M  V30 35 1 33 9
M  V30 36 1 34 9
M  V30 37 1 35 9
M  V30 38 1 36 10
M  V30 39 1 37 11
M  V30 40 1 38 11
M  V30 41 1 12 39 CFG=3
M  V30 42 1 40 13
M  V30 43 1 41 13
M  V30 44 1 14 42 CFG=1
M  V30 45 1 43 15
M  V30 46 1 44 15
M  V30 47 1 45 16
M  V30 48 1 46 16
M  V30 49 1 47 17
M  V30 50 1 48 17
M  V30 51 1 49 18
M  V30 52 1 50 18
M  V30 53 1 51 19
M  V30 54 1 52 19
M  V30 55 1 53 19
M  V30 56 1 54 20
M  V30 57 1 55 20
M  V30 END BOND
M  V30 END CTAB
M  END
>  <i_epik_Tot_Q>  (1) 
0

>  <i_epik_Tot_abs_Q>  (1) 
0

>  <i_i_glide_confnum>  (1) 
37

>  <i_i_glide_lignum>  (1) 
103

>  <i_i_glide_posenum>  (1) 
373

>  <i_i_glide_rotatable_bonds>  (1) 
5

>  <i_lp_mmshare_version>  (1) 
72125

>  <i_m_source_file_index>  (1) 
39

>  <i_f3d_flags>  (1) 
0

>  <num_sample>  (1) 
50

>  <b_lp_Chiralities_Consistent>  (1) 
1

>  <r_epik_Charging_Adjusted_Penalty>  (1) 
0

>  <r_epik_Ionization_Penalty>  (1) 
3.750095861585333e-08

>  <r_epik_Ionization_Penalty_Charging>  (1) 
0

>  <r_epik_Ionization_Penalty_Neutral>  (1) 
3.750095861585333e-08

>  <r_epik_State_Penalty>  (1) 
-0

>  <r_glide_ring_energy>  (1) 
0

>  <r_i_docking_score>  (1) 
-5.0877617996666187

>  <r_i_glide_ecoul>  (1) 
0.5824176436143047

>  <r_i_glide_eff_state_penalty>  (1) 
-0

>  <r_i_glide_einternal>  (1) 
14.00661992741955

>  <r_i_glide_emodel>  (1) 
-17.918818674922033

>  <r_i_glide_emodel_strain>  (1) 
5.4750065512334629

>  <r_i_glide_energy>  (1) 
-26.080280550428462

>  <r_i_glide_erotb>  (1) 
1.0003538244760346

>  <r_i_glide_esite>  (1) 
0

>  <r_i_glide_evdw>  (1) 
-26.662698194042768

>  <r_i_glide_gscore>  (1) 
-5.0877617996666187

>  <r_i_glide_gscore_strain>  (1) 
0.36875163780836573

>  <r_i_glide_hbond>  (1) 
0

>  <r_i_glide_ligand_efficiency>  (1) 
-0.23126189998484631

>  <r_i_glide_ligand_efficiency_ln>  (1) 
-1.2436345644592617

>  <r_i_glide_ligand_efficiency_sa>  (1) 
-0.64800493943963189

>  <r_i_glide_lipo>  (1) 
-2.7528253739026556

>  <r_i_glide_metal>  (1) 
-0

>  <r_i_glide_rewards>  (1) 
-2.4582696248883718

>  <r_lp_Energy>  (1) 
35.460141

>  <r_lp_tautomer_probability>  (1) 
1

>  <s_epik_cmdline>  (1) 
J2VwaWtfcHl0aG9uJywgJy1waHQnLCAnMS4wJywgJy1waCcsICc3LjQnLCAnLXRuJywgJzgnLCAnLW1hJywgJzUwMCcsICctaW1hZScsICc8aW5maWxlLm1hZT4nLCAnLW9tYWUnLCAnPG91dGZpbGUubWFlPic=

>  <s_epik_input>  (1) 
W0NIMl0xW0NIMl1bQ0gyXVtDSDJdW0NIXT1DMU4yW0NIMl1bQ0gyXVtDSDJdW0NASF0oW0NIMl1DMj1PKVtDSDJdW0NASF0oW0NIM10pW0NIMl1bQ0BASF0zW0NAQEhdKFtDSDJdMylbQ0gzXQ==

>  <s_glide_docking_method>  (1) 
confgen

>  <s_i_glide_gridfile>  (1) 
gpcr_drd2_6luq_protein_autoprepared_prepared

>  <s_lp_Force_Field>  (1) 
S-OPLS

>  <s_lp_Variant>  (1) 
DiffSBDD_38-1

>  <s_m_source_file>  (1) 
generated_generic_title2_ligand_DiffSBDD_2026-06-23_prepared.sdf

>  <GenAI_Model>  (1) 
DiffSBDD

>  <Protein>  (1) 
generic_title2

$$$$
DiffSBDD_39
     RDKit          3D

  0  0  0  0  0  0  0  0  0  0999 V3000
M  V30 BEGIN CTAB
M  V30 COUNTS 68 71 0 0 1
M  V30 BEGIN ATOM
M  V30 1 C 7.737111 5.792348 -15.062011 0
M  V30 2 F 5.964694 3.022650 -21.397120 0
M  V30 3 F 5.624777 3.271335 -19.277321 0
M  V30 4 C 11.398478 8.820964 -9.590041 0
M  V30 5 C 7.502696 6.473160 -12.605529 0
M  V30 6 C 6.548081 4.799575 -11.041200 0 CFG=1
M  V30 7 O 12.627954 8.791027 -8.898905 0
M  V30 8 C 7.166773 5.998692 -19.506002 0 CFG=2
M  V30 9 C 7.589103 2.977431 -14.347254 0
M  V30 10 C 8.782880 5.918921 -10.463681 0 CFG=2
M  V30 11 O 6.085749 7.369569 -21.212714 0
M  V30 12 C 7.659348 3.429213 -15.814711 0
M  V30 13 N 8.320246 4.759514 -15.967790 0 CFG=1 CHG=1
M  V30 14 C 4.734108 4.900816 -20.703435 0
M  V30 15 C 7.890901 5.354425 -13.603578 0 CFG=1
M  V30 16 C 8.442078 5.178262 -17.390328 0
M  V30 17 O 4.773048 6.018593 -19.816637 0
M  V30 18 C 6.984644 3.664387 -11.989250 0
M  V30 19 N 7.454164 5.989830 -11.185011 0 CFG=1 CHG=1
M  V30 20 C 10.747401 7.435638 -9.544676 0 CFG=1
M  V30 21 C 10.332460 7.051198 -8.119803 0
M  V30 22 C 7.147132 5.788955 -17.976220 0
M  V30 23 C 7.031375 4.091226 -13.451406 0 CFG=2
M  V30 24 C 5.919340 6.814491 -19.924725 0 CFG=1
M  V30 25 C 7.204967 4.673873 -20.274199 0
M  V30 26 C 9.810850 5.621246 -8.080677 0
M  V30 27 C 5.883441 3.919234 -20.412895 0
M  V30 28 O 8.253340 4.234040 -20.744537 0
M  V30 29 C 8.598421 5.459748 -8.983273 0
M  V30 30 O 5.375435 5.213503 -11.440182 0 CHG=-1
M  V30 31 C 9.563067 7.278218 -10.533401 0
M  V30 32 H 6.678947 5.929062 -15.292078 0
M  V30 33 H 8.175411 6.775567 -15.185186 0
M  V30 34 H 10.744809 9.588777 -9.185200 0
M  V30 35 H 11.629047 9.081804 -10.617438 0
M  V30 36 H 6.522392 6.867984 -12.879321 0
M  V30 37 H 8.163313 7.328755 -12.720915 0
M  V30 38 H 6.595736 4.375795 -10.043868 0
M  V30 39 H 13.164597 9.521103 -9.190624 0
M  V30 40 H 8.049644 6.581556 -19.769608 0
M  V30 41 H 6.964299 2.085879 -14.269969 0
M  V30 42 H 8.575115 2.685877 -13.986373 0
M  V30 43 H 9.395215 5.162990 -10.956474 0
M  V30 44 H 6.647541 8.126790 -21.142990 0
M  V30 45 H 6.650981 3.468566 -16.219282 0
M  V30 46 H 8.192999 2.674216 -16.394141 0
M  V30 47 H 4.761762 5.234718 -21.741091 0
M  V30 48 H 3.776014 4.399508 -20.576253 0
M  V30 49 H 8.935611 5.103429 -13.417158 0
M  V30 50 H 9.256411 5.900323 -17.475850 0
M  V30 51 H 8.754909 4.309772 -17.970053 0
M  V30 52 H 6.305358 2.813349 -11.899985 0
M  V30 53 H 7.987260 3.331954 -11.718567 0
M  V30 54 H 11.546837 6.790216 -9.871338 0
M  V30 55 H 11.174768 7.147306 -7.433388 0
M  V30 56 H 9.555443 7.731358 -7.766796 0
M  V30 57 H 6.283526 5.177077 -17.716391 0
M  V30 58 H 6.973206 6.754838 -17.502189 0
M  V30 59 H 6.010769 4.309077 -13.775816 0
M  V30 60 H 5.770290 7.657679 -19.249715 0
M  V30 61 H 10.573018 4.909864 -8.385026 0
M  V30 62 H 9.530916 5.366815 -7.057972 0
M  V30 63 H 8.345232 4.405493 -8.928302 0
M  V30 64 H 7.774613 5.989693 -8.522938 0
M  V30 65 H 8.881039 8.112431 -10.385076 0
M  V30 66 H 9.968994 7.408132 -11.536379 0
M  V30 67 H 9.270551 4.617017 -15.650802 0
M  V30 68 H 6.976021 6.714733 -10.643566 0
M  V30 END ATOM
M  V30 BEGIN BOND
M  V30 1 1 7 4
M  V30 2 1 12 9
M  V30 3 1 13 1
M  V30 4 1 13 12
M  V30 5 1 15 1
M  V30 6 1 15 5
M  V30 7 1 16 13
M  V30 8 1 17 14
M  V30 9 1 18 6
M  V30 10 1 19 5
M  V30 11 1 19 6
M  V30 12 1 19 10
M  V30 13 1 20 4
M  V30 14 1 21 20
M  V30 15 1 22 8
M  V30 16 1 22 16
M  V30 17 1 23 9
M  V30 18 1 23 15
M  V30 19 1 23 18
M  V30 20 1 24 8
M  V30 21 1 24 11
M  V30 22 1 24 17
M  V30 23 1 25 8
M  V30 24 1 26 21
M  V30 25 1 27 2
M  V30 26 1 27 3
M  V30 27 1 27 14
M  V30 28 1 27 25
M  V30 29 2 28 25
M  V30 30 1 29 10
M  V30 31 1 29 26
M  V30 32 1 30 6
M  V30 33 1 31 10
M  V30 34 1 31 20
M  V30 35 1 32 1
M  V30 36 1 33 1
M  V30 37 1 34 4
M  V30 38 1 35 4
M  V30 39 1 36 5
M  V30 40 1 37 5
M  V30 41 1 6 38 CFG=1
M  V30 42 1 39 7
M  V30 43 1 8 40 CFG=1
M  V30 44 1 41 9
M  V30 45 1 42 9
M  V30 46 1 10 43 CFG=3
M  V30 47 1 44 11
M  V30 48 1 45 12
M  V30 49 1 46 12
M  V30 50 1 47 14
M  V30 51 1 48 14
M  V30 52 1 15 49 CFG=3
M  V30 53 1 50 16
M  V30 54 1 51 16
M  V30 55 1 52 18
M  V30 56 1 53 18
M  V30 57 1 20 54 CFG=3
M  V30 58 1 55 21
M  V30 59 1 56 21
M  V30 60 1 57 22
M  V30 61 1 58 22
M  V30 62 1 23 59 CFG=3
M  V30 63 1 24 60 CFG=1
M  V30 64 1 61 26
M  V30 65 1 62 26
M  V30 66 1 63 29
M  V30 67 1 64 29
M  V30 68 1 65 31
M  V30 69 1 66 31
M  V30 70 1 13 67 CFG=1
M  V30 71 1 19 68 CFG=1
M  V30 END BOND
M  V30 END CTAB
M  END
>  <i_epik_Tot_Q>  (1) 
1

>  <i_epik_Tot_abs_Q>  (1) 
3

>  <i_i_glide_confnum>  (1) 
40

>  <i_i_glide_lignum>  (1) 
105

>  <i_i_glide_posenum>  (1) 
96

>  <i_i_glide_rotatable_bonds>  (1) 
7

>  <i_lp_mmshare_version>  (1) 
72125

>  <i_m_source_file_index>  (1) 
40

>  <i_f3d_flags>  (1) 
0

>  <num_sample>  (1) 
50

>  <b_lp_Chiralities_Consistent>  (1) 
1

>  <r_epik_Charging_Adjusted_Penalty>  (1) 
0.43569023002306473

>  <r_epik_Ionization_Penalty>  (1) 
0.17475065349743213

>  <r_epik_Ionization_Penalty_Charging>  (1) 
0.17468327186895813

>  <r_epik_Ionization_Penalty_Neutral>  (1) 
6.7381628474014066e-05

>  <r_epik_State_Penalty>  (1) 
0.26100695815410663

>  <r_glide_ring_energy>  (1) 
1.2534239858202438

>  <r_i_docking_score>  (1) 
-5.0870104930551134

>  <r_i_glide_ecoul>  (1) 
-7.9165243555906724

>  <r_i_glide_eff_state_penalty>  (1) 
0.26100695815410663

>  <r_i_glide_einternal>  (1) 
4.4122638330510213

>  <r_i_glide_emodel>  (1) 
-37.231047792719075

>  <r_i_glide_emodel_strain>  (1) 
0.57626427206324848

>  <r_i_glide_energy>  (1) 
-30.737731190087381

>  <r_i_glide_erotb>  (1) 
0.49989103335302049

>  <r_i_glide_esite>  (1) 
-0.12631116544766016

>  <r_i_glide_evdw>  (1) 
-22.82120683449671

>  <r_i_glide_gscore>  (1) 
-5.3480174512092198

>  <r_i_glide_gscore_strain>  (1) 
0

>  <r_i_glide_hbond>  (1) 
-0.52000000000000002

>  <r_i_glide_ligand_efficiency>  (1) 
-0.16409711267919722

>  <r_i_glide_ligand_efficiency_ln>  (1) 
-1.1472767643328807

>  <r_i_glide_ligand_efficiency_sa>  (1) 
-0.51549149488372059

>  <r_i_glide_lipo>  (1) 
-1.3048803193031062

>  <r_i_glide_metal>  (1) 
-0

>  <r_i_glide_rewards>  (1) 
-1.5681780047480374

>  <r_lp_Energy>  (1) 
47.853707

>  <r_lp_tautomer_probability>  (1) 
0.99995000000000001

>  <s_epik_Chemistry_Notes>  (1) 
This compound contains an acetal/aminal-like group ( X-CH(R)-Y where X, Y are N, S, or O) that may be acid/base labile, releasing an aldehyde.

>  <s_epik_cmdline>  (1) 
J2VwaWtfcHl0aG9uJywgJy1waHQnLCAnMS4wJywgJy1waCcsICc3LjQnLCAnLXRuJywgJzgnLCAnLW1hJywgJzUwMCcsICctaW1hZScsICc8aW5maWxlLm1hZT4nLCAnLW9tYWUnLCAnPG91dGZpbGUubWFlPic=

>  <s_epik_input>  (1) 
RkMxKEYpW0NIMl1PW0NASF0oW09IXSlbQ0BIXShDMT1PKVtDSDJdW0NIMl1OKFtDSDJdMilbQ0gyXVtDSDJdW0NASF0oW0NAQEhdMjMpW0NIMl1bQ0BIXShbT0hdKU4oW0NIMl0zKVtDQEBIXTRbQ0gyXVtDSDJdW0NIMl1bQ0BASF0oW0NIMl00KVtDSDJdW09IXQ==

>  <s_glide_docking_method>  (1) 
confgen

>  <s_i_glide_gridfile>  (1) 
gpcr_drd2_6luq_protein_autoprepared_prepared

>  <s_lp_Force_Field>  (1) 
S-OPLS

>  <s_lp_Variant>  (1) 
DiffSBDD_39-1

>  <s_m_source_file>  (1) 
generated_generic_title2_ligand_DiffSBDD_2026-06-23_prepared.sdf

>  <GenAI_Model>  (1) 
DiffSBDD

>  <Protein>  (1) 
generic_title2

$$$$
DiffSBDD_14
     RDKit          3D

  0  0  0  0  0  0  0  0  0  0999 V3000
M  V30 BEGIN CTAB
M  V30 COUNTS 71 74 0 0 1
M  V30 BEGIN ATOM
M  V30 1 C 5.875721 4.684565 -11.008411 0
M  V30 2 O 9.512065 3.955006 -16.815985 0
M  V30 3 C 7.958894 2.561940 -17.817229 0 CFG=2
M  V30 4 O 8.175274 1.907495 -15.009008 0
M  V30 5 C 11.935246 9.099659 -9.652992 0
M  V30 6 C 10.191595 7.172225 -9.619322 0
M  V30 7 N 8.675329 6.786983 -11.536925 0
M  V30 8 C 11.250715 7.981441 -8.874144 0 CFG=2
M  V30 9 C 11.287424 6.957839 -4.135762 0
M  V30 10 C 9.916035 3.912130 -18.182678 0
M  V30 11 C 12.176212 9.258530 -2.255068 0
M  V30 12 C 11.714764 7.798206 -5.023324 0
M  V30 13 C 10.284794 6.326297 -5.987870 0
M  V30 14 C 11.304452 7.443285 -6.404679 0 CFG=1
M  V30 15 C 7.982380 4.211006 -14.244039 0
M  V30 16 C 11.632080 8.102507 -1.881847 0
M  V30 17 C 7.809549 0.886082 -15.928403 0
M  V30 18 C 10.820983 8.468223 -7.448150 0 CFG=2
M  V30 19 C 8.129974 3.640197 -16.750713 0 CFG=1
M  V30 20 C 8.438282 1.196731 -17.292526 0
M  V30 21 O 8.698156 4.861163 -10.296858 0
M  V30 22 C 8.216240 5.553233 -11.191528 0
M  V30 23 O 10.505234 5.990221 -4.587999 0
M  V30 24 C 8.839642 3.109085 -18.928498 0
M  V30 25 C 12.575412 8.939500 -4.747424 0
M  V30 26 C 11.591585 6.871033 -2.684969 0
M  V30 27 C 9.313941 8.789540 -7.320481 0
M  V30 28 C 9.667846 7.521516 -10.822705 0
M  V30 29 C 7.328463 3.833484 -12.901760 0
M  V30 30 C 7.008572 5.036711 -11.988381 0 CFG=1
M  V30 31 C 12.781273 9.559299 -3.557151 0
M  V30 32 C 7.659515 3.191660 -15.351035 0 CFG=1
M  V30 33 H 5.615269 5.541752 -10.385326 0
M  V30 34 H 4.975432 4.387871 -11.543703 0
M  V30 35 H 6.151661 3.862535 -10.346275 0
M  V30 36 H 6.916516 2.486391 -18.130254 0
M  V30 37 H 12.118259 8.824018 -10.689464 0
M  V30 38 H 11.375498 10.030964 -9.586513 0
M  V30 39 H 12.915959 9.266060 -9.211114 0
M  V30 40 H 9.868491 6.282310 -9.120299 0
M  V30 41 H 8.254119 7.250864 -12.326540 0
M  V30 42 H 12.048190 7.246033 -8.794447 0
M  V30 43 H 10.896940 3.442641 -18.258737 0
M  V30 44 H 9.992214 4.924261 -18.581845 0
M  V30 45 H 12.175458 10.050387 -1.522448 0
M  V30 46 H 10.378456 5.495678 -6.678100 0
M  V30 47 H 9.242199 6.630199 -6.024254 0
M  V30 48 H 12.175412 6.920001 -6.784988 0
M  V30 49 H 7.612554 5.184124 -14.566618 0
M  V30 50 H 9.059215 4.324734 -14.118888 0
M  V30 51 H 11.218650 8.023410 -0.890337 0
M  V30 52 H 8.174275 -0.071314 -15.553998 0
M  V30 53 H 6.723355 0.808720 -16.001691 0
M  V30 54 H 11.365217 9.389559 -7.237256 0
M  V30 55 H 7.577320 4.534580 -17.046211 0
M  V30 56 H 9.523711 1.193159 -17.184554 0
M  V30 57 H 8.196708 0.411441 -18.008769 0
M  V30 58 H 9.255013 2.330266 -19.568943 0
M  V30 59 H 8.257373 3.779892 -19.562323 0
M  V30 60 H 13.090483 9.364411 -5.597357 0
M  V30 61 H 10.837160 6.224829 -2.233013 0
M  V30 62 H 12.538918 6.346408 -2.559943 0
M  V30 63 H 8.681486 7.943614 -7.585236 0
M  V30 64 H 9.072964 9.044883 -6.292042 0
M  V30 65 H 8.975391 9.590226 -7.968607 0
M  V30 66 H 9.966352 8.417555 -11.339270 0
M  V30 67 H 7.954618 3.104303 -12.385004 0
M  V30 68 H 6.393463 3.310489 -13.108609 0
M  V30 69 H 6.628176 5.851246 -12.605694 0
M  V30 70 H 13.433531 10.390232 -3.585202 0
M  V30 71 H 6.575393 3.094613 -15.399582 0
M  V30 END ATOM
M  V30 BEGIN BOND
M  V30 1 1 8 5
M  V30 2 1 8 6
M  V30 3 1 10 2
M  V30 4 2 12 9
M  V30 5 1 14 12
M  V30 6 1 14 13
M  V30 7 2 16 11
M  V30 8 1 17 4
M  V30 9 1 18 8
M  V30 10 1 18 14
M  V30 11 1 19 2
M  V30 12 1 19 3
M  V30 13 1 20 3
M  V30 14 1 20 17
M  V30 15 1 22 7
M  V30 16 2 22 21
M  V30 17 1 23 9
M  V30 18 1 23 13
M  V30 19 1 24 3
M  V30 20 1 24 10
M  V30 21 1 25 12
M  V30 22 1 26 9
M  V30 23 1 26 16
M  V30 24 1 27 18
M  V30 25 2 28 6
M  V30 26 1 28 7
M  V30 27 1 29 15
M  V30 28 1 30 1
M  V30 29 1 30 22
M  V30 30 1 30 29
M  V30 31 1 31 11
M  V30 32 2 31 25
M  V30 33 1 32 4
M  V30 34 1 32 15
M  V30 35 1 32 19
M  V30 36 1 33 1
M  V30 37 1 34 1
M  V30 38 1 35 1
M  V30 39 1 3 36 CFG=3
M  V30 40 1 37 5
M  V30 41 1 38 5
M  V30 42 1 39 5
M  V30 43 1 40 6
M  V30 44 1 41 7
M  V30 45 1 8 42 CFG=1
M  V30 46 1 43 10
M  V30 47 1 44 10
M  V30 48 1 45 11
M  V30 49 1 46 13
M  V30 50 1 47 13
M  V30 51 1 14 48 CFG=3
M  V30 52 1 49 15
M  V30 53 1 50 15
M  V30 54 1 51 16
M  V30 55 1 52 17
M  V30 56 1 53 17
M  V30 57 1 18 54 CFG=1
M  V30 58 1 19 55 CFG=3
M  V30 59 1 56 20
M  V30 60 1 57 20
M  V30 61 1 58 24
M  V30 62 1 59 24
M  V30 63 1 60 25
M  V30 64 1 61 26
M  V30 65 1 62 26
M  V30 66 1 63 27
M  V30 67 1 64 27
M  V30 68 1 65 27
M  V30 69 1 66 28
M  V30 70 1 67 29
M  V30 71 1 68 29
M  V30 72 1 30 69 CFG=3
M  V30 73 1 70 31
M  V30 74 1 32 71 CFG=3
M  V30 END BOND
M  V30 END CTAB
M  END
>  <i_epik_Tot_Q>  (1) 
0

>  <i_epik_Tot_abs_Q>  (1) 
0

>  <i_i_glide_confnum>  (1) 
346

>  <i_i_glide_lignum>  (1) 
52

>  <i_i_glide_posenum>  (1) 
224

>  <i_i_glide_rotatable_bonds>  (1) 
9

>  <i_lp_mmshare_version>  (1) 
72125

>  <i_m_source_file_index>  (1) 
15

>  <i_f3d_flags>  (1) 
0

>  <num_sample>  (1) 
50

>  <b_lp_Chiralities_Consistent>  (1) 
1

>  <r_epik_Charging_Adjusted_Penalty>  (1) 
0

>  <r_epik_Ionization_Penalty>  (1) 
2.2973717276536928e-08

>  <r_epik_Ionization_Penalty_Charging>  (1) 
0

>  <r_epik_Ionization_Penalty_Neutral>  (1) 
2.2973717276536928e-08

>  <r_epik_State_Penalty>  (1) 
-0

>  <r_glide_ring_energy>  (1) 
0.054208003355328584

>  <r_i_docking_score>  (1) 
-5.0819454386548433

>  <r_i_glide_ecoul>  (1) 
1.0046638640797192

>  <r_i_glide_eff_state_penalty>  (1) 
-0

>  <r_i_glide_einternal>  (1) 
7.6267004876288578

>  <r_i_glide_emodel>  (1) 
-24.659078865765107

>  <r_i_glide_emodel_strain>  (1) 
4.6045898620515544

>  <r_i_glide_energy>  (1) 
-25.714426690690864

>  <r_i_glide_erotb>  (1) 
0.7170138056727231

>  <r_i_glide_esite>  (1) 
-0.13361979789818482

>  <r_i_glide_evdw>  (1) 
-26.719090554770585

>  <r_i_glide_gscore>  (1) 
-5.0819454386548433

>  <r_i_glide_gscore_strain>  (1) 
0.1511474655128886

>  <r_i_glide_hbond>  (1) 
0

>  <r_i_glide_ligand_efficiency>  (1) 
-0.15881079495796385

>  <r_i_glide_ligand_efficiency_ln>  (1) 
-1.1379861123155073

>  <r_i_glide_ligand_efficiency_sa>  (1) 
-0.50419284596035574

>  <r_i_glide_lipo>  (1) 
-3.3347676157497652

>  <r_i_glide_metal>  (1) 
-0

>  <r_i_glide_rewards>  (1) 
-1.2964643480659335

>  <r_lp_Energy>  (1) 
21.48593

>  <r_lp_tautomer_probability>  (1) 
1

>  <s_epik_cmdline>  (1) 
J2VwaWtfcHl0aG9uJywgJy1waHQnLCAnMS4wJywgJy1waCcsICc3LjQnLCAnLXRuJywgJzgnLCAnLW1hJywgJzUwMCcsICctaW1hZScsICc8aW5maWxlLm1hZT4nLCAnLW9tYWUnLCAnPG91dGZpbGUubWFlPic=

>  <s_epik_input>  (1) 
W0NIMl0xW0NIMl1PW0NAQEhdKFtDQEBIXTEyKVtDQEBIXShPW0NIMl1bQ0gyXTIpW0NIMl1bQ0gyXVtDQEBIXShbQ0gzXSlDKD1PKVtOSF1cW0NIXT1bQ0hdXFtDQEBIXShbQ0gzXSlbQ0BASF0oW0NIM10pW0NASF0oW0NIMl1PMylDKD1DMzQpW0NIXT1bQ0hdW0NIXT1bQ0hdW0NIMl00

>  <s_glide_docking_method>  (1) 
confgen

>  <s_i_glide_gridfile>  (1) 
gpcr_drd2_6luq_protein_autoprepared_prepared

>  <s_lp_Force_Field>  (1) 
S-OPLS

>  <s_lp_Variant>  (1) 
DiffSBDD_14-1

>  <s_m_source_file>  (1) 
generated_generic_title2_ligand_DiffSBDD_2026-06-23_prepared.sdf

>  <GenAI_Model>  (1) 
DiffSBDD

>  <Protein>  (1) 
generic_title2

$$$$
DiffSBDD_2
     RDKit          3D

  0  0  0  0  0  0  0  0  0  0999 V3000
M  V30 BEGIN CTAB
M  V30 COUNTS 61 63 0 0 1
M  V30 BEGIN ATOM
M  V30 1 C 9.735898 6.874273 -9.984470 0 CFG=1
M  V30 2 C 6.255779 6.750049 -13.133209 0
M  V30 3 C 9.933665 8.390239 -10.109295 0
M  V30 4 C 3.577451 7.137456 -17.985013 0
M  V30 5 N 7.338490 3.303083 -18.050541 0
M  V30 6 C 6.376731 5.981222 -14.443558 0 CFG=2
M  V30 7 C 8.170721 4.991754 -10.510729 0
M  V30 8 C 7.655354 5.847139 -15.260242 0 CFG=2
M  V30 9 C 7.293996 0.880036 -18.252737 0
M  V30 10 C 7.375398 4.415639 -17.405396 0
M  V30 11 C 7.911414 2.116183 -17.609605 0
M  V30 12 C 5.789575 6.355610 -16.975892 0 CFG=1
M  V30 13 C 7.505447 7.547135 -12.719423 0
M  V30 14 C 8.673281 6.662547 -12.241220 0
M  V30 15 C 6.549968 6.752852 -15.731104 0 CFG=1
M  V30 16 C 6.156468 5.474843 -19.390743 0
M  V30 17 C 7.836300 4.862507 -9.035155 0
M  V30 18 C 9.106564 5.117673 -8.234384 0
M  V30 19 O 8.825007 1.994950 -16.791389 0
M  V30 20 C 4.957929 7.554002 -17.483003 0
M  V30 21 C 6.776098 5.712033 -17.993136 0 CFG=2
M  V30 22 C 9.598142 6.538290 -8.485363 0
M  V30 23 N 8.575413 6.390237 -10.787000 0 CFG=2 CHG=1
M  V30 24 C 7.990175 4.561727 -15.998550 0
M  V30 25 H 10.608216 6.390234 -10.390843 0
M  V30 26 H 5.411424 7.433498 -13.230364 0
M  V30 27 H 5.973429 6.057085 -12.342193 0
M  V30 28 H 10.767408 8.729471 -9.493790 0
M  V30 29 H 10.153858 8.693585 -11.127841 0
M  V30 30 H 9.044067 8.933784 -9.786429 0
M  V30 31 H 3.028077 7.990286 -18.383734 0
M  V30 32 H 3.679633 6.397469 -18.774845 0
M  V30 33 H 2.979914 6.697315 -17.186379 0
M  V30 34 H 5.684575 5.142636 -14.497977 0
M  V30 35 H 7.291842 4.727262 -11.097506 0
M  V30 36 H 8.965010 4.299732 -10.796866 0
M  V30 37 H 8.543464 6.374751 -14.935279 0
M  V30 38 H 7.385980 0.924447 -19.338228 0
M  V30 39 H 6.235992 0.809547 -17.998324 0
M  V30 40 H 7.788759 -0.026563 -17.902626 0
M  V30 41 H 5.075411 5.590232 -16.675740 0
M  V30 42 H 7.820706 8.165640 -13.558022 0
M  V30 43 H 7.241895 8.257614 -11.934836 0
M  V30 44 H 8.714564 5.721898 -12.790319 0
M  V30 45 H 9.616001 7.147730 -12.487312 0
M  V30 46 H 6.767285 7.816098 -15.644965 0
M  V30 47 H 6.888266 5.051408 -20.080247 0
M  V30 48 H 5.311011 4.787170 -19.342518 0
M  V30 49 H 5.811364 6.401440 -19.846030 0
M  V30 50 H 7.073842 5.590197 -8.785035 0
M  V30 51 H 7.375393 3.915682 -8.788810 0
M  V30 52 H 8.889619 5.015735 -7.185036 0
M  V30 53 H 9.878129 4.390217 -8.486192 0
M  V30 54 H 4.801194 8.273638 -16.678335 0
M  V30 55 H 5.488182 8.092645 -18.265724 0
M  V30 56 H 7.605083 6.405891 -18.141239 0
M  V30 57 H 8.894245 7.227765 -8.016640 0
M  V30 58 H 10.550073 6.693877 -7.976637 0
M  V30 59 H 7.662668 3.738829 -15.363015 0
M  V30 60 H 9.075900 4.494647 -16.081109 0
M  V30 61 H 7.804980 6.963019 -10.426079 0
M  V30 END ATOM
M  V30 BEGIN BOND
M  V30 1 1 3 1
M  V30 2 1 6 2
M  V30 3 1 8 6
M  V30 4 2 10 5
M  V30 5 1 11 5
M  V30 6 1 11 9
M  V30 7 1 13 2
M  V30 8 1 14 13
M  V30 9 1 15 6
M  V30 10 1 15 8
M  V30 11 1 15 12
M  V30 12 1 17 7
M  V30 13 1 18 17
M  V30 14 2 19 11
M  V30 15 1 20 4
M  V30 16 1 20 12
M  V30 17 1 21 10
M  V30 18 1 21 12
M  V30 19 1 21 16
M  V30 20 1 22 1
M  V30 21 1 22 18
M  V30 22 1 23 1
M  V30 23 1 23 7
M  V30 24 1 23 14
M  V30 25 1 24 8
M  V30 26 1 24 10
M  V30 27 1 1 25 CFG=3
M  V30 28 1 26 2
M  V30 29 1 27 2
M  V30 30 1 28 3
M  V30 31 1 29 3
M  V30 32 1 30 3
M  V30 33 1 31 4
M  V30 34 1 32 4
M  V30 35 1 33 4
M  V30 36 1 6 34 CFG=3
M  V30 37 1 35 7
M  V30 38 1 36 7
M  V30 39 1 8 37 CFG=1
M  V30 40 1 38 9
M  V30 41 1 39 9
M  V30 42 1 40 9
M  V30 43 1 12 41 CFG=1
M  V30 44 1 42 13
M  V30 45 1 43 13
M  V30 46 1 44 14
M  V30 47 1 45 14
M  V30 48 1 15 46 CFG=1
M  V30 49 1 47 16
M  V30 50 1 48 16
M  V30 51 1 49 16
M  V30 52 1 50 17
M  V30 53 1 51 17
M  V30 54 1 52 18
M  V30 55 1 53 18
M  V30 56 1 54 20
M  V30 57 1 55 20
M  V30 58 1 21 56 CFG=3
M  V30 59 1 57 22
M  V30 60 1 58 22
M  V30 61 1 59 24
M  V30 62 1 60 24
M  V30 63 1 23 61 CFG=1
M  V30 END BOND
M  V30 END CTAB
M  END
>  <i_epik_Tot_Q>  (1) 
1

>  <i_epik_Tot_abs_Q>  (1) 
1

>  <i_i_glide_confnum>  (1) 
178

>  <i_i_glide_lignum>  (1) 
22

>  <i_i_glide_posenum>  (1) 
199

>  <i_i_glide_rotatable_bonds>  (1) 
6

>  <i_lp_mmshare_version>  (1) 
72125

>  <i_m_source_file_index>  (1) 
3

>  <i_f3d_flags>  (1) 
0

>  <num_sample>  (1) 
50

>  <b_lp_Chiralities_Consistent>  (1) 
1

>  <r_epik_Charging_Adjusted_Penalty>  (1) 
0.0011657924221308697

>  <r_epik_Ionization_Penalty>  (1) 
0.0011657924221308697

>  <r_epik_Ionization_Penalty_Charging>  (1) 
0.0011657924221308697

>  <r_epik_Ionization_Penalty_Neutral>  (1) 
0

>  <r_epik_State_Penalty>  (1) 
-0

>  <r_glide_ring_energy>  (1) 
0

>  <r_i_docking_score>  (1) 
-5.0806671831935324

>  <r_i_glide_ecoul>  (1) 
-5.3917480969364471

>  <r_i_glide_eff_state_penalty>  (1) 
-0

>  <r_i_glide_einternal>  (1) 
8.4578132137781488

>  <r_i_glide_emodel>  (1) 
-36.381892374097696

>  <r_i_glide_emodel_strain>  (1) 
0.20115550861852682

>  <r_i_glide_energy>  (1) 
-28.363789887348734

>  <r_i_glide_erotb>  (1) 
0.84713914833173298

>  <r_i_glide_esite>  (1) 
-0.096602615605498682

>  <r_i_glide_evdw>  (1) 
-22.972041790412288

>  <r_i_glide_gscore>  (1) 
-5.0806671831935324

>  <r_i_glide_gscore_strain>  (1) 
0

>  <r_i_glide_hbond>  (1) 
-0.20000000000000001

>  <r_i_glide_ligand_efficiency>  (1) 
-0.21169446596639718

>  <r_i_glide_ligand_efficiency_ln>  (1) 
-1.2160367935638632

>  <r_i_glide_ligand_efficiency_sa>  (1) 
-0.61063250515298528

>  <r_i_glide_lipo>  (1) 
-1.5329296411041287

>  <r_i_glide_metal>  (1) 
-0

>  <r_i_glide_rewards>  (1) 
-2.1409097707545568

>  <r_lp_Energy>  (1) 
45.021229999999996

>  <r_lp_tautomer_probability>  (1) 
1

>  <s_epik_Chemistry_Notes>  (1) 
This compound has an imine and may undergo hydrolysis.

>  <s_epik_cmdline>  (1) 
J2VwaWtfcHl0aG9uJywgJy1waHQnLCAnMS4wJywgJy1waCcsICc3LjQnLCAnLXRuJywgJzgnLCAnLW1hJywgJzUwMCcsICctaW1hZScsICc8aW5maWxlLm1hZT4nLCAnLW9tYWUnLCAnPG91dGZpbGUubWFlPic=

>  <s_epik_input>  (1) 
W0NIM11bQ0BIXTFbQ0gyXVtDSDJdW0NIMl1bQ0gyXU4xW0NIMl1bQ0gyXVtDSDJdW0NASF0yW0NAQEhdKFtDQEBIXTIzKVtDQEBIXShbQ0gyXVtDSDNdKVtDQEhdKFtDSDNdKVxDKFtDSDJdMyk9TlxDKD1PKVtDSDNd

>  <s_glide_docking_method>  (1) 
confgen

>  <s_i_glide_gridfile>  (1) 
gpcr_drd2_6luq_protein_autoprepared_prepared

>  <s_lp_Force_Field>  (1) 
S-OPLS

>  <s_lp_Variant>  (1) 
DiffSBDD_2-2

>  <s_m_source_file>  (1) 
generated_generic_title2_ligand_DiffSBDD_2026-06-23_prepared.sdf

>  <GenAI_Model>  (1) 
DiffSBDD

>  <Protein>  (1) 
generic_title2

$$$$
DiffSBDD_28
     RDKit          3D

  0  0  0  0  0  0  0  0  0  0999 V3000
M  V30 BEGIN CTAB
M  V30 COUNTS 79 86 0 0 1
M  V30 BEGIN ATOM
M  V30 1 F 10.580581 3.057986 -18.801507 0
M  V30 2 C 11.199254 7.319981 -7.543143 0 CFG=1
M  V30 3 C 9.317085 6.449822 -10.591119 0 CFG=2
M  V30 4 C 10.661116 8.660639 -5.187598 0 CFG=2
M  V30 5 C 8.320316 5.758566 -14.630619 0 CFG=1
M  V30 6 C 11.314279 6.051841 -6.693489 0
M  V30 7 C 7.394472 5.734895 -12.166404 0 CFG=2
M  V30 8 C 7.912654 4.195598 -17.558720 0 CFG=1
M  V30 9 C 9.469411 7.969805 -10.668925 0
M  V30 10 C 7.614213 4.474631 -15.010958 0 CFG=1
M  V30 11 C 12.328907 9.178284 -7.248005 0 CFG=1
M  V30 12 C 7.768301 4.863244 -9.826306 0
M  V30 13 C 11.237073 8.463338 -6.551876 0 CFG=1
M  V30 14 O 13.377809 9.590229 -6.385006 0
M  V30 15 C 10.240223 4.390856 -18.660191 0 CFG=1
M  V30 16 C 8.245688 6.362109 -13.250685 0 CFG=1
M  V30 17 O 9.371070 5.590029 -13.665727 0
M  V30 18 N 7.924298 5.972614 -10.784958 0 CFG=1 CHG=1
M  V30 19 O 12.463774 9.190627 -3.619568 0
M  V30 20 C 10.231836 5.139410 -19.937545 0
M  V30 21 O 10.035644 9.190107 -6.358270 0
M  V30 22 C 6.548753 4.096653 -13.957048 0
M  V30 23 C 12.470464 7.961924 -8.163856 0
M  V30 24 N 9.962848 7.298369 -8.367547 0
M  V30 25 C 11.276723 9.671271 -4.227851 0
M  V30 26 N 7.128282 4.677489 -18.724839 0 CHG=1
M  V30 27 C 7.073685 4.252533 -12.517855 0
M  V30 28 C 6.051799 5.576546 -18.266875 0
M  V30 29 C 6.208125 5.683188 -16.753028 0
M  V30 30 O 9.242784 5.801020 -20.255137 0
M  V30 31 C 8.539893 5.276954 -8.587190 0
M  V30 32 C 9.322842 4.843708 -17.528496 0
M  V30 33 O 11.217086 5.393913 -19.101686 0
M  V30 34 N 7.042321 4.517199 -16.388790 0 CFG=1 CHG=1
M  V30 35 C 9.700249 8.450199 -9.234775 0
M  V30 36 C 12.228544 8.210812 -2.622899 0
M  V30 37 C 9.703169 6.094410 -9.146124 0 CFG=1
M  V30 38 H 10.001523 5.938697 -11.269879 0
M  V30 39 H 10.178099 7.780144 -4.785085 0
M  V30 40 H 8.605235 6.390179 -15.455023 0
M  V30 41 H 12.175420 6.069421 -6.030800 0
M  V30 42 H 10.435617 5.932321 -6.059927 0
M  V30 43 H 11.375764 5.151506 -7.289067 0
M  V30 44 H 6.443543 6.269331 -12.180103 0
M  V30 45 H 8.020888 3.111856 -17.616703 0
M  V30 46 H 8.612566 8.470405 -11.120591 0
M  V30 47 H 10.342595 8.207537 -11.273001 0
M  V30 48 H 8.361675 3.679493 -14.996838 0
M  V30 49 H 11.893675 9.990243 -7.804145 0
M  V30 50 H 8.260066 3.990233 -10.237668 0
M  V30 51 H 6.726734 4.626723 -9.615215 0
M  V30 52 H 14.055378 9.975496 -6.919395 0
M  V30 53 H 8.416228 7.434127 -13.184409 0
M  V30 54 H 6.229937 3.065448 -14.111059 0
M  V30 55 H 5.654528 4.711477 -14.065339 0
M  V30 56 H 12.419231 8.187022 -9.228832 0
M  V30 57 H 13.384998 7.434598 -7.941015 0
M  V30 58 H 11.524566 10.574177 -4.786047 0
M  V30 59 H 10.575371 9.990283 -3.466605 0
M  V30 60 H 6.720735 3.892967 -19.217604 0
M  V30 61 H 7.965728 3.634517 -12.413277 0
M  V30 62 H 6.328846 3.847948 -11.830767 0
M  V30 63 H 5.089006 5.135572 -18.528721 0
M  V30 64 H 6.116347 6.550880 -18.754384 0
M  V30 65 H 5.249018 5.679350 -16.235777 0
M  V30 66 H 6.698168 6.626638 -16.518771 0
M  V30 67 H 8.874120 4.428111 -7.990638 0
M  V30 68 H 7.907831 5.896616 -7.950982 0
M  V30 69 H 9.231656 5.930382 -17.559141 0
M  V30 70 H 9.845134 4.605668 -16.602457 0
M  V30 71 H 8.818649 8.973359 -8.867829 0
M  V30 72 H 10.489864 9.193379 -9.222481 0
M  V30 73 H 13.173702 7.950760 -2.150073 0
M  V30 74 H 11.560284 8.585362 -1.846759 0
M  V30 75 H 11.802325 7.300555 -3.046799 0
M  V30 76 H 10.575412 5.462046 -9.185061 0
M  V30 77 H 7.375481 6.727004 -10.352869 0
M  V30 78 H 7.736149 5.177100 -19.369244 0
M  V30 79 H 6.391423 3.743663 -16.381218 0
M  V30 END ATOM
M  V30 BEGIN BOND
M  V30 1 1 2 6 CFG=1
M  V30 2 1 9 3
M  V30 3 1 10 5
M  V30 4 1 13 2
M  V30 5 1 13 4
M  V30 6 1 13 11
M  V30 7 1 14 11
M  V30 8 1 15 1 CFG=3
M  V30 9 1 16 5
M  V30 10 1 16 7
M  V30 11 1 17 5
M  V30 12 1 17 16
M  V30 13 1 18 3
M  V30 14 1 18 7
M  V30 15 1 18 12
M  V30 16 1 20 15
M  V30 17 1 21 4
M  V30 18 1 13 21 CFG=3
M  V30 19 1 22 10
M  V30 20 1 23 2
M  V30 21 1 23 11
M  V30 22 1 24 2
M  V30 23 1 25 4
M  V30 24 1 25 19
M  V30 25 1 26 8
M  V30 26 1 27 7
M  V30 27 1 27 22
M  V30 28 1 28 26
M  V30 29 1 29 28
M  V30 30 2 30 20
M  V30 31 1 31 12
M  V30 32 1 32 8
M  V30 33 1 32 15
M  V30 34 1 33 15
M  V30 35 1 33 20
M  V30 36 1 34 8
M  V30 37 1 34 10
M  V30 38 1 34 29
M  V30 39 1 35 9
M  V30 40 1 35 24
M  V30 41 1 36 19
M  V30 42 1 37 3
M  V30 43 1 37 24
M  V30 44 1 37 31
M  V30 45 1 3 38 CFG=3
M  V30 46 1 4 39 CFG=1
M  V30 47 1 5 40 CFG=3
M  V30 48 1 41 6
M  V30 49 1 42 6
M  V30 50 1 43 6
M  V30 51 1 7 44 CFG=1
M  V30 52 1 8 45 CFG=3
M  V30 53 1 46 9
M  V30 54 1 47 9
M  V30 55 1 10 48 CFG=3
M  V30 56 1 11 49 CFG=3
M  V30 57 1 50 12
M  V30 58 1 51 12
M  V30 59 1 52 14
M  V30 60 1 16 53 CFG=3
M  V30 61 1 54 22
M  V30 62 1 55 22
M  V30 63 1 56 23
M  V30 64 1 57 23
M  V30 65 1 58 25
M  V30 66 1 59 25
M  V30 67 1 60 26
M  V30 68 1 61 27
M  V30 69 1 62 27
M  V30 70 1 63 28
M  V30 71 1 64 28
M  V30 72 1 65 29
M  V30 73 1 66 29
M  V30 74 1 67 31
M  V30 75 1 68 31
M  V30 76 1 69 32
M  V30 77 1 70 32
M  V30 78 1 71 35
M  V30 79 1 72 35
M  V30 80 1 73 36
M  V30 81 1 74 36
M  V30 82 1 75 36
M  V30 83 1 37 76 CFG=3
M  V30 84 1 18 77 CFG=1
M  V30 85 1 78 26
M  V30 86 1 34 79 CFG=1
M  V30 END BOND
M  V30 END CTAB
M  END
>  <i_epik_Tot_Q>  (1) 
3

>  <i_epik_Tot_abs_Q>  (1) 
3

>  <i_i_glide_confnum>  (1) 
251

>  <i_i_glide_lignum>  (1) 
78

>  <i_i_glide_posenum>  (1) 
381

>  <i_i_glide_rotatable_bonds>  (1) 
8

>  <i_lp_mmshare_version>  (1) 
72125

>  <i_m_source_file_index>  (1) 
29

>  <i_f3d_flags>  (1) 
0

>  <num_sample>  (1) 
50

>  <b_lp_Chiralities_Consistent>  (1) 
1

>  <r_epik_Charging_Adjusted_Penalty>  (1) 
2.5241965566360229

>  <r_epik_Ionization_Penalty>  (1) 
2.0480993089750741

>  <r_epik_Ionization_Penalty_Charging>  (1) 
2.0477503768466887

>  <r_epik_Ionization_Penalty_Neutral>  (1) 
0.00034893212838530931

>  <r_epik_State_Penalty>  (1) 
0.4764461797893344

>  <r_glide_ring_energy>  (1) 
0.81914574756084313

>  <r_i_docking_score>  (1) 
-5.0800331472866018

>  <r_i_glide_ecoul>  (1) 
-6.9102215835116105

>  <r_i_glide_eff_state_penalty>  (1) 
0.4764461797893344

>  <r_i_glide_einternal>  (1) 
18.718530622716823

>  <r_i_glide_emodel>  (1) 
-31.942298174548803

>  <r_i_glide_emodel_strain>  (1) 
0.85291446544039218

>  <r_i_glide_energy>  (1) 
-34.070293880909972

>  <r_i_glide_erotb>  (1) 
0.44698704239028575

>  <r_i_glide_esite>  (1) 
-0.096637367762186455

>  <r_i_glide_evdw>  (1) 
-27.160072297398365

>  <r_i_glide_gscore>  (1) 
-5.5564793270759365

>  <r_i_glide_gscore_strain>  (1) 
0

>  <r_i_glide_hbond>  (1) 
-0.19587075548163829

>  <r_i_glide_ligand_efficiency>  (1) 
-0.13729819316990816

>  <r_i_glide_ligand_efficiency_ln>  (1) 
-1.1017400967724784

>  <r_i_glide_ligand_efficiency_sa>  (1) 
-0.4575080394722752

>  <r_i_glide_lipo>  (1) 
-2.4512476532849128

>  <r_i_glide_metal>  (1) 
-0

>  <r_i_glide_rewards>  (1) 
-0.86517374054082474

>  <r_lp_Energy>  (1) 
76.503242

>  <s_epik_Chemistry_Notes>  (1) 
This compound has an ester and may undergo hydrolysis at high or low pH. This compound contains an acetal/aminal-like group ( X-CH(R)-Y where X, Y are N, S, or O) that may be acid/base labile, releasing an aldehyde.

>  <s_epik_cmdline>  (1) 
J2VwaWtfcHl0aG9uJywgJy1waHQnLCAnMS4wJywgJy1waCcsICc3LjQnLCAnLXRuJywgJzgnLCAnLW1hJywgJzUwMCcsICctaW1hZScsICc8aW5maWxlLm1hZT4nLCAnLW9tYWUnLCAnPG91dGZpbGUubWFlPic=

>  <s_epik_input>  (1) 
Tz1DKE8xKUMxKEYpW0NIMl1bQ0BASF0yW05IXVtDSDJdW0NIMl1OMltDQEBIXTNbQ0gyXVtDSDJdW0NASF0oW0NAQEhdKE80KVtDQEhdMzQpTjVbQ0gyXVtDSDJdW0NAQEhdKFtDQEhdNTYpTihbQ0gyXVtDSDJdNilbQ0BAXShbQ0gzXSkoW0NIMl1bQ0BASF03W09IXSlbQ0BAXTc4W0NASF0oTzgpW0NIMl1PW0NIM10=

>  <s_glide_docking_method>  (1) 
confgen

>  <s_i_glide_gridfile>  (1) 
gpcr_drd2_6luq_protein_autoprepared_prepared

>  <s_lp_Force_Field>  (1) 
S-OPLS

>  <s_lp_Variant>  (1) 
DiffSBDD_28-1

>  <s_m_source_file>  (1) 
generated_generic_title2_ligand_DiffSBDD_2026-06-23_prepared.sdf

>  <GenAI_Model>  (1) 
DiffSBDD

>  <Protein>  (1) 
generic_title2

$$$$
DiffSBDD_19
     RDKit          3D

  0  0  0  0  0  0  0  0  0  0999 V3000
M  V30 BEGIN CTAB
M  V30 COUNTS 54 57 0 0 1
M  V30 BEGIN ATOM
M  V30 1 C 11.602876 8.687698 -7.136476 0
M  V30 2 C 11.198306 7.577656 -6.152422 0 CFG=1
M  V30 3 C 7.285911 5.733690 -13.993625 0
M  V30 4 C 8.848615 8.129683 -11.586501 0
M  V30 5 C 6.718708 4.477962 -13.297985 0 CFG=1
M  V30 6 C 10.179374 7.541015 -11.241210 0 CFG=1
M  V30 7 N 8.273329 6.377067 -13.142551 0
M  V30 8 N 11.476007 7.870838 -4.754253 0
M  V30 9 C 8.018440 7.565907 -12.464090 0
M  V30 10 O 10.145514 6.808271 -10.038654 0
M  V30 11 C 9.745790 7.156800 -6.385026 0
M  V30 12 N 9.504550 5.667076 -12.847737 0
M  V30 13 S 12.175410 7.562593 -2.207241 0
M  V30 14 C 11.811928 9.079705 -4.246417 0
M  V30 15 C 9.612065 6.584227 -7.792547 0
M  V30 16 C 9.149555 4.580328 -11.925857 0
M  V30 17 C 11.531253 6.743474 -3.801477 0
M  V30 18 O 5.474736 6.098741 -11.850654 0
M  V30 19 S 8.086373 3.382698 -12.786526 0
M  V30 20 C 10.575391 6.579410 -12.361648 0
M  V30 21 C 12.175434 9.107495 -3.000481 0
M  V30 22 C 11.480852 8.170149 -8.568593 0
M  V30 23 C 5.796216 3.990200 -10.869521 0
M  V30 24 C 5.642139 4.739046 -12.194317 0 CFG=2
M  V30 25 C 10.084834 7.581372 -8.858807 0 CFG=1
M  V30 26 H 10.975360 9.567373 -6.999206 0
M  V30 27 H 12.633412 8.999511 -6.962298 0
M  V30 28 H 11.814592 6.708015 -6.383972 0
M  V30 29 H 7.778706 5.449595 -14.923718 0
M  V30 30 H 6.487920 6.425926 -14.265079 0
M  V30 31 H 8.570839 9.047975 -11.090967 0
M  V30 32 H 6.204068 3.909423 -14.073264 0
M  V30 33 H 10.920726 8.331005 -11.185006 0
M  V30 34 H 7.060352 8.000595 -12.698886 0
M  V30 35 H 9.071337 8.003912 -6.251707 0
M  V30 36 H 9.439024 6.394651 -5.668384 0
M  V30 37 H 11.756513 9.927333 -4.911793 0
M  V30 38 H 8.575367 6.303393 -7.985362 0
M  V30 39 H 10.198004 5.666455 -7.861705 0
M  V30 40 H 8.660783 4.979839 -11.037379 0
M  V30 41 H 10.056447 4.069600 -11.605651 0
M  V30 42 H 10.538109 6.330904 -3.628431 0
M  V30 43 H 12.175411 5.940713 -4.147805 0
M  V30 44 H 6.209194 6.383239 -11.319474 0
M  V30 45 H 11.436915 5.990226 -12.059654 0
M  V30 46 H 10.943167 7.178357 -13.185019 0
M  V30 47 H 12.471990 9.990230 -2.457819 0
M  V30 48 H 12.231123 7.399518 -8.732957 0
M  V30 49 H 11.716905 8.980959 -9.257252 0
M  V30 50 H 5.775413 2.912499 -11.025359 0
M  V30 51 H 6.711553 4.249814 -10.340576 0
M  V30 52 H 4.975418 4.218414 -10.197610 0
M  V30 53 H 4.689579 4.417823 -12.617508 0
M  V30 54 H 9.354003 8.387003 -8.932043 0
M  V30 END ATOM
M  V30 BEGIN BOND
M  V30 1 1 2 1
M  V30 2 1 5 3
M  V30 3 1 6 4
M  V30 4 1 7 3
M  V30 5 1 8 2
M  V30 6 2 9 4
M  V30 7 1 9 7
M  V30 8 1 10 6
M  V30 9 1 11 2
M  V30 10 1 12 7
M  V30 11 1 14 8
M  V30 12 1 15 11
M  V30 13 1 16 12
M  V30 14 1 17 8
M  V30 15 1 17 13
M  V30 16 1 19 5
M  V30 17 1 19 16
M  V30 18 1 20 6
M  V30 19 1 20 12
M  V30 20 1 21 13
M  V30 21 2 21 14
M  V30 22 1 22 1
M  V30 23 1 24 5
M  V30 24 1 24 18
M  V30 25 1 24 23
M  V30 26 1 25 10
M  V30 27 1 25 15
M  V30 28 1 25 22
M  V30 29 1 26 1
M  V30 30 1 27 1
M  V30 31 1 2 28 CFG=3
M  V30 32 1 29 3
M  V30 33 1 30 3
M  V30 34 1 31 4
M  V30 35 1 5 32 CFG=3
M  V30 36 1 6 33 CFG=1
M  V30 37 1 34 9
M  V30 38 1 35 11
M  V30 39 1 36 11
M  V30 40 1 37 14
M  V30 41 1 38 15
M  V30 42 1 39 15
M  V30 43 1 40 16
M  V30 44 1 41 16
M  V30 45 1 42 17
M  V30 46 1 43 17
M  V30 47 1 44 18
M  V30 48 1 45 20
M  V30 49 1 46 20
M  V30 50 1 47 21
M  V30 51 1 48 22
M  V30 52 1 49 22
M  V30 53 1 50 23
M  V30 54 1 51 23
M  V30 55 1 52 23
M  V30 56 1 24 53 CFG=3
M  V30 57 1 25 54 CFG=3
M  V30 END BOND
M  V30 END CTAB
M  END
>  <i_epik_Tot_Q>  (1) 
0

>  <i_epik_Tot_abs_Q>  (1) 
0

>  <i_i_glide_confnum>  (1) 
46

>  <i_i_glide_lignum>  (1) 
63

>  <i_i_glide_posenum>  (1) 
375

>  <i_i_glide_rotatable_bonds>  (1) 
5

>  <i_lp_mmshare_version>  (1) 
72125

>  <i_m_source_file_index>  (1) 
20

>  <i_f3d_flags>  (1) 
0

>  <num_sample>  (1) 
50

>  <b_lp_Chiralities_Consistent>  (1) 
1

>  <r_epik_Charging_Adjusted_Penalty>  (1) 
6.6703818214750742e-05

>  <r_epik_Ionization_Penalty>  (1) 
7.3220417460206425e-05

>  <r_epik_Ionization_Penalty_Charging>  (1) 
6.6703818214750742e-05

>  <r_epik_Ionization_Penalty_Neutral>  (1) 
6.5165992454556827e-06

>  <r_epik_State_Penalty>  (1) 
-0

>  <r_glide_ring_energy>  (1) 
0

>  <r_i_docking_score>  (1) 
-5.072731570837675

>  <r_i_glide_ecoul>  (1) 
-1.2623473108736694

>  <r_i_glide_eff_state_penalty>  (1) 
-0

>  <r_i_glide_einternal>  (1) 
19.154161562975911

>  <r_i_glide_emodel>  (1) 
-36.594093314185649

>  <r_i_glide_emodel_strain>  (1) 
6.3843335883298948

>  <r_i_glide_energy>  (1) 
-44.573188575373365

>  <r_i_glide_erotb>  (1) 
0.52832890103692032

>  <r_i_glide_esite>  (1) 
0

>  <r_i_glide_evdw>  (1) 
-43.310841264499693

>  <r_i_glide_gscore>  (1) 
-5.072731570837675

>  <r_i_glide_gscore_strain>  (1) 
0.59608339708247371

>  <r_i_glide_hbond>  (1) 
0

>  <r_i_glide_ligand_efficiency>  (1) 
-0.20290926283350699

>  <r_i_glide_ligand_efficiency_ln>  (1) 
-1.2023893997866479

>  <r_i_glide_ligand_efficiency_sa>  (1) 
-0.59331028377287109

>  <r_i_glide_lipo>  (1) 
-2.8954111095583817

>  <r_i_glide_metal>  (1) 
-0

>  <r_i_glide_rewards>  (1) 
-0.94683859954265148

>  <r_lp_Energy>  (1) 
18.166922

>  <r_lp_tautomer_probability>  (1) 
1

>  <s_epik_Chemistry_Notes>  (1) 
This compound has an imine and may undergo hydrolysis. This compound contains an acetal/aminal-like group ( X-CH(R)-Y where X, Y are N, S, or O) that may be acid/base labile, releasing an aldehyde.

>  <s_epik_cmdline>  (1) 
J2VwaWtfcHl0aG9uJywgJy1waHQnLCAnMS4wJywgJy1waCcsICc3LjQnLCAnLXRuJywgJzgnLCAnLW1hJywgJzUwMCcsICctaW1hZScsICc8aW5maWxlLm1hZT4nLCAnLW9tYWUnLCAnPG91dGZpbGUubWFlPic=

>  <s_epik_input>  (1) 
W0NIMl0xU1tDSF09W0NIXU4xW0NAQEhdMltDSDJdW0NIMl1bQ0BIXShbQ0gyXVtDSDJdMilPW0NASF0oW0NIXT1bQ0hdMylbQ0gyXU4oTjM0KVtDSDJdU1tDQEhdKFtDSDJdNClbQ0BIXShbT0hdKVtDSDNd

>  <s_glide_docking_method>  (1) 
confgen

>  <s_i_glide_gridfile>  (1) 
gpcr_drd2_6luq_protein_autoprepared_prepared

>  <s_lp_Force_Field>  (1) 
S-OPLS

>  <s_lp_Variant>  (1) 
DiffSBDD_19-1

>  <s_m_source_file>  (1) 
generated_generic_title2_ligand_DiffSBDD_2026-06-23_prepared.sdf

>  <GenAI_Model>  (1) 
DiffSBDD

>  <Protein>  (1) 
generic_title2

$$$$
DiffSBDD_0
     RDKit          3D

  0  0  0  0  0  0  0  0  0  0999 V3000
M  V30 BEGIN CTAB
M  V30 COUNTS 70 74 0 0 1
M  V30 BEGIN ATOM
M  V30 1 C 12.143266 9.397672 -6.545416 0
M  V30 2 N 7.975164 4.428771 -12.325246 0
M  V30 3 C 7.407290 6.033939 -16.175025 0 CFG=1
M  V30 4 C 9.301046 4.390417 -10.272826 0
M  V30 5 F 11.902706 7.984644 -9.951657 0
M  V30 6 C 7.600927 5.843625 -12.295398 0
M  V30 7 C 10.907305 8.721390 -5.937179 0
M  V30 8 C 9.003089 5.705230 -8.382006 0
M  V30 9 C 10.202490 7.938088 -8.284578 0 CFG=1
M  V30 10 C 9.631207 5.030996 -17.323175 0
M  V30 11 C 7.429993 3.681499 -13.436170 0 CFG=1
M  V30 12 C 6.832152 0.159736 -12.711730 0
M  V30 13 C 8.236262 5.589559 -17.388070 0 CFG=1
M  V30 14 O 8.832640 5.576564 -9.789380 0
M  V30 15 C 11.478463 8.607003 -8.849661 0 CFG=1
M  V30 16 C 7.089696 4.750964 -16.860407 0 CFG=1
M  V30 17 N 7.942549 5.701809 -14.827445 0 CFG=2 CHG=1
M  V30 18 C 10.328686 6.414444 -8.107176 0
M  V30 19 C 6.492652 1.628199 -12.907541 0
M  V30 20 C 8.045271 4.222704 -14.715191 0 CFG=2
M  V30 21 O 5.775396 -0.409840 -11.985187 0
M  V30 22 C 9.760384 8.602432 -6.962332 0
M  V30 23 N 10.016407 3.923031 -18.021095 0
M  V30 24 C 7.209052 6.372512 -13.707120 0
M  V30 25 N 10.565791 5.590245 -16.555568 0
M  V30 26 O 11.691117 4.773729 -16.742076 0
M  V30 27 C 11.265581 3.828279 -17.600484 0
M  V30 28 O 7.633134 2.309297 -13.393796 0
M  V30 29 N 12.209841 2.868584 -17.922170 0
M  V30 30 C 8.892484 3.862814 -11.439389 0
M  V30 31 C 12.609809 8.667844 -7.817137 0
M  V30 32 C 13.583204 2.695241 -17.487692 0
M  V30 33 C 7.339260 3.599043 -15.922401 0
M  V30 34 H 11.893825 10.431052 -6.784066 0
M  V30 35 H 12.949311 9.443006 -5.811917 0
M  V30 36 H 6.726968 6.881447 -16.244823 0
M  V30 37 H 10.018526 3.925929 -9.614015 0
M  V30 38 H 6.807396 6.019318 -11.566995 0
M  V30 39 H 8.464707 6.420653 -11.964986 0
M  V30 40 H 10.575502 9.290246 -5.069917 0
M  V30 41 H 11.176784 7.734983 -5.561001 0
M  V30 42 H 8.175368 6.275858 -7.968764 0
M  V30 43 H 8.967554 4.740351 -7.872857 0
M  V30 44 H 9.415666 8.112718 -9.019874 0
M  V30 45 H 6.355478 3.881481 -13.438295 0
M  V30 46 H 7.760416 0.051757 -12.153131 0
M  V30 47 H 6.953652 -0.352733 -13.667434 0
M  V30 48 H 8.075612 6.109504 -18.330300 0
M  V30 49 H 11.239307 9.617398 -9.179377 0
M  V30 50 H 6.215706 4.705793 -17.507493 0
M  V30 51 H 10.678434 6.165406 -7.106581 0
M  V30 52 H 11.073329 6.009937 -8.782335 0
M  V30 53 H 5.656425 1.726498 -13.601353 0
M  V30 54 H 6.175354 2.072636 -11.964112 0
M  V30 55 H 9.105554 3.990189 -14.716964 0
M  V30 56 H 5.384471 -1.099574 -12.521092 0
M  V30 57 H 9.372788 9.590062 -7.185096 0
M  V30 58 H 8.922489 8.058394 -6.523187 0
M  V30 59 H 6.138771 6.206549 -13.851662 0
M  V30 60 H 7.358652 7.452232 -13.760133 0
M  V30 61 H 11.888447 2.158718 -18.562813 0
M  V30 62 H 9.272479 2.906503 -11.771288 0
M  V30 63 H 13.479382 9.168565 -8.245197 0
M  V30 64 H 12.932734 7.654152 -7.584948 0
M  V30 65 H 14.077334 1.928661 -18.084151 0
M  V30 66 H 14.137421 3.628015 -17.597496 0
M  V30 67 H 13.612729 2.398211 -16.439027 0
M  V30 68 H 6.410918 3.144024 -15.588198 0
M  V30 69 H 7.931896 2.820902 -16.403393 0
M  V30 70 H 8.893646 6.044266 -14.783664 0
M  V30 END ATOM
M  V30 BEGIN BOND
M  V30 1 1 6 2
M  V30 2 1 7 1
M  V30 3 1 11 2
M  V30 4 1 13 3
M  V30 5 1 13 10
M  V30 6 1 14 4
M  V30 7 1 14 8
M  V30 8 1 15 5
M  V30 9 1 15 9
M  V30 10 1 16 3
M  V30 11 1 16 13
M  V30 12 1 17 3
M  V30 13 1 18 8
M  V30 14 1 18 9
M  V30 15 1 19 12
M  V30 16 1 20 11
M  V30 17 1 20 17
M  V30 18 1 21 12
M  V30 19 1 22 7
M  V30 20 1 22 9
M  V30 21 1 23 10
M  V30 22 1 24 6
M  V30 23 1 24 17
M  V30 24 2 25 10
M  V30 25 1 26 25
M  V30 26 2 27 23
M  V30 27 1 27 26
M  V30 28 1 28 11
M  V30 29 1 28 19
M  V30 30 1 29 27
M  V30 31 1 30 2
M  V30 32 2 30 4
M  V30 33 1 31 1
M  V30 34 1 31 15
M  V30 35 1 32 29
M  V30 36 1 33 16
M  V30 37 1 33 20
M  V30 38 1 34 1
M  V30 39 1 35 1
M  V30 40 1 3 36 CFG=1
M  V30 41 1 37 4
M  V30 42 1 38 6
M  V30 43 1 39 6
M  V30 44 1 40 7
M  V30 45 1 41 7
M  V30 46 1 42 8
M  V30 47 1 43 8
M  V30 48 1 9 44 CFG=3
M  V30 49 1 11 45 CFG=3
M  V30 50 1 46 12
M  V30 51 1 47 12
M  V30 52 1 13 48 CFG=3
M  V30 53 1 15 49 CFG=3
M  V30 54 1 16 50 CFG=3
M  V30 55 1 51 18
M  V30 56 1 52 18
M  V30 57 1 53 19
M  V30 58 1 54 19
M  V30 59 1 20 55 CFG=1
M  V30 60 1 56 21
M  V30 61 1 57 22
M  V30 62 1 58 22
M  V30 63 1 59 24
M  V30 64 1 60 24
M  V30 65 1 61 29
M  V30 66 1 62 30
M  V30 67 1 63 31
M  V30 68 1 64 31
M  V30 69 1 65 32
M  V30 70 1 66 32
M  V30 71 1 67 32
M  V30 72 1 68 33
M  V30 73 1 69 33
M  V30 74 1 17 70 CFG=3
M  V30 END BOND
M  V30 END CTAB
M  END
>  <i_epik_Tot_Q>  (1) 
1

>  <i_epik_Tot_abs_Q>  (1) 
1

>  <i_i_glide_confnum>  (1) 
334

>  <i_i_glide_lignum>  (1) 
15

>  <i_i_glide_posenum>  (1) 
335

>  <i_i_glide_rotatable_bonds>  (1) 
11

>  <i_lp_mmshare_version>  (1) 
72125

>  <i_m_source_file_index>  (1) 
1

>  <i_f3d_flags>  (1) 
0

>  <num_sample>  (1) 
50

>  <b_lp_Chiralities_Consistent>  (1) 
1

>  <r_epik_Charging_Adjusted_Penalty>  (1) 
0.41344222577729461

>  <r_epik_Ionization_Penalty>  (1) 
0.0027644559619576371

>  <r_epik_Ionization_Penalty_Charging>  (1) 
0.0027623868246906495

>  <r_epik_Ionization_Penalty_Neutral>  (1) 
2.0691372669875143e-06

>  <r_epik_State_Penalty>  (1) 
0.41067983895260396

>  <r_glide_ring_energy>  (1) 
1.678368750750399

>  <r_i_docking_score>  (1) 
-5.0663349267708453

>  <r_i_glide_ecoul>  (1) 
-2.6971471742514908

>  <r_i_glide_eff_state_penalty>  (1) 
0.41067983895260396

>  <r_i_glide_einternal>  (1) 
6.5072726892528552

>  <r_i_glide_emodel>  (1) 
-42.106806037188996

>  <r_i_glide_emodel_strain>  (1) 
2.0533348970011929

>  <r_i_glide_energy>  (1) 
-37.06719703810073

>  <r_i_glide_erotb>  (1) 
0.74142510397790429

>  <r_i_glide_esite>  (1) 
-0.0081456853302221844

>  <r_i_glide_evdw>  (1) 
-34.370049863849239

>  <r_i_glide_gscore>  (1) 
-5.4770147657234496

>  <r_i_glide_gscore_strain>  (1) 
0

>  <r_i_glide_hbond>  (1) 
-0.16

>  <r_i_glide_ligand_efficiency>  (1) 
-0.15352530081123775

>  <r_i_glide_ligand_efficiency_ln>  (1) 
-1.1267266556354958

>  <r_i_glide_ligand_efficiency_sa>  (1) 
-0.49243767287498119

>  <r_i_glide_lipo>  (1) 
-2.3512778292969392

>  <r_i_glide_metal>  (1) 
-0

>  <r_i_glide_rewards>  (1) 
-1.5759417857440063

>  <r_lp_Energy>  (1) 
42.741957999999997

>  <r_lp_tautomer_probability>  (1) 
0.5

>  <s_epik_Chemistry_Notes>  (1) 
This compound has an imine and may undergo hydrolysis. This compound contains an acetal/aminal-like group ( X-CH(R)-Y where X, Y are N, S, or O) that may be acid/base labile, releasing an aldehyde.

>  <s_epik_cmdline>  (1) 
J2VwaWtfcHl0aG9uJywgJy1waHQnLCAnMS4wJywgJy1waCcsICc3LjQnLCAnLXRuJywgJzgnLCAnLW1hJywgJzUwMCcsICctaW1hZScsICc8aW5maWxlLm1hZT4nLCAnLW9tYWUnLCAnPG91dGZpbGUubWFlPic=

>  <s_epik_input>  (1) 
W0NIMl0xW0NIMl1bQ0gyXVtDSDJdW0NASF0oRilbQ0BIXTFbQ0gyXVtDSDJdTy9bQ0hdPVtDSF1cTihbQ0BIXTJPW0NIMl1bQ0gyXVtPSF0pW0NIMl1bQ0gyXU4zW0NAQEhdMltDSDJdW0NAQEhdKFtDQEBIXTM0KVtDQEBIXTRjNW5jKG9uNSlbTkhdW0NIM10=

>  <s_glide_docking_method>  (1) 
confgen

>  <s_i_glide_gridfile>  (1) 
gpcr_drd2_6luq_protein_autoprepared_prepared

>  <s_lp_Force_Field>  (1) 
S-OPLS

>  <s_lp_Variant>  (1) 
DiffSBDD_0-15

>  <s_m_source_file>  (1) 
generated_generic_title2_ligand_DiffSBDD_2026-06-23_prepared.sdf

>  <GenAI_Model>  (1) 
DiffSBDD

>  <Protein>  (1) 
generic_title2

$$$$
DiffSBDD_0
     RDKit          3D

  0  0  0  0  0  0  0  0  0  0999 V3000
M  V30 BEGIN CTAB
M  V30 COUNTS 70 74 0 0 1
M  V30 BEGIN ATOM
M  V30 1 C 11.771439 8.933646 -6.877138 0
M  V30 2 N 7.734417 3.800264 -13.105291 0
M  V30 3 C 7.410042 5.414919 -17.039282 0 CFG=1
M  V30 4 C 9.002213 3.999030 -10.985669 0
M  V30 5 F 11.634503 7.819827 -10.385252 0
M  V30 6 C 7.217103 5.176242 -13.187043 0
M  V30 7 C 10.497740 8.241666 -6.382409 0
M  V30 8 C 8.575412 5.409938 -9.153462 0
M  V30 9 C 9.844930 7.670934 -8.820397 0 CFG=1
M  V30 10 C 9.989892 4.808706 -17.461322 0
M  V30 11 C 7.355109 2.936003 -14.239389 0 CFG=1
M  V30 12 C 5.945111 0.783970 -12.839654 0
M  V30 13 C 8.599121 5.081901 -17.951013 0 CFG=1
M  V30 14 O 8.439756 5.176203 -10.563376 0
M  V30 15 C 11.173935 8.343105 -9.250074 0 CFG=1
M  V30 16 C 7.460162 4.098130 -17.788338 0 CFG=1
M  V30 17 N 7.323047 4.939547 -15.634442 0 CFG=1 CHG=1
M  V30 18 C 9.893437 6.128658 -8.820820 0
M  V30 19 C 6.890801 0.596195 -14.042251 0
M  V30 20 C 7.898317 3.594073 -15.505797 0 CFG=2
M  V30 21 O 5.775654 -0.409769 -12.115175 0
M  V30 22 C 9.384533 8.218378 -7.449979 0
M  V30 23 N 10.742164 3.767132 -17.916814 0
M  V30 24 C 7.673377 5.836191 -14.513871 0
M  V30 25 N 10.568256 5.590955 -16.552992 0
M  V30 26 O 11.844811 5.034968 -16.385016 0
M  V30 27 C 11.843107 3.975164 -17.212416 0
M  V30 28 O 7.856616 1.636455 -14.166575 0
M  V30 29 N 13.010966 3.236020 -17.204005 0
M  V30 30 C 8.666613 3.374883 -12.140312 0
M  V30 31 C 12.263231 8.277965 -8.169602 0
M  V30 32 C 13.384996 2.036072 -17.926301 0
M  V30 33 C 7.538783 2.919956 -16.829087 0
M  V30 34 H 11.575923 9.990351 -7.045281 0
M  V30 35 H 12.542818 8.892800 -6.110191 0
M  V30 36 H 6.661942 6.151100 -17.328930 0
M  V30 37 H 9.738355 3.619283 -10.290576 0
M  V30 38 H 6.127838 5.129820 -13.149698 0
M  V30 39 H 7.506093 5.839696 -12.383066 0
M  V30 40 H 10.146633 8.749476 -5.487796 0
M  V30 41 H 10.733837 7.221913 -6.077369 0
M  V30 42 H 7.735329 5.990061 -8.786870 0
M  V30 43 H 8.517263 4.468180 -8.603331 0
M  V30 44 H 9.109971 7.953418 -9.573843 0
M  V30 45 H 6.264869 2.916030 -14.270329 0
M  V30 46 H 4.974289 1.138543 -13.185025 0
M  V30 47 H 6.331457 1.525320 -12.143640 0
M  V30 48 H 8.652698 5.626140 -18.892365 0
M  V30 49 H 10.978609 9.390437 -9.482461 0
M  V30 50 H 6.817242 3.962609 -18.655653 0
M  V30 51 H 10.299412 5.757983 -7.879750 0
M  V30 52 H 10.575413 5.818496 -9.584927 0
M  V30 53 H 7.449201 -0.336000 -13.950476 0
M  V30 54 H 6.312396 0.510736 -14.963505 0
M  V30 55 H 8.975384 3.657564 -15.400991 0
M  V30 56 H 5.427499 -1.089531 -12.694527 0
M  V30 57 H 8.975767 9.216624 -7.583711 0
M  V30 58 H 8.569407 7.609071 -7.071019 0
M  V30 59 H 7.200579 6.809651 -14.643701 0
M  V30 60 H 8.751090 5.990214 -14.497271 0
M  V30 61 H 13.720798 3.576686 -16.572739 0
M  V30 62 H 9.136496 2.436676 -12.396394 0
M  V30 63 H 13.169738 8.773084 -8.520008 0
M  V30 64 H 12.525461 7.241300 -7.966195 0
M  V30 65 H 14.468926 1.935354 -17.969246 0
M  V30 66 H 12.971798 1.156209 -17.430946 0
M  V30 67 H 12.999133 2.071720 -18.946399 0
M  V30 68 H 6.575372 2.413767 -16.783234 0
M  V30 69 H 8.290725 2.196095 -17.146972 0
M  V30 70 H 6.332431 4.789632 -15.510976 0
M  V30 END ATOM
M  V30 BEGIN BOND
M  V30 1 1 6 2
M  V30 2 1 7 1
M  V30 3 1 11 2
M  V30 4 1 13 3
M  V30 5 1 13 10
M  V30 6 1 14 4
M  V30 7 1 14 8
M  V30 8 1 15 5
M  V30 9 1 15 9
M  V30 10 1 16 3
M  V30 11 1 16 13
M  V30 12 1 17 3
M  V30 13 1 18 8
M  V30 14 1 18 9
M  V30 15 1 19 12
M  V30 16 1 20 11
M  V30 17 1 20 17
M  V30 18 1 21 12
M  V30 19 1 22 7
M  V30 20 1 22 9
M  V30 21 1 23 10
M  V30 22 1 24 6
M  V30 23 1 24 17
M  V30 24 2 25 10
M  V30 25 1 26 25
M  V30 26 2 27 23
M  V30 27 1 27 26
M  V30 28 1 28 11
M  V30 29 1 28 19
M  V30 30 1 29 27
M  V30 31 1 30 2
M  V30 32 2 30 4
M  V30 33 1 31 1
M  V30 34 1 31 15
M  V30 35 1 32 29
M  V30 36 1 33 16
M  V30 37 1 33 20
M  V30 38 1 34 1
M  V30 39 1 35 1
M  V30 40 1 3 36 CFG=3
M  V30 41 1 37 4
M  V30 42 1 38 6
M  V30 43 1 39 6
M  V30 44 1 40 7
M  V30 45 1 41 7
M  V30 46 1 42 8
M  V30 47 1 43 8
M  V30 48 1 9 44 CFG=3
M  V30 49 1 11 45 CFG=3
M  V30 50 1 46 12
M  V30 51 1 47 12
M  V30 52 1 13 48 CFG=3
M  V30 53 1 15 49 CFG=3
M  V30 54 1 16 50 CFG=3
M  V30 55 1 51 18
M  V30 56 1 52 18
M  V30 57 1 53 19
M  V30 58 1 54 19
M  V30 59 1 20 55 CFG=1
M  V30 60 1 56 21
M  V30 61 1 57 22
M  V30 62 1 58 22
M  V30 63 1 59 24
M  V30 64 1 60 24
M  V30 65 1 61 29
M  V30 66 1 62 30
M  V30 67 1 63 31
M  V30 68 1 64 31
M  V30 69 1 65 32
M  V30 70 1 66 32
M  V30 71 1 67 32
M  V30 72 1 68 33
M  V30 73 1 69 33
M  V30 74 1 17 70 CFG=1
M  V30 END BOND
M  V30 END CTAB
M  END
>  <i_epik_Tot_Q>  (1) 
1

>  <i_epik_Tot_abs_Q>  (1) 
1

>  <i_i_glide_confnum>  (1) 
84

>  <i_i_glide_lignum>  (1) 
16

>  <i_i_glide_posenum>  (1) 
225

>  <i_i_glide_rotatable_bonds>  (1) 
11

>  <i_lp_mmshare_version>  (1) 
72125

>  <i_m_source_file_index>  (1) 
1

>  <i_f3d_flags>  (1) 
0

>  <num_sample>  (1) 
50

>  <b_lp_Chiralities_Consistent>  (1) 
1

>  <r_epik_Charging_Adjusted_Penalty>  (1) 
0.41344222577729461

>  <r_epik_Ionization_Penalty>  (1) 
0.0027644559619576371

>  <r_epik_Ionization_Penalty_Charging>  (1) 
0.0027623868246906495

>  <r_epik_Ionization_Penalty_Neutral>  (1) 
2.0691372669875143e-06

>  <r_epik_State_Penalty>  (1) 
0.41067983895260396

>  <r_glide_ring_energy>  (1) 
1.6783687507503939

>  <r_i_docking_score>  (1) 
-5.0611553076346043

>  <r_i_glide_ecoul>  (1) 
-3.3132576494839201

>  <r_i_glide_eff_state_penalty>  (1) 
0.41067983895260396

>  <r_i_glide_einternal>  (1) 
13.569161968644682

>  <r_i_glide_emodel>  (1) 
-40.736952533823271

>  <r_i_glide_emodel_strain>  (1) 
2.9236850205677882

>  <r_i_glide_energy>  (1) 
-37.140897356576545

>  <r_i_glide_erotb>  (1) 
0.74142510397790429

>  <r_i_glide_esite>  (1) 
-0.0059073652207906049

>  <r_i_glide_evdw>  (1) 
-33.827639707092622

>  <r_i_glide_gscore>  (1) 
-5.4718351465872086

>  <r_i_glide_gscore_strain>  (1) 
0

>  <r_i_glide_hbond>  (1) 
-0.16

>  <r_i_glide_ligand_efficiency>  (1) 
-0.15336834265559407

>  <r_i_glide_ligand_efficiency_ln>  (1) 
-1.1255747351582284

>  <r_i_glide_ligand_efficiency_sa>  (1) 
-0.49193422420238131

>  <r_i_glide_lipo>  (1) 
-2.3476926261688438

>  <r_i_glide_metal>  (1) 
-0

>  <r_i_glide_rewards>  (1) 
-1.5112896263982594

>  <r_lp_Energy>  (1) 
50.173428000000001

>  <r_lp_tautomer_probability>  (1) 
0.5

>  <s_epik_Chemistry_Notes>  (1) 
This compound has an imine and may undergo hydrolysis. This compound contains an acetal/aminal-like group ( X-CH(R)-Y where X, Y are N, S, or O) that may be acid/base labile, releasing an aldehyde.

>  <s_epik_cmdline>  (1) 
J2VwaWtfcHl0aG9uJywgJy1waHQnLCAnMS4wJywgJy1waCcsICc3LjQnLCAnLXRuJywgJzgnLCAnLW1hJywgJzUwMCcsICctaW1hZScsICc8aW5maWxlLm1hZT4nLCAnLW9tYWUnLCAnPG91dGZpbGUubWFlPic=

>  <s_epik_input>  (1) 
W0NIMl0xW0NIMl1bQ0gyXVtDSDJdW0NASF0oRilbQ0BIXTFbQ0gyXVtDSDJdTy9bQ0hdPVtDSF1cTihbQ0BIXTJPW0NIMl1bQ0gyXVtPSF0pW0NIMl1bQ0gyXU4zW0NAQEhdMltDSDJdW0NAQEhdKFtDQEBIXTM0KVtDQEBIXTRjNW5jKG9uNSlbTkhdW0NIM10=

>  <s_glide_docking_method>  (1) 
confgen

>  <s_i_glide_gridfile>  (1) 
gpcr_drd2_6luq_protein_autoprepared_prepared

>  <s_lp_Force_Field>  (1) 
S-OPLS

>  <s_lp_Variant>  (1) 
DiffSBDD_0-16

>  <s_m_source_file>  (1) 
generated_generic_title2_ligand_DiffSBDD_2026-06-23_prepared.sdf

>  <GenAI_Model>  (1) 
DiffSBDD

>  <Protein>  (1) 
generic_title2

$$$$
DiffSBDD_28
     RDKit          3D

  0  0  0  0  0  0  0  0  0  0999 V3000
M  V30 BEGIN CTAB
M  V30 COUNTS 79 86 0 0 1
M  V30 BEGIN ATOM
M  V30 1 F 5.785801 2.745255 -19.423848 0
M  V30 2 C 10.356839 7.486932 -8.525498 0 CFG=1
M  V30 3 C 8.091910 5.955128 -11.210789 0 CFG=2
M  V30 4 C 10.947776 6.405801 -6.026748 0 CFG=2
M  V30 5 C 7.822964 5.590602 -16.283870 0 CFG=1
M  V30 6 C 11.769320 7.402795 -9.013896 0
M  V30 7 C 8.018807 6.131467 -13.679893 0 CFG=2
M  V30 8 C 5.693652 5.831661 -18.795095 0 CFG=1
M  V30 9 C 8.102230 4.885720 -10.102653 0
M  V30 10 C 6.390975 6.074830 -16.363485 0 CFG=1
M  V30 11 C 9.922614 8.789810 -6.841545 0 CFG=1
M  V30 12 C 9.959168 5.442147 -12.387820 0
M  V30 13 C 10.358756 7.369358 -7.010444 0 CFG=1
M  V30 14 O 10.915329 9.590185 -6.221970 0
M  V30 15 C 6.315125 3.772093 -20.181540 0 CFG=1
M  V30 16 C 8.587494 5.564265 -14.989806 0 CFG=1
M  V30 17 O 7.985904 4.384240 -15.518917 0
M  V30 18 N 8.509143 5.394360 -12.501442 0
M  V30 19 O 11.598492 5.990495 -3.699618 0
M  V30 20 C 5.729454 3.847138 -21.537655 0
M  V30 21 O 9.545396 6.390326 -6.368791 0
M  V30 22 C 6.062241 6.928044 -15.113787 0
M  V30 23 C 9.797808 8.880768 -8.363502 0
M  V30 24 N 9.375390 6.690948 -9.315354 0 CFG=2 CHG=1
M  V30 25 C 11.341128 6.970347 -4.679676 0
M  V30 26 N 4.981188 6.715016 -19.754663 0 CHG=1
M  V30 27 C 6.481026 6.237641 -13.802583 0
M  V30 28 C 4.666374 7.990964 -19.095679 0
M  V30 29 C 5.056189 7.775104 -17.641976 0
M  V30 30 O 5.249361 4.904335 -21.946280 0
M  V30 31 C 10.292932 6.781816 -11.747062 0
M  V30 32 C 6.820451 5.037726 -19.496003 0
M  V30 33 O 6.975409 3.434491 -21.449733 0
M  V30 34 N 6.107659 6.735976 -17.679181 0 CFG=2 CHG=1
M  V30 35 C 9.222714 5.242442 -9.124620 0
M  V30 36 C 11.960346 6.513170 -2.431776 0
M  V30 37 C 9.128676 7.006878 -10.753696 0 CFG=1
M  V30 38 H 7.090007 6.379372 -11.238397 0
M  V30 39 H 11.544315 5.590280 -6.425876 0
M  V30 40 H 8.442115 5.671807 -17.172463 0
M  V30 41 H 12.513399 7.594680 -8.239439 0
M  V30 42 H 11.848775 6.390355 -9.337105 0
M  V30 43 H 11.978918 8.084962 -9.836870 0
M  V30 44 H 8.361995 7.159619 -13.586956 0
M  V30 45 H 4.975116 5.127545 -18.388367 0
M  V30 46 H 8.257771 3.901299 -10.523753 0
M  V30 47 H 7.142533 4.879881 -9.584757 0
M  V30 48 H 5.770515 5.190194 -16.286731 0
M  V30 49 H 8.965237 8.872564 -6.327031 0
M  V30 50 H 10.282929 4.627898 -11.740208 0
M  V30 51 H 10.493920 5.296675 -13.319197 0
M  V30 52 H 11.739724 9.389312 -6.636978 0
M  V30 53 H 9.665165 5.590517 -15.119733 0
M  V30 54 H 4.994057 7.128703 -15.052645 0
M  V30 55 H 6.558659 7.898379 -15.173831 0
M  V30 56 H 8.761791 9.031341 -8.670634 0
M  V30 57 H 10.455412 9.589501 -8.872597 0
M  V30 58 H 12.176142 7.637247 -4.787021 0
M  V30 59 H 10.575337 7.653395 -4.384962 0
M  V30 60 H 4.140833 6.264234 -20.088431 0
M  V30 61 H 6.025022 5.248738 -13.737301 0
M  V30 62 H 6.066969 6.824314 -12.983409 0
M  V30 63 H 3.616033 8.266412 -19.202658 0
M  V30 64 H 5.271582 8.781432 -19.541436 0
M  V30 65 H 4.180358 7.403112 -17.109933 0
M  V30 66 H 5.383051 8.690518 -17.150226 0
M  V30 67 H 11.307494 6.790283 -11.377825 0
M  V30 68 H 10.262269 7.563269 -12.505423 0
M  V30 69 H 7.350869 5.669740 -20.210646 0
M  V30 70 H 7.567464 4.687966 -18.793501 0
M  V30 71 H 10.145597 4.720965 -9.365616 0
M  V30 72 H 8.932133 4.964232 -8.115541 0
M  V30 73 H 12.120200 5.690217 -1.736110 0
M  V30 74 H 12.885790 7.085196 -2.493268 0
M  V30 75 H 11.181364 7.149752 -2.011926 0
M  V30 76 H 8.739931 8.021714 -10.861627 0
M  V30 77 H 8.482878 7.018997 -8.941910 0
M  V30 78 H 5.565617 6.900740 -20.560202 0
M  V30 79 H 6.953656 7.211483 -17.961327 0
M  V30 END ATOM
M  V30 BEGIN BOND
M  V30 1 1 2 6 CFG=3
M  V30 2 1 9 3
M  V30 3 1 10 5
M  V30 4 1 13 2
M  V30 5 1 13 4
M  V30 6 1 13 11
M  V30 7 1 14 11
M  V30 8 1 15 1 CFG=1
M  V30 9 1 16 5
M  V30 10 1 16 7
M  V30 11 1 17 5
M  V30 12 1 17 16
M  V30 13 1 18 3
M  V30 14 1 18 7
M  V30 15 1 18 12
M  V30 16 1 20 15
M  V30 17 1 21 4
M  V30 18 1 13 21 CFG=3
M  V30 19 1 22 10
M  V30 20 1 23 2
M  V30 21 1 23 11
M  V30 22 1 24 2
M  V30 23 1 25 4
M  V30 24 1 25 19
M  V30 25 1 26 8
M  V30 26 1 27 7
M  V30 27 1 27 22
M  V30 28 1 28 26
M  V30 29 1 29 28
M  V30 30 2 30 20
M  V30 31 1 31 12
M  V30 32 1 32 8
M  V30 33 1 32 15
M  V30 34 1 33 15
M  V30 35 1 33 20
M  V30 36 1 34 8
M  V30 37 1 34 10
M  V30 38 1 34 29
M  V30 39 1 35 9
M  V30 40 1 35 24
M  V30 41 1 36 19
M  V30 42 1 37 3
M  V30 43 1 37 24
M  V30 44 1 37 31
M  V30 45 1 3 38 CFG=3
M  V30 46 1 4 39 CFG=3
M  V30 47 1 5 40 CFG=3
M  V30 48 1 41 6
M  V30 49 1 42 6
M  V30 50 1 43 6
M  V30 51 1 7 44 CFG=1
M  V30 52 1 8 45 CFG=1
M  V30 53 1 46 9
M  V30 54 1 47 9
M  V30 55 1 10 48 CFG=1
M  V30 56 1 11 49 CFG=1
M  V30 57 1 50 12
M  V30 58 1 51 12
M  V30 59 1 52 14
M  V30 60 1 16 53 CFG=3
M  V30 61 1 54 22
M  V30 62 1 55 22
M  V30 63 1 56 23
M  V30 64 1 57 23
M  V30 65 1 58 25
M  V30 66 1 59 25
M  V30 67 1 60 26
M  V30 68 1 61 27
M  V30 69 1 62 27
M  V30 70 1 63 28
M  V30 71 1 64 28
M  V30 72 1 65 29
M  V30 73 1 66 29
M  V30 74 1 67 31
M  V30 75 1 68 31
M  V30 76 1 69 32
M  V30 77 1 70 32
M  V30 78 1 71 35
M  V30 79 1 72 35
M  V30 80 1 73 36
M  V30 81 1 74 36
M  V30 82 1 75 36
M  V30 83 1 37 76 CFG=1
M  V30 84 1 24 77 CFG=1
M  V30 85 1 78 26
M  V30 86 1 34 79 CFG=3
M  V30 END BOND
M  V30 END CTAB
M  END
>  <i_epik_Tot_Q>  (1) 
3

>  <i_epik_Tot_abs_Q>  (1) 
3

>  <i_i_glide_confnum>  (1) 
300

>  <i_i_glide_lignum>  (1) 
85

>  <i_i_glide_posenum>  (1) 
46

>  <i_i_glide_rotatable_bonds>  (1) 
8

>  <i_lp_mmshare_version>  (1) 
72125

>  <i_m_source_file_index>  (1) 
29

>  <i_f3d_flags>  (1) 
0

>  <num_sample>  (1) 
50

>  <b_lp_Chiralities_Consistent>  (1) 
1

>  <r_epik_Charging_Adjusted_Penalty>  (1) 
2.5479580004866769

>  <r_epik_Ionization_Penalty>  (1) 
1.853674345886815

>  <r_epik_Ionization_Penalty_Charging>  (1) 
1.8530809818743854

>  <r_epik_Ionization_Penalty_Neutral>  (1) 
0.00059336401242958479

>  <r_epik_State_Penalty>  (1) 
0.69487701861229134

>  <r_glide_ring_energy>  (1) 
0.81914574756082947

>  <r_i_docking_score>  (1) 
-5.0591014871240754

>  <r_i_glide_ecoul>  (1) 
-5.1830150500261833

>  <r_i_glide_eff_state_penalty>  (1) 
0.69487701861229134

>  <r_i_glide_einternal>  (1) 
4.7675112751610698

>  <r_i_glide_emodel>  (1) 
-33.544615426417778

>  <r_i_glide_emodel_strain>  (1) 
1.4998860508871417

>  <r_i_glide_energy>  (1) 
-30.81739283856475

>  <r_i_glide_erotb>  (1) 
0.44698704239028575

>  <r_i_glide_esite>  (1) 
-0.10000000000000001

>  <r_i_glide_evdw>  (1) 
-25.634377788538565

>  <r_i_glide_gscore>  (1) 
-5.7539785057363666

>  <r_i_glide_gscore_strain>  (1) 
0

>  <r_i_glide_hbond>  (1) 
-0.17623929049273365

>  <r_i_glide_ligand_efficiency>  (1) 
-0.13673247262497501

>  <r_i_glide_ligand_efficiency_ln>  (1) 
-1.0972005103909628

>  <r_i_glide_ligand_efficiency_sa>  (1) 
-0.45562293311052393

>  <r_i_glide_lipo>  (1) 
-2.5110634936005152

>  <r_i_glide_metal>  (1) 
-0

>  <r_i_glide_rewards>  (1) 
-1.3544916171025481

>  <r_lp_Energy>  (1) 
72.568534

>  <s_epik_Chemistry_Notes>  (1) 
This compound has an ester and may undergo hydrolysis at high or low pH. This compound contains an acetal/aminal-like group ( X-CH(R)-Y where X, Y are N, S, or O) that may be acid/base labile, releasing an aldehyde.

>  <s_epik_cmdline>  (1) 
J2VwaWtfcHl0aG9uJywgJy1waHQnLCAnMS4wJywgJy1waCcsICc3LjQnLCAnLXRuJywgJzgnLCAnLW1hJywgJzUwMCcsICctaW1hZScsICc8aW5maWxlLm1hZT4nLCAnLW9tYWUnLCAnPG91dGZpbGUubWFlPic=

>  <s_epik_input>  (1) 
Tz1DKE8xKUMxKEYpW0NIMl1bQ0BASF0yW05IXVtDSDJdW0NIMl1OMltDQEBIXTNbQ0gyXVtDSDJdW0NASF0oW0NAQEhdKE80KVtDQEhdMzQpTjVbQ0gyXVtDSDJdW0NAQEhdKFtDQEhdNTYpTihbQ0gyXVtDSDJdNilbQ0BAXShbQ0gzXSkoW0NIMl1bQ0BASF03W09IXSlbQ0BAXTc4W0NASF0oTzgpW0NIMl1PW0NIM10=

>  <s_glide_docking_method>  (1) 
confgen

>  <s_i_glide_gridfile>  (1) 
gpcr_drd2_6luq_protein_autoprepared_prepared

>  <s_lp_Force_Field>  (1) 
S-OPLS

>  <s_lp_Variant>  (1) 
DiffSBDD_28-8

>  <s_m_source_file>  (1) 
generated_generic_title2_ligand_DiffSBDD_2026-06-23_prepared.sdf

>  <GenAI_Model>  (1) 
DiffSBDD

>  <Protein>  (1) 
generic_title2

$$$$
DiffSBDD_38
     RDKit          3D

  0  0  0  0  0  0  0  0  0  0999 V3000
M  V30 BEGIN CTAB
M  V30 COUNTS 55 57 0 0 1
M  V30 BEGIN ATOM
M  V30 1 C 11.069787 7.697541 -10.545570 0
M  V30 2 C 8.589682 5.552166 -11.652951 0
M  V30 3 N 9.030405 6.353024 -10.498436 0
M  V30 4 C 11.619272 7.158820 -3.469774 0 CFG=2
M  V30 5 C 11.879218 7.394141 -1.985156 0 CFG=1
M  V30 6 C 12.814945 6.557417 -2.784988 0
M  V30 7 C 11.506373 8.004615 -9.125697 0
M  V30 8 C 11.625827 7.264528 -6.703991 0
M  V30 9 C 10.763199 9.605465 -6.319855 0
M  V30 10 C 8.548756 6.070091 -12.907336 0
M  V30 11 C 8.205985 4.091838 -11.371087 0
M  V30 12 C 10.924276 8.218939 -5.714622 0 CFG=2
M  V30 13 C 7.300200 4.036083 -13.753842 0
M  V30 14 C 10.996555 6.992364 -8.081674 0 CFG=1
M  V30 15 C 11.681049 8.371957 -4.380821 0
M  V30 16 C 9.551278 7.719887 -10.735488 0
M  V30 17 C 8.020418 3.257046 -12.654434 0
M  V30 18 C 9.474071 6.831232 -8.077086 0
M  V30 19 C 12.511166 8.643682 -1.405497 0
M  V30 20 C 8.104340 5.286049 -14.128078 0
M  V30 21 C 8.975381 5.886202 -9.188184 0
M  V30 22 O 8.542724 4.790208 -8.867516 0
M  V30 23 H 11.554851 8.390233 -11.185032 0
M  V30 24 H 11.501013 6.790263 -10.918526 0
M  V30 25 H 10.826623 6.450290 -3.712192 0
M  V30 26 H 11.184044 6.881034 -1.324226 0
M  V30 27 H 12.815350 5.494914 -2.570177 0
M  V30 28 H 13.774604 6.993571 -3.045741 0
M  V30 29 H 11.171966 9.011154 -8.884961 0
M  V30 30 H 12.596852 8.036391 -9.116727 0
M  V30 31 H 11.824846 6.313141 -6.209120 0
M  V30 32 H 12.575371 7.719618 -6.950388 0
M  V30 33 H 11.657642 9.923390 -6.855862 0
M  V30 34 H 9.912905 9.590213 -6.995621 0
M  V30 35 H 10.575491 10.370552 -5.567513 0
M  V30 36 H 8.829718 7.080871 -13.096023 0
M  V30 37 H 8.995424 3.591770 -10.810175 0
M  V30 38 H 7.268049 4.068752 -10.813640 0
M  V30 39 H 9.928919 7.834440 -5.493240 0
M  V30 40 H 7.154718 3.408213 -14.633147 0
M  V30 41 H 6.305810 4.320194 -13.406104 0
M  V30 42 H 11.375323 6.019167 -8.379496 0
M  V30 43 H 12.711363 8.688680 -4.530746 0
M  V30 44 H 11.221996 9.188945 -3.825185 0
M  V30 45 H 9.323209 8.209932 -11.670042 0
M  V30 46 H 9.082989 8.435758 -10.062493 0
M  V30 47 H 8.996425 2.947839 -13.027369 0
M  V30 48 H 7.479887 2.338791 -12.428152 0
M  V30 49 H 8.958904 7.787220 -8.060915 0
M  V30 50 H 9.180651 6.352547 -7.141852 0
M  V30 51 H 13.035858 9.194778 -2.180804 0
M  V30 52 H 11.775504 9.295798 -0.943242 0
M  V30 53 H 13.257335 8.370249 -0.661637 0
M  V30 54 H 7.499209 5.933617 -14.763269 0
M  V30 55 H 8.991932 5.016678 -14.702278 0
M  V30 END ATOM
M  V30 BEGIN BOND
M  V30 1 1 3 2
M  V30 2 1 5 4
M  V30 3 1 6 4
M  V30 4 1 6 5
M  V30 5 1 7 1
M  V30 6 2 10 2
M  V30 7 1 11 2
M  V30 8 1 12 8
M  V30 9 1 12 9
M  V30 10 1 14 7
M  V30 11 1 14 8
M  V30 12 1 15 4
M  V30 13 1 15 12
M  V30 14 1 16 1
M  V30 15 1 16 3
M  V30 16 1 17 11
M  V30 17 1 17 13
M  V30 18 1 18 14
M  V30 19 1 19 5
M  V30 20 1 20 10
M  V30 21 1 20 13
M  V30 22 1 21 3
M  V30 23 1 21 18
M  V30 24 2 22 21
M  V30 25 1 23 1
M  V30 26 1 24 1
M  V30 27 1 4 25 CFG=1
M  V30 28 1 5 26 CFG=1
M  V30 29 1 27 6
M  V30 30 1 28 6
M  V30 31 1 29 7
M  V30 32 1 30 7
M  V30 33 1 31 8
M  V30 34 1 32 8
M  V30 35 1 33 9
M  V30 36 1 34 9
M  V30 37 1 35 9
M  V30 38 1 36 10
M  V30 39 1 37 11
M  V30 40 1 38 11
M  V30 41 1 12 39 CFG=1
M  V30 42 1 40 13
M  V30 43 1 41 13
M  V30 44 1 14 42 CFG=3
M  V30 45 1 43 15
M  V30 46 1 44 15
M  V30 47 1 45 16
M  V30 48 1 46 16
M  V30 49 1 47 17
M  V30 50 1 48 17
M  V30 51 1 49 18
M  V30 52 1 50 18
M  V30 53 1 51 19
M  V30 54 1 52 19
M  V30 55 1 53 19
M  V30 56 1 54 20
M  V30 57 1 55 20
M  V30 END BOND
M  V30 END CTAB
M  END
>  <i_epik_Tot_Q>  (1) 
0

>  <i_epik_Tot_abs_Q>  (1) 
0

>  <i_i_glide_confnum>  (1) 
432

>  <i_i_glide_lignum>  (1) 
103

>  <i_i_glide_posenum>  (1) 
33

>  <i_i_glide_rotatable_bonds>  (1) 
5

>  <i_lp_mmshare_version>  (1) 
72125

>  <i_m_source_file_index>  (1) 
39

>  <i_f3d_flags>  (1) 
0

>  <num_sample>  (1) 
50

>  <b_lp_Chiralities_Consistent>  (1) 
1

>  <r_epik_Charging_Adjusted_Penalty>  (1) 
0

>  <r_epik_Ionization_Penalty>  (1) 
3.750095861585333e-08

>  <r_epik_Ionization_Penalty_Charging>  (1) 
0

>  <r_epik_Ionization_Penalty_Neutral>  (1) 
3.750095861585333e-08

>  <r_epik_State_Penalty>  (1) 
-0

>  <r_glide_ring_energy>  (1) 
0.00030315173059249431

>  <r_i_docking_score>  (1) 
-5.0581622103961337

>  <r_i_glide_ecoul>  (1) 
-0.45256585520970516

>  <r_i_glide_eff_state_penalty>  (1) 
-0

>  <r_i_glide_einternal>  (1) 
15.889381466783576

>  <r_i_glide_emodel>  (1) 
-15.642678125958142

>  <r_i_glide_emodel_strain>  (1) 
0.90595309186099371

>  <r_i_glide_energy>  (1) 
-20.201581916053758

>  <r_i_glide_erotb>  (1) 
1.0003538244760346

>  <r_i_glide_esite>  (1) 
-0.18144744042591268

>  <r_i_glide_evdw>  (1) 
-19.749016060844053

>  <r_i_glide_gscore>  (1) 
-5.0581622103961337

>  <r_i_glide_gscore_strain>  (1) 
0

>  <r_i_glide_hbond>  (1) 
0

>  <r_i_glide_ligand_efficiency>  (1) 
-0.22991646410891517

>  <r_i_glide_ligand_efficiency_ln>  (1) 
-1.2363993451703035

>  <r_i_glide_ligand_efficiency_sa>  (1) 
-0.64423497519839801

>  <r_i_glide_lipo>  (1) 
-2.5819063903953237

>  <r_i_glide_metal>  (1) 
-0

>  <r_i_glide_rewards>  (1) 
-2.2398265227272738

>  <r_lp_Energy>  (1) 
35.460141

>  <r_lp_tautomer_probability>  (1) 
1

>  <s_epik_cmdline>  (1) 
J2VwaWtfcHl0aG9uJywgJy1waHQnLCAnMS4wJywgJy1waCcsICc3LjQnLCAnLXRuJywgJzgnLCAnLW1hJywgJzUwMCcsICctaW1hZScsICc8aW5maWxlLm1hZT4nLCAnLW9tYWUnLCAnPG91dGZpbGUubWFlPic=

>  <s_epik_input>  (1) 
W0NIMl0xW0NIMl1bQ0gyXVtDSDJdW0NIXT1DMU4yW0NIMl1bQ0gyXVtDSDJdW0NASF0oW0NIMl1DMj1PKVtDSDJdW0NASF0oW0NIM10pW0NIMl1bQ0BASF0zW0NAQEhdKFtDSDJdMylbQ0gzXQ==

>  <s_glide_docking_method>  (1) 
confgen

>  <s_i_glide_gridfile>  (1) 
gpcr_drd2_6luq_protein_autoprepared_prepared

>  <s_lp_Force_Field>  (1) 
S-OPLS

>  <s_lp_Variant>  (1) 
DiffSBDD_38-1

>  <s_m_source_file>  (1) 
generated_generic_title2_ligand_DiffSBDD_2026-06-23_prepared.sdf

>  <GenAI_Model>  (1) 
DiffSBDD

>  <Protein>  (1) 
generic_title2

$$$$
DiffSBDD_0
     RDKit          3D

  0  0  0  0  0  0  0  0  0  0999 V3000
M  V30 BEGIN CTAB
M  V30 COUNTS 70 74 0 0 1
M  V30 BEGIN ATOM
M  V30 1 C 5.273497 5.985041 -22.308080 0
M  V30 2 N 6.218846 5.945454 -13.138021 0
M  V30 3 C 9.565615 7.710734 -11.831225 0 CFG=1
M  V30 4 C 5.603986 6.523623 -15.422053 0
M  V30 5 F 7.791855 6.978839 -21.129552 0
M  V30 6 C 5.864855 7.223797 -12.559339 0
M  V30 7 C 4.740495 5.194472 -21.103251 0
M  V30 8 C 4.483831 6.787599 -17.477482 0
M  V30 9 C 6.113011 6.682609 -19.512243 0 CFG=1
M  V30 10 C 10.343787 7.186792 -9.363905 0
M  V30 11 C 6.878185 5.043616 -12.211405 0 CFG=2
M  V30 12 C 6.761632 1.487718 -13.213564 0
M  V30 13 C 10.642348 7.353026 -10.830525 0 CFG=1
M  V30 14 O 5.552562 6.199706 -16.746095 0
M  V30 15 C 6.618965 7.476854 -20.737632 0 CFG=2
M  V30 16 C 10.378602 6.456395 -12.037721 0 CFG=1
M  V30 17 N 8.175419 7.242292 -11.585032 0 CFG=2 CHG=1
M  V30 18 C 5.000250 7.453666 -18.760712 0
M  V30 19 C 6.191968 2.842278 -12.768873 0
M  V30 20 C 8.121915 5.741940 -11.581924 0 CFG=2
M  V30 21 O 6.919649 1.457949 -14.616335 0
M  V30 22 C 5.727384 5.240788 -19.924817 0
M  V30 23 N 10.654716 8.144189 -8.443874 0
M  V30 24 C 7.176814 7.987446 -12.384887 0
M  V30 25 N 9.783525 6.075782 -8.881515 0
M  V30 26 O 9.740473 6.292824 -7.494549 0
M  V30 27 C 10.298073 7.507588 -7.342196 0
M  V30 28 O 7.245766 3.793726 -12.711331 0
M  V30 29 N 10.458944 7.909112 -6.028708 0
M  V30 30 C 6.124137 5.689003 -14.505639 0
M  V30 31 C 5.634776 7.429078 -21.922713 0
M  V30 32 C 11.061293 9.101542 -5.463863 0
M  V30 33 C 9.462927 5.265060 -12.140177 0
M  V30 34 H 6.156349 5.484689 -22.708189 0
M  V30 35 H 4.534233 5.988870 -23.109554 0
M  V30 36 H 9.689384 8.584885 -12.462245 0
M  V30 37 H 5.194043 7.499919 -15.212616 0
M  V30 38 H 5.139682 7.778218 -13.149660 0
M  V30 39 H 5.394675 7.066946 -11.587008 0
M  V30 40 H 4.563415 4.158539 -21.394087 0
M  V30 41 H 3.775492 5.590134 -20.795548 0
M  V30 42 H 3.791909 5.990241 -17.728050 0
M  V30 43 H 3.897779 7.510074 -16.905970 0
M  V30 44 H 6.952789 6.603365 -18.819583 0
M  V30 45 H 6.154269 4.878216 -11.410382 0
M  V30 46 H 6.068145 0.690609 -12.942883 0
M  V30 47 H 7.710131 1.272992 -12.719609 0
M  V30 48 H 11.562237 7.929916 -10.899036 0
M  V30 49 H 6.824525 8.511900 -20.462524 0
M  V30 50 H 11.159481 6.476461 -12.796068 0
M  V30 51 H 4.158618 7.643816 -19.423454 0
M  V30 52 H 5.375415 8.437857 -18.490128 0
M  V30 53 H 5.378478 3.166532 -13.418942 0
M  V30 54 H 5.775741 2.735911 -11.766746 0
M  V30 55 H 8.080601 5.437824 -10.540129 0
M  V30 56 H 7.179554 0.585191 -14.872303 0
M  V30 57 H 6.633587 4.707941 -20.216314 0
M  V30 58 H 5.327509 4.685661 -19.076549 0
M  V30 59 H 7.591189 8.187329 -13.375025 0
M  V30 60 H 7.005238 8.945974 -11.897514 0
M  V30 61 H 10.110710 7.254894 -5.341934 0
M  V30 62 H 6.518537 4.725678 -14.792298 0
M  V30 63 H 6.065592 7.942693 -22.782696 0
M  V30 64 H 4.725879 7.975305 -21.670381 0
M  V30 65 H 10.975410 9.100413 -4.377976 0
M  V30 66 H 12.118703 9.149807 -5.725676 0
M  V30 67 H 10.575387 9.995951 -5.851293 0
M  V30 68 H 9.380422 4.997649 -13.194825 0
M  V30 69 H 9.862841 4.405479 -11.600670 0
M  V30 70 H 7.897765 7.500255 -10.629277 0
M  V30 END ATOM
M  V30 BEGIN BOND
M  V30 1 1 6 2
M  V30 2 1 7 1
M  V30 3 1 11 2
M  V30 4 1 13 3
M  V30 5 1 13 10
M  V30 6 1 14 4
M  V30 7 1 14 8
M  V30 8 1 15 5
M  V30 9 1 15 9
M  V30 10 1 16 3
M  V30 11 1 16 13
M  V30 12 1 17 3
M  V30 13 1 18 8
M  V30 14 1 18 9
M  V30 15 1 19 12
M  V30 16 1 20 11
M  V30 17 1 20 17
M  V30 18 1 21 12
M  V30 19 1 22 7
M  V30 20 1 22 9
M  V30 21 1 23 10
M  V30 22 1 24 6
M  V30 23 1 24 17
M  V30 24 2 25 10
M  V30 25 1 26 25
M  V30 26 2 27 23
M  V30 27 1 27 26
M  V30 28 1 28 11
M  V30 29 1 28 19
M  V30 30 1 29 27
M  V30 31 1 30 2
M  V30 32 2 30 4
M  V30 33 1 31 1
M  V30 34 1 31 15
M  V30 35 1 32 29
M  V30 36 1 33 16
M  V30 37 1 33 20
M  V30 38 1 34 1
M  V30 39 1 35 1
M  V30 40 1 3 36 CFG=3
M  V30 41 1 37 4
M  V30 42 1 38 6
M  V30 43 1 39 6
M  V30 44 1 40 7
M  V30 45 1 41 7
M  V30 46 1 42 8
M  V30 47 1 43 8
M  V30 48 1 9 44 CFG=1
M  V30 49 1 11 45 CFG=1
M  V30 50 1 46 12
M  V30 51 1 47 12
M  V30 52 1 13 48 CFG=1
M  V30 53 1 15 49 CFG=1
M  V30 54 1 16 50 CFG=3
M  V30 55 1 51 18
M  V30 56 1 52 18
M  V30 57 1 53 19
M  V30 58 1 54 19
M  V30 59 1 20 55 CFG=1
M  V30 60 1 56 21
M  V30 61 1 57 22
M  V30 62 1 58 22
M  V30 63 1 59 24
M  V30 64 1 60 24
M  V30 65 1 61 29
M  V30 66 1 62 30
M  V30 67 1 63 31
M  V30 68 1 64 31
M  V30 69 1 65 32
M  V30 70 1 66 32
M  V30 71 1 67 32
M  V30 72 1 68 33
M  V30 73 1 69 33
M  V30 74 1 17 70 CFG=1
M  V30 END BOND
M  V30 END CTAB
M  END
>  <i_epik_Tot_Q>  (1) 
1

>  <i_epik_Tot_abs_Q>  (1) 
1

>  <i_i_glide_confnum>  (1) 
236

>  <i_i_glide_lignum>  (1) 
1

>  <i_i_glide_posenum>  (1) 
151

>  <i_i_glide_rotatable_bonds>  (1) 
11

>  <i_lp_mmshare_version>  (1) 
72125

>  <i_m_source_file_index>  (1) 
1

>  <i_f3d_flags>  (1) 
0

>  <num_sample>  (1) 
50

>  <b_lp_Chiralities_Consistent>  (1) 
1

>  <r_epik_Charging_Adjusted_Penalty>  (1) 
0.41344222577729461

>  <r_epik_Ionization_Penalty>  (1) 
0.0027644559619576371

>  <r_epik_Ionization_Penalty_Charging>  (1) 
0.0027623868246906495

>  <r_epik_Ionization_Penalty_Neutral>  (1) 
2.0691372669875143e-06

>  <r_epik_State_Penalty>  (1) 
0.41067983895260396

>  <r_glide_ring_energy>  (1) 
1.3007136337365919

>  <r_i_docking_score>  (1) 
-5.0388649862671073

>  <r_i_glide_ecoul>  (1) 
-6.3472468737856333

>  <r_i_glide_eff_state_penalty>  (1) 
0.41067983895260396

>  <r_i_glide_einternal>  (1) 
18.618738399229166

>  <r_i_glide_emodel>  (1) 
-43.445233320813784

>  <r_i_glide_emodel_strain>  (1) 
6.3913427580035744

>  <r_i_glide_energy>  (1) 
-47.482016261211832

>  <r_i_glide_erotb>  (1) 
0.74142510397790429

>  <r_i_glide_esite>  (1) 
-0.21229408389449619

>  <r_i_glide_evdw>  (1) 
-41.134769387426196

>  <r_i_glide_gscore>  (1) 
-5.4495448252197116

>  <r_i_glide_gscore_strain>  (1) 
0.59783568950089361

>  <r_i_glide_hbond>  (1) 
-0.20000000000000001

>  <r_i_glide_ligand_efficiency>  (1) 
-0.15269287837173051

>  <r_i_glide_ligand_efficiency_ln>  (1) 
-1.1206174830992044

>  <r_i_glide_ligand_efficiency_sa>  (1) 
-0.48976764932320294

>  <r_i_glide_lipo>  (1) 
-2.3785220031762817

>  <r_i_glide_metal>  (1) 
-0

>  <r_i_glide_rewards>  (1) 
-0.98916403118857721

>  <r_lp_Energy>  (1) 
39.475147

>  <r_lp_tautomer_probability>  (1) 
0.5

>  <s_epik_Chemistry_Notes>  (1) 
This compound has an imine and may undergo hydrolysis. This compound contains an acetal/aminal-like group ( X-CH(R)-Y where X, Y are N, S, or O) that may be acid/base labile, releasing an aldehyde.

>  <s_epik_cmdline>  (1) 
J2VwaWtfcHl0aG9uJywgJy1waHQnLCAnMS4wJywgJy1waCcsICc3LjQnLCAnLXRuJywgJzgnLCAnLW1hJywgJzUwMCcsICctaW1hZScsICc8aW5maWxlLm1hZT4nLCAnLW9tYWUnLCAnPG91dGZpbGUubWFlPic=

>  <s_epik_input>  (1) 
W0NIMl0xW0NIMl1bQ0gyXVtDSDJdW0NASF0oRilbQ0BIXTFbQ0gyXVtDSDJdTy9bQ0hdPVtDSF0vTihbQ0BIXTJPW0NIMl1bQ0gyXVtPSF0pW0NIMl1bQ0gyXU4zW0NAQEhdMltDSDJdW0NAQEhdKFtDQEBIXTM0KVtDQEBIXTRjNW5jKG9uNSlbTkhdW0NIM10=

>  <s_glide_docking_method>  (1) 
confgen

>  <s_i_glide_gridfile>  (1) 
gpcr_drd2_6luq_protein_autoprepared_prepared

>  <s_lp_Force_Field>  (1) 
S-OPLS

>  <s_lp_Variant>  (1) 
DiffSBDD_0-1

>  <s_m_source_file>  (1) 
generated_generic_title2_ligand_DiffSBDD_2026-06-23_prepared.sdf

>  <GenAI_Model>  (1) 
DiffSBDD

>  <Protein>  (1) 
generic_title2

$$$$
DiffSBDD_28
     RDKit          3D

  0  0  0  0  0  0  0  0  0  0999 V3000
M  V30 BEGIN CTAB
M  V30 COUNTS 78 85 0 0 1
M  V30 BEGIN ATOM
M  V30 1 F 5.811828 1.407371 -13.805553 0
M  V30 2 C 11.689598 8.604907 -7.206937 0 CFG=1
M  V30 3 C 9.950856 6.942857 -10.101609 0 CFG=2
M  V30 4 C 11.374811 6.588421 -5.324398 0 CFG=2
M  V30 5 C 8.791423 4.417182 -13.618174 0 CFG=1
M  V30 6 C 13.067833 8.246536 -7.704496 0
M  V30 7 C 8.231589 5.918234 -11.586820 0 CFG=2
M  V30 8 C 7.504718 3.062864 -16.162146 0 CFG=1
M  V30 9 C 9.839713 8.398341 -10.451681 0
M  V30 10 C 7.315450 4.246107 -13.948470 0 CFG=1
M  V30 11 C 11.511365 9.362973 -5.127450 0 CFG=1
M  V30 12 C 8.658858 5.260259 -9.136007 0
M  V30 13 C 11.449001 8.014268 -5.811895 0 CFG=1
M  V30 14 O 12.556091 9.586912 -4.206980 0
M  V30 15 C 6.468991 1.035780 -14.966004 0 CFG=1
M  V30 16 C 9.253598 5.150047 -12.403069 0 CFG=1
M  V30 17 O 9.190620 3.729266 -12.413104 0
M  V30 18 N 8.661776 6.256975 -10.212174 0 CFG=1 CHG=1
M  V30 19 O 12.312808 7.130582 -3.177559 0
M  V30 20 C 5.719888 0.133157 -15.862511 0
M  V30 21 O 10.196231 7.358696 -5.585203 0
M  V30 22 C 6.405287 5.212573 -13.153710 0
M  V30 23 C 11.736196 9.978062 -6.480859 0
M  V30 24 N 10.628367 8.303102 -8.221412 0
M  V30 25 C 11.576540 6.167831 -3.890938 0
M  V30 26 N 8.709198 3.590574 -16.837770 0 CHG=1
M  V30 27 C 6.816582 5.326031 -11.677066 0
M  V30 28 C 8.574931 5.057372 -16.920736 0
M  V30 29 C 7.286840 5.370340 -16.162350 0
M  V30 30 O 5.763706 0.003948 -17.084504 0
M  V30 31 C 9.333728 6.025778 -7.978088 0
M  V30 32 C 7.742276 1.714643 -15.452906 0
M  V30 33 O 6.604485 -0.411809 -15.079414 0
M  V30 34 N 6.974879 4.184124 -15.378631 0
M  V30 35 C 10.875707 8.959881 -9.504046 0
M  V30 36 C 12.227007 6.951708 -1.789964 0
M  V30 37 C 10.429974 6.893276 -8.643454 0 CFG=1
M  V30 38 H 10.714873 6.488790 -10.713209 0
M  V30 39 H 11.579051 5.814729 -6.059606 0
M  V30 40 H 9.510428 4.388310 -14.428131 0
M  V30 41 H 13.775826 8.790378 -7.101618 0
M  V30 42 H 13.256710 7.190291 -7.587192 0
M  V30 43 H 13.329546 8.544591 -8.713977 0
M  V30 44 H 8.163698 6.889976 -12.077110 0
M  V30 45 H 6.801026 2.875648 -16.975478 0
M  V30 46 H 8.861223 8.816366 -10.216375 0
M  V30 47 H 10.046517 8.572898 -11.505924 0
M  V30 48 H 7.067480 3.282710 -13.515069 0
M  V30 49 H 10.575547 9.708961 -4.710457 0
M  V30 50 H 9.249198 4.391220 -9.433406 0
M  V30 51 H 7.651619 4.929353 -8.881077 0
M  V30 52 H 12.302369 10.320947 -3.670058 0
M  V30 53 H 10.248208 5.573842 -12.508745 0
M  V30 54 H 5.371754 4.869333 -13.217451 0
M  V30 55 H 6.411456 6.208853 -13.595448 0
M  V30 56 H 10.976915 10.649522 -6.781507 0
M  V30 57 H 12.687759 10.506920 -6.387552 0
M  V30 58 H 10.601702 5.975376 -3.440338 0
M  V30 59 H 12.174864 5.259753 -3.875068 0
M  V30 60 H 8.807916 3.181560 -17.757371 0
M  V30 61 H 6.771621 4.347031 -11.197722 0
M  V30 62 H 6.110409 5.968451 -11.146750 0
M  V30 63 H 8.514729 5.388537 -17.957785 0
M  V30 64 H 9.437063 5.540721 -16.460258 0
M  V30 65 H 6.482262 5.536747 -16.881353 0
M  V30 66 H 7.368243 6.274156 -15.559129 0
M  V30 67 H 9.719836 5.341391 -7.224675 0
M  V30 68 H 8.595030 6.669067 -7.495832 0
M  V30 69 H 8.225779 1.052391 -16.174798 0
M  V30 70 H 8.440099 1.790385 -14.620140 0
M  V30 71 H 10.903957 10.035657 -9.438732 0
M  V30 72 H 11.825157 8.669988 -9.944949 0
M  V30 73 H 12.895059 7.655149 -1.292972 0
M  V30 74 H 11.206033 7.153427 -1.463105 0
M  V30 75 H 12.511754 5.938515 -1.503361 0
M  V30 76 H 11.375162 6.358787 -8.624128 0
M  V30 77 H 7.966038 6.948143 -9.883200 0
M  V30 78 H 9.523180 3.370590 -16.283264 0
M  V30 END ATOM
M  V30 BEGIN BOND
M  V30 1 1 2 6 CFG=3
M  V30 2 1 9 3
M  V30 3 1 10 5
M  V30 4 1 13 2
M  V30 5 1 13 4
M  V30 6 1 13 11
M  V30 7 1 14 11
M  V30 8 1 15 1 CFG=1
M  V30 9 1 16 5
M  V30 10 1 16 7
M  V30 11 1 17 5
M  V30 12 1 17 16
M  V30 13 1 18 3
M  V30 14 1 18 7
M  V30 15 1 18 12
M  V30 16 1 20 15
M  V30 17 1 21 4
M  V30 18 1 13 21 CFG=3
M  V30 19 1 22 10
M  V30 20 1 23 2
M  V30 21 1 23 11
M  V30 22 1 24 2
M  V30 23 1 25 4
M  V30 24 1 25 19
M  V30 25 1 26 8
M  V30 26 1 27 7
M  V30 27 1 27 22
M  V30 28 1 28 26
M  V30 29 1 29 28
M  V30 30 2 30 20
M  V30 31 1 31 12
M  V30 32 1 32 8
M  V30 33 1 32 15
M  V30 34 1 33 15
M  V30 35 1 33 20
M  V30 36 1 34 8
M  V30 37 1 34 10
M  V30 38 1 34 29
M  V30 39 1 35 9
M  V30 40 1 35 24
M  V30 41 1 36 19
M  V30 42 1 37 3
M  V30 43 1 37 24
M  V30 44 1 37 31
M  V30 45 1 3 38 CFG=3
M  V30 46 1 4 39 CFG=3
M  V30 47 1 5 40 CFG=3
M  V30 48 1 41 6
M  V30 49 1 42 6
M  V30 50 1 43 6
M  V30 51 1 7 44 CFG=3
M  V30 52 1 8 45 CFG=3
M  V30 53 1 46 9
M  V30 54 1 47 9
M  V30 55 1 10 48 CFG=1
M  V30 56 1 11 49 CFG=1
M  V30 57 1 50 12
M  V30 58 1 51 12
M  V30 59 1 52 14
M  V30 60 1 16 53 CFG=3
M  V30 61 1 54 22
M  V30 62 1 55 22
M  V30 63 1 56 23
M  V30 64 1 57 23
M  V30 65 1 58 25
M  V30 66 1 59 25
M  V30 67 1 60 26
M  V30 68 1 61 27
M  V30 69 1 62 27
M  V30 70 1 63 28
M  V30 71 1 64 28
M  V30 72 1 65 29
M  V30 73 1 66 29
M  V30 74 1 67 31
M  V30 75 1 68 31
M  V30 76 1 69 32
M  V30 77 1 70 32
M  V30 78 1 71 35
M  V30 79 1 72 35
M  V30 80 1 73 36
M  V30 81 1 74 36
M  V30 82 1 75 36
M  V30 83 1 37 76 CFG=3
M  V30 84 1 18 77 CFG=1
M  V30 85 1 78 26
M  V30 END BOND
M  V30 END CTAB
M  END
>  <i_epik_Tot_Q>  (1) 
2

>  <i_epik_Tot_abs_Q>  (1) 
2

>  <i_i_glide_confnum>  (1) 
548

>  <i_i_glide_lignum>  (1) 
86

>  <i_i_glide_posenum>  (1) 
35

>  <i_i_glide_rotatable_bonds>  (1) 
8

>  <i_lp_mmshare_version>  (1) 
72125

>  <i_m_source_file_index>  (1) 
29

>  <i_f3d_flags>  (1) 
0

>  <num_sample>  (1) 
50

>  <b_lp_Chiralities_Consistent>  (1) 
1

>  <r_epik_Charging_Adjusted_Penalty>  (1) 
1.0492181154286748

>  <r_epik_Ionization_Penalty>  (1) 
0.8301501805432685

>  <r_epik_Ionization_Penalty_Charging>  (1) 
0.211122083805314

>  <r_epik_Ionization_Penalty_Neutral>  (1) 
0.61902809673795445

>  <r_epik_State_Penalty>  (1) 
0.83809603162336077

>  <r_glide_ring_energy>  (1) 
0.81914574756082614

>  <r_i_docking_score>  (1) 
-5.0321864233312699

>  <r_i_glide_ecoul>  (1) 
-6.3328580402684933

>  <r_i_glide_eff_state_penalty>  (1) 
0.83809603162336077

>  <r_i_glide_einternal>  (1) 
22.865976091926797

>  <r_i_glide_emodel>  (1) 
-24.457054100129966

>  <r_i_glide_emodel_strain>  (1) 
1.7863971758971502

>  <r_i_glide_energy>  (1) 
-33.54181226772377

>  <r_i_glide_erotb>  (1) 
0.44856850619138583

>  <r_i_glide_esite>  (1) 
-0.099698357001732102

>  <r_i_glide_evdw>  (1) 
-27.20895422745528

>  <r_i_glide_gscore>  (1) 
-5.8702824549546309

>  <r_i_glide_gscore_strain>  (1) 
0

>  <r_i_glide_hbond>  (1) 
-0.16019015057697278

>  <r_i_glide_ligand_efficiency>  (1) 
-0.13600503846841269

>  <r_i_glide_ligand_efficiency_ln>  (1) 
-1.0913632640329225

>  <r_i_glide_ligand_efficiency_sa>  (1) 
-0.45319896111839331

>  <r_i_glide_lipo>  (1) 
-2.7425542096311415

>  <r_i_glide_metal>  (1) 
-0

>  <r_i_glide_rewards>  (1) 
-1.0060318265231323

>  <r_lp_Energy>  (1) 
60.259107999999998

>  <s_epik_Chemistry_Notes>  (1) 
This compound has an ester and may undergo hydrolysis at high or low pH. This compound contains an acetal/aminal-like group ( X-CH(R)-Y where X, Y are N, S, or O) that may be acid/base labile, releasing an aldehyde.

>  <s_epik_cmdline>  (1) 
J2VwaWtfcHl0aG9uJywgJy1waHQnLCAnMS4wJywgJy1waCcsICc3LjQnLCAnLXRuJywgJzgnLCAnLW1hJywgJzUwMCcsICctaW1hZScsICc8aW5maWxlLm1hZT4nLCAnLW9tYWUnLCAnPG91dGZpbGUubWFlPic=

>  <s_epik_input>  (1) 
Tz1DKE8xKUMxKEYpW0NIMl1bQ0BASF0yW05IXVtDSDJdW0NIMl1OMltDQEBIXTNbQ0gyXVtDSDJdW0NASF0oW0NAQEhdKE80KVtDQEhdMzQpTjVbQ0gyXVtDSDJdW0NAQEhdKFtDQEhdNTYpTihbQ0gyXVtDSDJdNilbQ0BAXShbQ0gzXSkoW0NIMl1bQ0BASF03W09IXSlbQ0BAXTc4W0NASF0oTzgpW0NIMl1PW0NIM10=

>  <s_glide_docking_method>  (1) 
confgen

>  <s_i_glide_gridfile>  (1) 
gpcr_drd2_6luq_protein_autoprepared_prepared

>  <s_lp_Force_Field>  (1) 
S-OPLS

>  <s_lp_Variant>  (1) 
DiffSBDD_28-9

>  <s_m_source_file>  (1) 
generated_generic_title2_ligand_DiffSBDD_2026-06-23_prepared.sdf

>  <GenAI_Model>  (1) 
DiffSBDD

>  <Protein>  (1) 
generic_title2

$$$$
DiffSBDD_33
     RDKit          3D

  0  0  0  0  0  0  0  0  0  0999 V3000
M  V30 BEGIN CTAB
M  V30 COUNTS 57 63 0 0 1
M  V30 BEGIN ATOM
M  V30 1 C 9.125291 5.582960 -15.783751 0
M  V30 2 C 7.945859 3.398133 -15.353994 0
M  V30 3 C 7.966843 5.736564 -13.043103 0 CFG=2
M  V30 4 C 9.439963 5.145630 -7.922852 0
M  V30 5 C 5.755025 0.402122 -18.824951 0
M  V30 6 C 7.071568 3.567777 -12.881501 0
M  V30 7 C 6.989882 2.180651 -17.278852 0
M  V30 8 S 6.696343 0.891246 -15.014059 0
M  V30 9 C 7.433308 3.265134 -18.104695 0
M  V30 10 C 6.255580 0.924699 -17.600425 0
M  V30 11 C 11.052792 7.069668 -10.540149 0
M  V30 12 C 7.274806 2.279869 -15.860411 0
M  V30 13 C 5.073643 -0.829060 -18.872827 0
M  V30 14 N 8.974449 4.769535 -13.495229 0
M  V30 15 C 5.353305 -1.095262 -16.480879 0
M  V30 16 O 10.821805 8.975584 -9.212742 0
M  V30 17 C 10.168769 8.227006 -10.222302 0 CFG=2
M  V30 18 N 8.091262 4.324340 -17.566966 0
M  V30 19 C 6.031334 0.127960 -16.416349 0
M  V30 20 C 4.875017 -1.574126 -17.704867 0
M  V30 21 N 8.565309 6.390229 -10.785004 0 CFG=2 CHG=1
M  V30 22 C 8.521400 6.877744 -12.192650 0
M  V30 23 C 7.197613 4.878320 -12.083772 0 CFG=1
M  V30 24 C 8.343943 4.385536 -16.254489 0
M  V30 25 C 9.700568 6.814851 -9.886155 0 CFG=1
M  V30 26 C 9.466801 6.581976 -8.395604 0
M  V30 27 C 9.904381 5.201653 -14.528089 0
M  V30 28 C 8.278466 3.525862 -13.845555 0 CFG=2
M  V30 29 C 8.078271 4.978602 -10.805913 0
M  V30 30 H 9.809505 5.917141 -16.564719 0
M  V30 31 H 8.427886 6.390226 -15.585411 0
M  V30 32 H 7.320606 6.083675 -13.848348 0
M  V30 33 H 9.621177 5.190270 -6.852397 0
M  V30 34 H 8.475418 4.661726 -8.055287 0
M  V30 35 H 10.219887 4.543123 -8.385062 0
M  V30 36 H 5.898047 0.962799 -19.737008 0
M  V30 37 H 7.001890 2.681806 -12.260654 0
M  V30 38 H 6.148037 3.601774 -13.461316 0
M  V30 39 H 7.259828 3.272525 -19.170859 0
M  V30 40 H 11.211771 6.790071 -11.578298 0
M  V30 41 H 11.934163 6.939007 -9.912563 0
M  V30 42 H 4.702097 -1.200742 -19.816807 0
M  V30 43 H 5.201204 -1.665496 -15.584992 0
M  V30 44 H 11.592075 9.381936 -9.582189 0
M  V30 45 H 9.713843 8.790227 -11.024083 0
M  V30 46 H 4.351467 -2.518833 -17.747783 0
M  V30 47 H 7.824708 7.716533 -12.214955 0
M  V30 48 H 9.449812 7.243260 -12.617617 0
M  V30 49 H 6.214517 5.307799 -11.880756 0
M  V30 50 H 10.287818 7.039521 -7.845208 0
M  V30 51 H 8.575449 7.105890 -8.058594 0
M  V30 52 H 10.575352 4.390241 -14.789577 0
M  V30 53 H 10.549546 5.990225 -14.154571 0
M  V30 54 H 8.921413 2.690820 -13.567398 0
M  V30 55 H 8.925522 4.291873 -10.842692 0
M  V30 56 H 7.478121 4.742752 -9.929783 0
M  V30 57 H 7.794080 6.899628 -10.335487 0
M  V30 END ATOM
M  V30 BEGIN BOND
M  V30 1 2 9 7
M  V30 2 2 10 5
M  V30 3 1 10 7
M  V30 4 2 12 2
M  V30 5 1 12 7
M  V30 6 1 12 8
M  V30 7 1 13 5
M  V30 8 1 14 3
M  V30 9 1 17 11
M  V30 10 1 17 16
M  V30 11 1 18 9
M  V30 12 1 19 8
M  V30 13 1 19 10
M  V30 14 2 19 15
M  V30 15 2 20 13
M  V30 16 1 20 15
M  V30 17 1 22 3
M  V30 18 1 22 21
M  V30 19 1 23 3
M  V30 20 1 23 6
M  V30 21 1 24 1
M  V30 22 1 24 2
M  V30 23 2 24 18
M  V30 24 1 25 11
M  V30 25 1 25 17
M  V30 26 1 25 21
M  V30 27 1 26 4
M  V30 28 1 25 26 CFG=1
M  V30 29 1 27 1
M  V30 30 1 27 14
M  V30 31 1 28 2
M  V30 32 1 28 6
M  V30 33 1 28 14
M  V30 34 1 29 21
M  V30 35 1 29 23
M  V30 36 1 30 1
M  V30 37 1 31 1
M  V30 38 1 3 32 CFG=3
M  V30 39 1 33 4
M  V30 40 1 34 4
M  V30 41 1 35 4
M  V30 42 1 36 5
M  V30 43 1 37 6
M  V30 44 1 38 6
M  V30 45 1 39 9
M  V30 46 1 40 11
M  V30 47 1 41 11
M  V30 48 1 42 13
M  V30 49 1 43 15
M  V30 50 1 44 16
M  V30 51 1 17 45 CFG=3
M  V30 52 1 46 20
M  V30 53 1 47 22
M  V30 54 1 48 22
M  V30 55 1 23 49 CFG=1
M  V30 56 1 50 26
M  V30 57 1 51 26
M  V30 58 1 52 27
M  V30 59 1 53 27
M  V30 60 1 28 54 CFG=1
M  V30 61 1 55 29
M  V30 62 1 56 29
M  V30 63 1 21 57 CFG=1
M  V30 END BOND
M  V30 END CTAB
M  END
>  <i_epik_Tot_Q>  (1) 
1

>  <i_epik_Tot_abs_Q>  (1) 
1

>  <i_i_glide_confnum>  (1) 
3

>  <i_i_glide_lignum>  (1) 
95

>  <i_i_glide_posenum>  (1) 
339

>  <i_i_glide_rotatable_bonds>  (1) 
3

>  <i_lp_mmshare_version>  (1) 
72125

>  <i_m_source_file_index>  (1) 
34

>  <i_f3d_flags>  (1) 
0

>  <num_sample>  (1) 
50

>  <b_lp_Chiralities_Consistent>  (1) 
1

>  <r_epik_Charging_Adjusted_Penalty>  (1) 
0.0056247907503774904

>  <r_epik_Ionization_Penalty>  (1) 
0.066233849197789949

>  <r_epik_Ionization_Penalty_Charging>  (1) 
0.0056247907503774904

>  <r_epik_Ionization_Penalty_Neutral>  (1) 
0.060609058447412462

>  <r_epik_State_Penalty>  (1) 
-0

>  <r_glide_ring_energy>  (1) 
0

>  <r_i_docking_score>  (1) 
-5.0304076473109527

>  <r_i_glide_ecoul>  (1) 
-7.0763626586943422

>  <r_i_glide_eff_state_penalty>  (1) 
-0

>  <r_i_glide_einternal>  (1) 
5.1401274467012907

>  <r_i_glide_emodel>  (1) 
-31.239141659305709

>  <r_i_glide_emodel_strain>  (1) 
3.1353545086842018

>  <r_i_glide_energy>  (1) 
-28.75775086372883

>  <r_i_glide_erotb>  (1) 
0.11895510521466947

>  <r_i_glide_esite>  (1) 
-0.097071546205510201

>  <r_i_glide_evdw>  (1) 
-21.681388205034487

>  <r_i_glide_gscore>  (1) 
-5.0304076473109527

>  <r_i_glide_gscore_strain>  (1) 
0

>  <r_i_glide_hbond>  (1) 
-0.20000000000000001

>  <r_i_glide_ligand_efficiency>  (1) 
-0.17346233266589492

>  <r_i_glide_ligand_efficiency_ln>  (1) 
-1.1518357911024617

>  <r_i_glide_ligand_efficiency_sa>  (1) 
-0.53293124327214481

>  <r_i_glide_lipo>  (1) 
-1.544773715446053

>  <r_i_glide_metal>  (1) 
-0

>  <r_i_glide_rewards>  (1) 
-1.1619936818181824

>  <r_lp_Energy>  (1) 
35.775191999999997

>  <r_lp_tautomer_probability>  (1) 
1

>  <s_epik_cmdline>  (1) 
J2VwaWtfcHl0aG9uJywgJy1waHQnLCAnMS4wJywgJy1waCcsICc3LjQnLCAnLXRuJywgJzgnLCAnLW1hJywgJzUwMCcsICctaW1hZScsICc8aW5maWxlLm1hZT4nLCAnLW9tYWUnLCAnPG91dGZpbGUubWFlPic=

>  <s_epik_input>  (1) 
W09IXVtDQEhdMVtDSDJdW0NAXTEoW0NIMl1bQ0gzXSlOKFtDSDJdMilbQ0gyXVtDQEhdKFtDSDJdW0NAQEhdMzQpW0NAQEhdMk40W0NIMl1bQ0gyXWM1bltjSF1jKGM2YzM1KWM3YyhzNilbY0hdW2NIXVtjSF1bY0hdNw==

>  <s_glide_docking_method>  (1) 
confgen

>  <s_i_glide_gridfile>  (1) 
gpcr_drd2_6luq_protein_autoprepared_prepared

>  <s_lp_Force_Field>  (1) 
S-OPLS

>  <s_lp_Variant>  (1) 
DiffSBDD_33-1

>  <s_m_source_file>  (1) 
generated_generic_title2_ligand_DiffSBDD_2026-06-23_prepared.sdf

>  <GenAI_Model>  (1) 
DiffSBDD

>  <Protein>  (1) 
generic_title2

$$$$
DiffSBDD_7
     RDKit          3D

  0  0  0  0  0  0  0  0  0  0999 V3000
M  V30 BEGIN CTAB
M  V30 COUNTS 54 59 0 0 1
M  V30 BEGIN ATOM
M  V30 1 C 10.485370 7.145674 -7.099396 0
M  V30 2 C 4.933628 7.953745 -17.087765 0
M  V30 3 N 8.597108 5.190255 -9.328421 0
M  V30 4 C 8.643715 4.990482 -12.311878 0
M  V30 5 C 6.506881 6.283137 -18.207558 0 CFG=1
M  V30 6 F 8.829102 3.571256 -16.890062 0
M  V30 7 C 11.807279 8.440915 -8.697356 0
M  V30 8 N 10.179997 6.769797 -9.432342 0
M  V30 9 C 11.483759 8.153800 -7.416933 0
M  V30 10 C 6.479788 6.591385 -15.684554 0 CFG=1
M  V30 11 N 9.368220 5.879831 -11.518790 0
M  V30 12 C 5.647515 6.602984 -16.958820 0 CFG=1
M  V30 13 C 5.982613 7.004269 -14.357494 0 CFG=2
M  V30 14 C 8.370806 4.633865 -19.053216 0
M  V30 15 C 9.375415 5.936239 -10.229179 0
M  V30 16 N 8.948759 5.550569 -8.045834 0
M  V30 17 C 11.160014 7.745264 -9.901122 0
M  V30 18 C 7.654261 2.431518 -13.704875 0
M  V30 19 C 7.194881 4.927424 -18.144476 0 CFG=1
M  V30 20 C 6.856376 3.456370 -14.301111 0
M  V30 21 C 9.889830 6.511357 -8.125435 0
M  V30 22 C 6.852614 4.777808 -14.054246 0
M  V30 23 N 9.087193 3.687503 -12.152338 0
M  V30 24 S 7.323081 7.190344 -13.095287 0
M  V30 25 C 8.581496 4.751373 -17.566535 0 CFG=1
M  V30 26 N 10.175418 6.845119 -5.791146 0
M  V30 27 O 5.677322 6.264311 -19.353178 0
M  V30 28 C 7.675079 5.481412 -13.123561 0
M  V30 29 C 8.600855 2.564431 -12.785020 0
M  V30 30 N 5.989674 5.580979 -14.748915 0
M  V30 31 H 5.646196 8.777082 -17.119988 0
M  V30 32 H 4.309822 7.990304 -17.980112 0
M  V30 33 H 4.269445 8.130463 -16.241666 0
M  V30 34 H 7.264615 7.055445 -18.346496 0
M  V30 35 H 12.554143 9.190186 -8.909865 0
M  V30 36 H 11.978933 8.681303 -6.615861 0
M  V30 37 H 7.549033 6.452325 -15.807573 0
M  V30 38 H 4.872675 5.838012 -16.882039 0
M  V30 39 H 4.975518 7.331084 -14.113333 0
M  V30 40 H 8.424284 3.641290 -19.495069 0
M  V30 41 H 8.741346 5.443643 -19.678803 0
M  V30 42 H 8.345683 5.365537 -7.258721 0
M  V30 43 H 10.666209 8.481870 -10.533403 0
M  V30 44 H 11.927025 7.246881 -10.493747 0
M  V30 45 H 7.465206 1.424467 -14.048112 0
M  V30 46 H 6.510107 4.097298 -17.985279 0
M  V30 47 H 6.175410 3.120333 -15.053392 0
M  V30 48 H 9.142934 5.589793 -17.158628 0
M  V30 49 H 10.649562 7.284926 -5.017610 0
M  V30 50 H 9.514254 6.120427 -5.554571 0
M  V30 51 H 5.287902 7.119549 -19.454664 0
M  V30 52 H 9.109574 1.678537 -12.448826 0
M  V30 53 H 7.807222 4.584942 -9.501262 0
M  V30 54 H 9.833724 3.544155 -11.488627 0
M  V30 END ATOM
M  V30 BEGIN BOND
M  V30 1 1 9 1
M  V30 2 2 9 7
M  V30 3 1 11 4
M  V30 4 1 12 2
M  V30 5 1 12 5
M  V30 6 1 12 10
M  V30 7 1 13 10
M  V30 8 1 15 3
M  V30 9 1 15 8
M  V30 10 2 15 11
M  V30 11 1 16 3
M  V30 12 1 17 7
M  V30 13 1 17 8
M  V30 14 1 19 5
M  V30 15 1 19 14
M  V30 16 1 20 18
M  V30 17 2 21 1
M  V30 18 1 21 8
M  V30 19 1 21 16
M  V30 20 2 22 20
M  V30 21 1 23 4
M  V30 22 1 24 13
M  V30 23 1 25 6
M  V30 24 1 25 14
M  V30 25 1 25 19
M  V30 26 1 26 1
M  V30 27 1 27 5
M  V30 28 2 28 4
M  V30 29 1 28 22
M  V30 30 1 28 24
M  V30 31 2 29 18
M  V30 32 1 29 23
M  V30 33 1 30 10
M  V30 34 1 30 13
M  V30 35 1 30 22
M  V30 36 1 31 2
M  V30 37 1 32 2
M  V30 38 1 33 2
M  V30 39 1 5 34 CFG=3
M  V30 40 1 35 7
M  V30 41 1 36 9
M  V30 42 1 10 37 CFG=3
M  V30 43 1 12 38 CFG=1
M  V30 44 1 13 39 CFG=3
M  V30 45 1 40 14
M  V30 46 1 41 14
M  V30 47 1 42 16
M  V30 48 1 43 17
M  V30 49 1 44 17
M  V30 50 1 45 18
M  V30 51 1 19 46 CFG=1
M  V30 52 1 47 20
M  V30 53 1 25 48 CFG=3
M  V30 54 1 49 26
M  V30 55 1 50 26
M  V30 56 1 51 27
M  V30 57 1 52 29
M  V30 58 1 53 3
M  V30 59 1 54 23
M  V30 END BOND
M  V30 END CTAB
M  END
>  <i_epik_Tot_Q>  (1) 
0

>  <i_epik_Tot_abs_Q>  (1) 
0

>  <i_i_glide_confnum>  (1) 
91

>  <i_i_glide_lignum>  (1) 
31

>  <i_i_glide_posenum>  (1) 
272

>  <i_i_glide_rotatable_bonds>  (1) 
5

>  <i_lp_mmshare_version>  (1) 
72125

>  <i_m_source_file_index>  (1) 
8

>  <i_f3d_flags>  (1) 
0

>  <num_sample>  (1) 
50

>  <b_lp_Chiralities_Consistent>  (1) 
1

>  <r_epik_Charging_Adjusted_Penalty>  (1) 
6.333210498382379e-06

>  <r_epik_Ionization_Penalty>  (1) 
0.0013272624448344454

>  <r_epik_Ionization_Penalty_Charging>  (1) 
6.333210498382379e-06

>  <r_epik_Ionization_Penalty_Neutral>  (1) 
0.0013209292343360629

>  <r_epik_State_Penalty>  (1) 
-0

>  <r_glide_ring_energy>  (1) 
0

>  <r_i_docking_score>  (1) 
-5.0150994339099384

>  <r_i_glide_ecoul>  (1) 
-0.44170854840469231

>  <r_i_glide_eff_state_penalty>  (1) 
-0

>  <r_i_glide_einternal>  (1) 
2.5340479567378829

>  <r_i_glide_emodel>  (1) 
-47.746329466335681

>  <r_i_glide_emodel_strain>  (1) 
0.34716722054224647

>  <r_i_glide_energy>  (1) 
-40.164252332789566

>  <r_i_glide_erotb>  (1) 
0.43087853499794043

>  <r_i_glide_esite>  (1) 
-0.19707108137701024

>  <r_i_glide_evdw>  (1) 
-39.722543784384875

>  <r_i_glide_gscore>  (1) 
-5.0150994339099384

>  <r_i_glide_gscore_strain>  (1) 
0

>  <r_i_glide_hbond>  (1) 
0

>  <r_i_glide_ligand_efficiency>  (1) 
-0.16716998113033127

>  <r_i_glide_ligand_efficiency_ln>  (1) 
-1.1394852352693021

>  <r_i_glide_ligand_efficiency_sa>  (1) 
-0.51943599938785867

>  <r_i_glide_lipo>  (1) 
-2.4406720777701301

>  <r_i_glide_metal>  (1) 
-0

>  <r_i_glide_rewards>  (1) 
-0.7558513382807901

>  <r_lp_Energy>  (1) 
40.425478999999996

>  <r_lp_tautomer_probability>  (1) 
1

>  <s_epik_Chemistry_Notes>  (1) 
This compound has an imine and may undergo hydrolysis. This compound contains an acetal/aminal-like group ( X-CH(R)-Y where X, Y are N, S, or O) that may be acid/base labile, releasing an aldehyde.

>  <s_epik_cmdline>  (1) 
J2VwaWtfcHl0aG9uJywgJy1waHQnLCAnMS4wJywgJy1waCcsICc3LjQnLCAnLXRuJywgJzgnLCAnLW1hJywgJzUwMCcsICctaW1hZScsICc8aW5maWxlLm1hZT4nLCAnLW9tYWUnLCAnPG91dGZpbGUubWFlPic=

>  <s_epik_input>  (1) 
W0NIMl0xW0NIXT1bQ0hdQyhbTkgyXSk9QyhOMTIpW05IXU49QzJbTkhdQyg9TltDSF09W0NIXVtDSF09MylbQ0BASF0oUzQpQzNOKFtDQEBIXTQ1KVtDQEhdNVtDQEBIXShbQ0gzXSlbQ0BIXShbT0hdKVtDQEhdNltDSDJdW0NAQEhdNkY=

>  <s_glide_docking_method>  (1) 
confgen

>  <s_i_glide_gridfile>  (1) 
gpcr_drd2_6luq_protein_autoprepared_prepared

>  <s_lp_Force_Field>  (1) 
S-OPLS

>  <s_lp_Variant>  (1) 
DiffSBDD_7-1

>  <s_m_source_file>  (1) 
generated_generic_title2_ligand_DiffSBDD_2026-06-23_prepared.sdf

>  <GenAI_Model>  (1) 
DiffSBDD

>  <Protein>  (1) 
generic_title2

$$$$
DiffSBDD_37
     RDKit          3D

  0  0  0  0  0  0  0  0  0  0999 V3000
M  V30 BEGIN CTAB
M  V30 COUNTS 80 85 0 0 1
M  V30 BEGIN ATOM
M  V30 1 C 9.343057 5.744035 -10.993169 0 CFG=1
M  V30 2 O 11.376082 9.412619 -4.025529 0
M  V30 3 F 9.442363 5.173457 -18.440608 0
M  V30 4 C 8.698191 6.511936 -7.277280 0
M  V30 5 C 7.770175 8.064583 -12.330556 0
M  V30 6 O 10.616327 7.644743 -10.253132 0 CHG=-1
M  V30 7 C 10.446588 6.823159 -11.184060 0
M  V30 8 C 6.713670 5.672803 -17.679038 0
M  V30 9 C 7.715082 4.935859 -9.235280 0
M  V30 10 O 8.300857 6.895369 -12.960134 0
M  V30 11 C 9.014416 3.213879 -12.564832 0
M  V30 12 C 10.442441 6.663566 -5.470785 0
M  V30 13 F 6.284926 5.637558 -21.889462 0
M  V30 14 C 11.135699 9.423677 -6.428602 0
M  V30 15 C 8.833608 5.488733 -8.384354 0 CFG=2
M  V30 16 C 5.578057 6.075966 -15.480767 0
M  V30 17 O 8.574951 2.122259 -13.338691 0
M  V30 18 C 5.889780 4.421063 -13.566188 0
M  V30 19 C 7.287880 2.439233 -13.786614 0
M  V30 20 C 9.800048 8.733171 -6.735006 0
M  V30 21 C 11.861006 8.834176 -5.212687 0 CFG=2
M  V30 22 C 6.428382 5.646231 -20.554344 0
M  V30 23 C 5.944035 6.858881 -19.789611 0
M  V30 24 O 10.029347 4.790270 -8.434908 0
M  V30 25 C 6.887320 5.607253 -16.144359 0 CFG=1
M  V30 26 C 7.204871 4.450647 -18.467032 0 CFG=1
M  V30 27 O 11.099219 6.790186 -12.249830 0
M  V30 28 N 8.575409 5.990346 -9.735399 0 CFG=1 CHG=1
M  V30 29 C 8.323214 5.681338 -12.204839 0 CFG=1
M  V30 30 C 8.512370 4.498787 -13.237820 0 CFG=2
M  V30 31 C 5.538783 5.837287 -13.982124 0
M  V30 32 C 6.989319 4.579456 -19.966735 0
M  V30 33 C 9.965990 7.207541 -6.822534 0 CFG=2
M  V30 34 C 8.667555 4.131491 -18.134672 0 CFG=2
M  V30 35 C 6.154435 6.742212 -18.290575 0
M  V30 36 S 8.890660 3.690966 -16.390540 0
M  V30 37 C 11.775219 7.279948 -5.176927 0
M  V30 38 C 7.316841 4.200072 -15.626737 0 CFG=1
M  V30 39 C 7.273377 3.966812 -14.067685 0 CFG=2
M  V30 40 H 9.864547 4.802140 -10.881625 0
M  V30 41 H 10.473317 9.163629 -3.926999 0
M  V30 42 H 8.175416 7.335930 -7.687351 0
M  V30 43 H 8.119269 6.110905 -6.445056 0
M  V30 44 H 7.775406 8.867409 -13.063803 0
M  V30 45 H 6.746074 7.930482 -11.983080 0
M  V30 46 H 8.351753 8.416458 -11.484037 0
M  V30 47 H 7.833216 4.022243 -9.802272 0
M  V30 48 H 6.739238 5.404662 -9.271045 0
M  V30 49 H 10.096115 3.195721 -12.438850 0
M  V30 50 H 8.575436 3.120110 -11.585064 0
M  V30 51 H 9.775453 6.804437 -4.639252 0
M  V30 52 H 10.576514 5.590241 -5.547484 0
M  V30 53 H 10.991762 10.497608 -6.305132 0
M  V30 54 H 11.781271 9.299626 -7.298862 0
M  V30 55 H 4.734001 5.590900 -15.959860 0
M  V30 56 H 5.431163 7.143462 -15.635954 0
M  V30 57 H 5.124644 3.768097 -13.977515 0
M  V30 58 H 5.793969 4.297049 -12.487009 0
M  V30 59 H 7.028766 1.823562 -14.647903 0
M  V30 60 H 6.600097 2.157908 -12.987065 0
M  V30 61 H 9.412654 9.132257 -7.673095 0
M  V30 62 H 9.051382 8.953081 -5.984974 0
M  V30 63 H 12.899774 9.171165 -5.263777 0
M  V30 64 H 4.877880 6.985760 -19.981827 0
M  V30 65 H 6.457195 7.746233 -20.162662 0
M  V30 66 H 10.695285 5.290184 -7.986053 0
M  V30 67 H 7.677008 6.307084 -15.865872 0
M  V30 68 H 6.585356 3.599174 -18.189354 0
M  V30 69 H 7.334435 5.577371 -11.768625 0
M  V30 70 H 9.299625 4.807054 -13.924240 0
M  V30 71 H 4.575401 6.051050 -13.585022 0
M  V30 72 H 6.150615 6.568667 -13.508034 0
M  V30 73 H 7.310787 3.746118 -20.574078 0
M  V30 74 H 10.720808 7.052419 -7.594170 0
M  V30 75 H 9.032419 3.300986 -18.739468 0
M  V30 76 H 5.823632 7.582778 -17.699785 0
M  V30 77 H 12.255028 6.833140 -4.306139 0
M  V30 78 H 12.175391 6.856160 -6.082516 0
M  V30 79 H 6.576228 3.504347 -16.015058 0
M  V30 80 H 8.049568 6.875289 -9.716099 0
M  V30 END ATOM
M  V30 BEGIN BOND
M  V30 1 1 7 1
M  V30 2 1 7 6
M  V30 3 1 10 5
M  V30 4 1 15 4
M  V30 5 1 15 9
M  V30 6 1 17 11
M  V30 7 1 19 17
M  V30 8 1 20 14
M  V30 9 1 21 2
M  V30 10 1 21 14
M  V30 11 1 22 13
M  V30 12 1 23 22
M  V30 13 1 15 24 CFG=3
M  V30 14 1 25 8
M  V30 15 1 25 16
M  V30 16 1 26 8
M  V30 17 2 27 7
M  V30 18 1 28 1
M  V30 19 1 28 9
M  V30 20 1 28 15
M  V30 21 1 29 1
M  V30 22 1 29 10
M  V30 23 1 30 11
M  V30 24 1 30 29
M  V30 25 1 31 16
M  V30 26 1 31 18
M  V30 27 2 32 22
M  V30 28 1 32 26
M  V30 29 1 33 4
M  V30 30 1 33 12
M  V30 31 1 33 20
M  V30 32 1 34 3
M  V30 33 1 34 26
M  V30 34 2 35 8
M  V30 35 1 35 23
M  V30 36 1 36 34
M  V30 37 1 37 12
M  V30 38 1 37 21
M  V30 39 1 38 25
M  V30 40 1 38 36
M  V30 41 1 39 18 CFG=1
M  V30 42 1 39 19
M  V30 43 1 39 30
M  V30 44 1 39 38
M  V30 45 1 1 40 CFG=1
M  V30 46 1 41 2
M  V30 47 1 42 4
M  V30 48 1 43 4
M  V30 49 1 44 5
M  V30 50 1 45 5
M  V30 51 1 46 5
M  V30 52 1 47 9
M  V30 53 1 48 9
M  V30 54 1 49 11
M  V30 55 1 50 11
M  V30 56 1 51 12
M  V30 57 1 52 12
M  V30 58 1 53 14
M  V30 59 1 54 14
M  V30 60 1 55 16
M  V30 61 1 56 16
M  V30 62 1 57 18
M  V30 63 1 58 18
M  V30 64 1 59 19
M  V30 65 1 60 19
M  V30 66 1 61 20
M  V30 67 1 62 20
M  V30 68 1 21 63 CFG=3
M  V30 69 1 64 23
M  V30 70 1 65 23
M  V30 71 1 66 24
M  V30 72 1 25 67 CFG=1
M  V30 73 1 26 68 CFG=1
M  V30 74 1 29 69 CFG=1
M  V30 75 1 30 70 CFG=3
M  V30 76 1 71 31
M  V30 77 1 72 31
M  V30 78 1 73 32
M  V30 79 1 33 74 CFG=3
M  V30 80 1 34 75 CFG=3
M  V30 81 1 76 35
M  V30 82 1 77 37
M  V30 83 1 78 37
M  V30 84 1 38 79 CFG=3
M  V30 85 1 28 80 CFG=1
M  V30 END BOND
M  V30 END CTAB
M  END
>  <i_epik_Tot_Q>  (1) 
0

>  <i_epik_Tot_abs_Q>  (1) 
2

>  <i_i_glide_confnum>  (1) 
25

>  <i_i_glide_lignum>  (1) 
101

>  <i_i_glide_posenum>  (1) 
345

>  <i_i_glide_rotatable_bonds>  (1) 
9

>  <i_lp_mmshare_version>  (1) 
72125

>  <i_m_source_file_index>  (1) 
38

>  <i_f3d_flags>  (1) 
0

>  <num_sample>  (1) 
50

>  <b_lp_Chiralities_Consistent>  (1) 
1

>  <r_epik_Charging_Adjusted_Penalty>  (1) 
0.53807329711462948

>  <r_epik_Ionization_Penalty>  (1) 
0.26903764201212299

>  <r_epik_Ionization_Penalty_Charging>  (1) 
0.26903696022575102

>  <r_epik_Ionization_Penalty_Neutral>  (1) 
6.8178637198181737e-07

>  <r_epik_State_Penalty>  (1) 
0.26903633688887846

>  <r_glide_ring_energy>  (1) 
1.165074862516192

>  <r_i_docking_score>  (1) 
-5.012555444868763

>  <r_i_glide_ecoul>  (1) 
-7.1610310596649516

>  <r_i_glide_eff_state_penalty>  (1) 
0.26903633688887846

>  <r_i_glide_einternal>  (1) 
13.328257572335419

>  <r_i_glide_emodel>  (1) 
-14.547640662751498

>  <r_i_glide_emodel_strain>  (1) 
3.3962176118332508

>  <r_i_glide_energy>  (1) 
-19.399399527975945

>  <r_i_glide_erotb>  (1) 
0.23153238063810569

>  <r_i_glide_esite>  (1) 
-0.18905358524233198

>  <r_i_glide_evdw>  (1) 
-12.238368468310991

>  <r_i_glide_gscore>  (1) 
-5.2815917817576414

>  <r_i_glide_gscore_strain>  (1) 
0

>  <r_i_glide_hbond>  (1) 
-0.19094852827399683

>  <r_i_glide_ligand_efficiency>  (1) 
-0.12852706268894265

>  <r_i_glide_ligand_efficiency_ln>  (1) 
-1.0748341772277743

>  <r_i_glide_ligand_efficiency_sa>  (1) 
-0.43586244572774152

>  <r_i_glide_lipo>  (1) 
-2.7713169436020682

>  <r_i_glide_metal>  (1) 
-0

>  <r_i_glide_rewards>  (1) 
-0.67573202291205803

>  <r_lp_Energy>  (1) 
30.214154999999998

>  <s_epik_cmdline>  (1) 
J2VwaWtfcHl0aG9uJywgJy1waHQnLCAnMS4wJywgJy1waCcsICc3LjQnLCAnLXRuJywgJzgnLCAnLW1hJywgJzUwMCcsICctaW1hZScsICc8aW5maWxlLm1hZT4nLCAnLW9tYWUnLCAnPG91dGZpbGUubWFlPic=

>  <s_epik_input>  (1) 
W09IXVtDQEBIXTFbQ0gyXVtDSDJdW0NAQEhdKFtDSDJdW0NIMl0xKVtDSDJdW0NAQF0yKFtPSF0pW0NIMl1OMltDQEhdKEMoPU8pW09IXSlbQ0BASF0oT1tDSDNdKVtDQEhdM1tDSDJdT1tDSDJdW0NAXTM0W0NASF01W0NASF0oW0NIMl1bQ0gyXVtDSDJdNClDPTZbQ0BIXShbQ0BASF0oRilTNSlbQ0hdPUMoRilbQ0gyXVtDSF02

>  <s_glide_docking_method>  (1) 
confgen

>  <s_i_glide_gridfile>  (1) 
gpcr_drd2_6luq_protein_autoprepared_prepared

>  <s_lp_Force_Field>  (1) 
S-OPLS

>  <s_lp_Variant>  (1) 
DiffSBDD_37-2

>  <s_m_source_file>  (1) 
generated_generic_title2_ligand_DiffSBDD_2026-06-23_prepared.sdf

>  <GenAI_Model>  (1) 
DiffSBDD

>  <Protein>  (1) 
generic_title2

$$$$
DiffSBDD_25
     RDKit          3D

  0  0  0  0  0  0  0  0  0  0999 V3000
M  V30 BEGIN CTAB
M  V30 COUNTS 43 45 0 0 1
M  V30 BEGIN ATOM
M  V30 1 C 9.375411 6.515745 -7.773964 0 CFG=2
M  V30 2 C 11.404663 9.440708 -6.385025 0
M  V30 3 C 11.775409 8.946762 -5.125512 0
M  V30 4 C 10.215149 7.356542 -6.863375 0
M  V30 5 N 5.830659 7.186765 -13.217020 0 CHG=1
M  V30 6 N 8.575415 5.989007 -10.123024 0
M  V30 7 C 10.597452 6.867930 -5.597478 0
M  V30 8 C 9.905892 5.190228 -8.217699 0
M  V30 9 C 7.616802 8.390250 -11.985032 0
M  V30 10 C 6.867444 7.056024 -12.179894 0 CFG=2
M  V30 11 C 8.990811 5.711050 -11.497464 0 CFG=1
M  V30 12 C 9.688727 6.259782 -9.240710 0 CFG=2
M  V30 13 C 11.375410 7.658290 -4.734866 0
M  V30 14 C 8.410200 3.602773 -12.652386 0
M  V30 15 C 7.209256 4.539317 -12.669139 0
M  V30 16 C 9.375413 4.228534 -11.642819 0
M  V30 17 C 10.627111 8.647111 -7.254126 0
M  V30 18 C 7.848052 5.923144 -12.516926 0 CFG=1
M  V30 19 H 8.335993 6.532994 -7.457915 0
M  V30 20 H 11.714776 10.429566 -6.688398 0
M  V30 21 H 12.370593 9.554083 -4.459295 0
M  V30 22 H 6.250699 7.458633 -14.093902 0
M  V30 23 H 5.361947 6.299502 -13.325823 0
M  V30 24 H 7.894703 6.754475 -10.020040 0
M  V30 25 H 10.288426 5.884477 -5.286394 0
M  V30 26 H 10.938850 4.947325 -7.985013 0
M  V30 27 H 9.212589 4.353335 -8.210743 0
M  V30 28 H 8.436600 8.326803 -11.271394 0
M  V30 29 H 8.038279 8.757838 -12.919415 0
M  V30 30 H 6.949477 9.154784 -11.585021 0
M  V30 31 H 6.334788 6.790229 -11.264978 0
M  V30 32 H 9.826137 6.362645 -11.760072 0
M  V30 33 H 10.561974 6.790744 -9.615483 0
M  V30 34 H 11.662705 7.274955 -3.766761 0
M  V30 35 H 8.875313 3.590375 -13.637793 0
M  V30 36 H 8.146435 2.575547 -12.399209 0
M  V30 37 H 6.620254 4.435106 -13.580690 0
M  V30 38 H 6.560325 4.323273 -11.818517 0
M  V30 39 H 10.402584 4.136301 -11.988423 0
M  V30 40 H 9.320050 3.694591 -10.694833 0
M  V30 41 H 10.341174 9.031127 -8.222303 0
M  V30 42 H 8.322444 6.162455 -13.471257 0
M  V30 43 H 5.156492 7.882038 -12.927631 0
M  V30 END ATOM
M  V30 BEGIN BOND
M  V30 1 2 3 2
M  V30 2 1 4 1
M  V30 3 1 7 4
M  V30 4 1 8 1
M  V30 5 1 10 5
M  V30 6 1 10 9
M  V30 7 1 11 6
M  V30 8 1 12 1
M  V30 9 1 12 6
M  V30 10 1 12 8
M  V30 11 1 13 3
M  V30 12 2 13 7
M  V30 13 1 15 14
M  V30 14 1 16 11
M  V30 15 1 16 14
M  V30 16 1 17 2
M  V30 17 2 17 4
M  V30 18 1 18 10
M  V30 19 1 18 11
M  V30 20 1 18 15
M  V30 21 1 1 19 CFG=3
M  V30 22 1 20 2
M  V30 23 1 21 3
M  V30 24 1 22 5
M  V30 25 1 23 5
M  V30 26 1 24 6
M  V30 27 1 25 7
M  V30 28 1 26 8
M  V30 29 1 27 8
M  V30 30 1 28 9
M  V30 31 1 29 9
M  V30 32 1 30 9
M  V30 33 1 10 31 CFG=1
M  V30 34 1 11 32 CFG=3
M  V30 35 1 12 33 CFG=3
M  V30 36 1 34 13
M  V30 37 1 35 14
M  V30 38 1 36 14
M  V30 39 1 37 15
M  V30 40 1 38 15
M  V30 41 1 39 16
M  V30 42 1 40 16
M  V30 43 1 41 17
M  V30 44 1 18 42 CFG=3
M  V30 45 1 43 5
M  V30 END BOND
M  V30 END CTAB
M  END
>  <i_epik_Tot_Q>  (1) 
1

>  <i_epik_Tot_abs_Q>  (1) 
1

>  <i_i_glide_confnum>  (1) 
38

>  <i_i_glide_lignum>  (1) 
75

>  <i_i_glide_posenum>  (1) 
397

>  <i_i_glide_rotatable_bonds>  (1) 
4

>  <i_lp_mmshare_version>  (1) 
72125

>  <i_m_source_file_index>  (1) 
26

>  <i_f3d_flags>  (1) 
0

>  <num_sample>  (1) 
50

>  <b_lp_Chiralities_Consistent>  (1) 
1

>  <r_epik_Charging_Adjusted_Penalty>  (1) 
0.70247939945427629

>  <r_epik_Ionization_Penalty>  (1) 
0.7024793994542764

>  <r_epik_Ionization_Penalty_Charging>  (1) 
0.00054833754919439773

>  <r_epik_Ionization_Penalty_Neutral>  (1) 
0.70193106190508203

>  <r_epik_State_Penalty>  (1) 
0.70193106190508192

>  <r_glide_ring_energy>  (1) 
0.097090295733864004

>  <r_i_docking_score>  (1) 
-5.0122752460598976

>  <r_i_glide_ecoul>  (1) 
-7.3126434817871537

>  <r_i_glide_eff_state_penalty>  (1) 
0.70193106190508192

>  <r_i_glide_einternal>  (1) 
1.9536912376443265

>  <r_i_glide_emodel>  (1) 
-35.181614444301545

>  <r_i_glide_emodel_strain>  (1) 
0.015659639455755325

>  <r_i_glide_energy>  (1) 
-26.415681020668337

>  <r_i_glide_erotb>  (1) 
0.86719654817177239

>  <r_i_glide_esite>  (1) 
-0.00044098810928596414

>  <r_i_glide_evdw>  (1) 
-19.103037538881185

>  <r_i_glide_gscore>  (1) 
-5.7142063079649796

>  <r_i_glide_gscore_strain>  (1) 
0

>  <r_i_glide_hbond>  (1) 
-0.16

>  <r_i_glide_ligand_efficiency>  (1) 
-0.27845973589221651

>  <r_i_glide_ligand_efficiency_ln>  (1) 
-1.2883795066336889

>  <r_i_glide_ligand_efficiency_sa>  (1) 
-0.72977095647320878

>  <r_i_glide_lipo>  (1) 
-1.7947967429222329

>  <r_i_glide_metal>  (1) 
-0

>  <r_i_glide_rewards>  (1) 
-2.5741167258931008

>  <r_lp_Energy>  (1) 
26.397838999999998

>  <s_epik_cmdline>  (1) 
J2VwaWtfcHl0aG9uJywgJy1waHQnLCAnMS4wJywgJy1waCcsICc3LjQnLCAnLXRuJywgJzgnLCAnLW1hJywgJzUwMCcsICctaW1hZScsICc8aW5maWxlLm1hZT4nLCAnLW9tYWUnLCAnPG91dGZpbGUubWFlPic=

>  <s_epik_input>  (1) 
W2NIXTFbY0hdW2NIXVtjSF1bY0hdYzFbQ0BIXTJbQ0gyXVtDQEhdMltOSF1bQ0BIXTNbQ0gyXVtDSDJdW0NIMl1bQ0BIXTNbQ0BIXShbTkgyXSlbQ0gzXQ==

>  <s_glide_docking_method>  (1) 
confgen

>  <s_i_glide_gridfile>  (1) 
gpcr_drd2_6luq_protein_autoprepared_prepared

>  <s_lp_Force_Field>  (1) 
S-OPLS

>  <s_lp_Variant>  (1) 
DiffSBDD_25-4

>  <s_m_source_file>  (1) 
generated_generic_title2_ligand_DiffSBDD_2026-06-23_prepared.sdf

>  <GenAI_Model>  (1) 
DiffSBDD

>  <Protein>  (1) 
generic_title2

$$$$
DiffSBDD_39
     RDKit          3D

  0  0  0  0  0  0  0  0  0  0999 V3000
M  V30 BEGIN CTAB
M  V30 COUNTS 68 71 0 0 1
M  V30 BEGIN ATOM
M  V30 1 C 7.714462 5.823712 -15.052362 0
M  V30 2 F 5.993326 3.380090 -21.578961 0
M  V30 3 F 5.591608 3.477949 -19.457329 0
M  V30 4 C 11.430854 8.823423 -9.585175 0
M  V30 5 C 7.508692 6.484699 -12.598785 0
M  V30 6 C 6.558968 4.796698 -11.043653 0 CFG=1
M  V30 7 O 12.654569 8.790225 -8.879393 0
M  V30 8 C 7.100703 6.230001 -19.449149 0 CFG=2
M  V30 9 C 7.580186 3.004721 -14.376518 0
M  V30 10 C 8.791602 5.931735 -10.460206 0 CFG=2
M  V30 11 O 6.056137 7.709659 -21.076962 0
M  V30 12 C 7.602411 3.480815 -15.839129 0
M  V30 13 N 8.266430 4.805695 -15.987571 0 CFG=1 CHG=1
M  V30 14 C 4.724769 5.192215 -20.797384 0
M  V30 15 C 7.897442 5.373465 -13.603164 0 CFG=1
M  V30 16 C 8.355872 5.261230 -17.399663 0
M  V30 17 O 4.718640 6.245565 -19.830935 0
M  V30 18 C 7.010891 3.667941 -11.990344 0
M  V30 19 N 7.461612 5.990228 -11.185025 0 CFG=1 CHG=1
M  V30 20 C 10.767484 7.444640 -9.548896 0 CFG=1
M  V30 21 C 10.350095 7.072931 -8.122003 0
M  V30 22 C 7.053560 5.896292 -17.943075 0
M  V30 23 C 7.044689 4.104674 -13.449560 0 CFG=2
M  V30 24 C 5.854540 7.061937 -19.840227 0 CFG=1
M  V30 25 C 7.179400 4.968545 -20.312962 0
M  V30 26 C 9.824114 5.645220 -8.081833 0
M  V30 27 C 5.874931 4.205936 -20.538305 0
M  V30 28 O 8.245290 4.582500 -20.790667 0
M  V30 29 C 8.608831 5.471280 -8.981477 0
M  V30 30 O 5.375411 5.199386 -11.430441 0 CHG=-1
M  V30 31 C 9.579899 7.292009 -10.535153 0
M  V30 32 H 6.652760 5.978617 -15.253812 0
M  V30 33 H 8.175410 6.790226 -15.185027 0
M  V30 34 H 10.773392 9.590229 -9.185027 0
M  V30 35 H 11.669301 9.082057 -10.608846 0
M  V30 36 H 6.525736 6.877240 -12.863202 0
M  V30 37 H 8.163421 7.345242 -12.709984 0
M  V30 38 H 6.618326 4.379052 -10.045915 0
M  V30 39 H 13.211878 9.497468 -9.185315 0
M  V30 40 H 7.980439 6.845056 -19.644455 0
M  V30 41 H 6.958664 2.111960 -14.293157 0
M  V30 42 H 8.575409 2.707139 -14.051535 0
M  V30 43 H 9.407492 5.178520 -10.952425 0
M  V30 44 H 5.326796 8.292623 -21.225779 0
M  V30 45 H 6.578582 3.542778 -16.196576 0
M  V30 46 H 8.105584 2.736587 -16.458118 0
M  V30 47 H 4.779786 5.599781 -21.808093 0
M  V30 48 H 3.775077 4.663717 -20.736587 0
M  V30 49 H 8.947053 5.127487 -13.429712 0
M  V30 50 H 9.163310 5.990226 -17.473846 0
M  V30 51 H 8.666624 4.416941 -18.015607 0
M  V30 52 H 6.343371 2.809175 -11.901021 0
M  V30 53 H 8.017785 3.349008 -11.717126 0
M  V30 54 H 11.559497 6.790227 -9.876744 0
M  V30 55 H 11.194855 7.159714 -7.437816 0
M  V30 56 H 9.583402 7.761840 -7.762087 0
M  V30 57 H 6.199860 5.249726 -17.739098 0
M  V30 58 H 6.857454 6.821123 -17.400687 0
M  V30 59 H 6.018622 4.321882 -13.753994 0
M  V30 60 H 5.679036 7.855596 -19.112599 0
M  V30 61 H 10.587202 4.935591 -8.385023 0
M  V30 62 H 9.551273 5.395489 -7.058723 0
M  V30 63 H 8.373278 4.410276 -8.934041 0
M  V30 64 H 7.775411 5.990227 -8.518653 0
M  V30 65 H 8.912634 8.136465 -10.384960 0
M  V30 66 H 9.980812 7.421581 -11.540349 0
M  V30 67 H 9.223484 4.655147 -15.698482 0
M  V30 68 H 6.975420 6.709629 -10.644028 0
M  V30 END ATOM
M  V30 BEGIN BOND
M  V30 1 1 7 4
M  V30 2 1 12 9
M  V30 3 1 13 1
M  V30 4 1 13 12
M  V30 5 1 15 1
M  V30 6 1 15 5
M  V30 7 1 16 13
M  V30 8 1 17 14
M  V30 9 1 18 6
M  V30 10 1 19 5
M  V30 11 1 19 6
M  V30 12 1 19 10
M  V30 13 1 20 4
M  V30 14 1 21 20
M  V30 15 1 22 8
M  V30 16 1 22 16
M  V30 17 1 23 9
M  V30 18 1 23 15
M  V30 19 1 23 18
M  V30 20 1 24 8
M  V30 21 1 24 11
M  V30 22 1 24 17
M  V30 23 1 25 8
M  V30 24 1 26 21
M  V30 25 1 27 2
M  V30 26 1 27 3
M  V30 27 1 27 14
M  V30 28 1 27 25
M  V30 29 2 28 25
M  V30 30 1 29 10
M  V30 31 1 29 26
M  V30 32 1 30 6
M  V30 33 1 31 10
M  V30 34 1 31 20
M  V30 35 1 32 1
M  V30 36 1 33 1
M  V30 37 1 34 4
M  V30 38 1 35 4
M  V30 39 1 36 5
M  V30 40 1 37 5
M  V30 41 1 6 38 CFG=1
M  V30 42 1 39 7
M  V30 43 1 8 40 CFG=1
M  V30 44 1 41 9
M  V30 45 1 42 9
M  V30 46 1 10 43 CFG=3
M  V30 47 1 44 11
M  V30 48 1 45 12
M  V30 49 1 46 12
M  V30 50 1 47 14
M  V30 51 1 48 14
M  V30 52 1 15 49 CFG=3
M  V30 53 1 50 16
M  V30 54 1 51 16
M  V30 55 1 52 18
M  V30 56 1 53 18
M  V30 57 1 20 54 CFG=3
M  V30 58 1 55 21
M  V30 59 1 56 21
M  V30 60 1 57 22
M  V30 61 1 58 22
M  V30 62 1 23 59 CFG=3
M  V30 63 1 24 60 CFG=1
M  V30 64 1 61 26
M  V30 65 1 62 26
M  V30 66 1 63 29
M  V30 67 1 64 29
M  V30 68 1 65 31
M  V30 69 1 66 31
M  V30 70 1 13 67 CFG=1
M  V30 71 1 19 68 CFG=1
M  V30 END BOND
M  V30 END CTAB
M  END
>  <i_epik_Tot_Q>  (1) 
1

>  <i_epik_Tot_abs_Q>  (1) 
3

>  <i_i_glide_confnum>  (1) 
36

>  <i_i_glide_lignum>  (1) 
105

>  <i_i_glide_posenum>  (1) 
97

>  <i_i_glide_rotatable_bonds>  (1) 
7

>  <i_lp_mmshare_version>  (1) 
72125

>  <i_m_source_file_index>  (1) 
40

>  <i_f3d_flags>  (1) 
0

>  <num_sample>  (1) 
50

>  <b_lp_Chiralities_Consistent>  (1) 
1

>  <r_epik_Charging_Adjusted_Penalty>  (1) 
0.43569023002306473

>  <r_epik_Ionization_Penalty>  (1) 
0.17475065349743213

>  <r_epik_Ionization_Penalty_Charging>  (1) 
0.17468327186895813

>  <r_epik_Ionization_Penalty_Neutral>  (1) 
6.7381628474014066e-05

>  <r_epik_State_Penalty>  (1) 
0.26100695815410663

>  <r_glide_ring_energy>  (1) 
1.2534239858202438

>  <r_i_docking_score>  (1) 
-5.0110290475362618

>  <r_i_glide_ecoul>  (1) 
-7.7280672934049077

>  <r_i_glide_eff_state_penalty>  (1) 
0.26100695815410663

>  <r_i_glide_einternal>  (1) 
4.7308893778424803

>  <r_i_glide_emodel>  (1) 
-36.530412192621512

>  <r_i_glide_emodel_strain>  (1) 
0.74398867899265042

>  <r_i_glide_energy>  (1) 
-30.495916570045676

>  <r_i_glide_erotb>  (1) 
0.49989103335302049

>  <r_i_glide_esite>  (1) 
-0.12630580102112765

>  <r_i_glide_evdw>  (1) 
-22.767849276640767

>  <r_i_glide_gscore>  (1) 
-5.2720360056903681

>  <r_i_glide_gscore_strain>  (1) 
0

>  <r_i_glide_hbond>  (1) 
-0.52000000000000002

>  <r_i_glide_ligand_efficiency>  (1) 
-0.16164609830762136

>  <r_i_glide_ligand_efficiency_ln>  (1) 
-1.130140619816723

>  <r_i_glide_ligand_efficiency_sa>  (1) 
-0.50779192575811893

>  <r_i_glide_lipo>  (1) 
-1.2974313188653905

>  <r_i_glide_metal>  (1) 
-0

>  <r_i_glide_rewards>  (1) 
-1.5305873613140952

>  <r_lp_Energy>  (1) 
47.853707

>  <r_lp_tautomer_probability>  (1) 
0.99995000000000001

>  <s_epik_Chemistry_Notes>  (1) 
This compound contains an acetal/aminal-like group ( X-CH(R)-Y where X, Y are N, S, or O) that may be acid/base labile, releasing an aldehyde.

>  <s_epik_cmdline>  (1) 
J2VwaWtfcHl0aG9uJywgJy1waHQnLCAnMS4wJywgJy1waCcsICc3LjQnLCAnLXRuJywgJzgnLCAnLW1hJywgJzUwMCcsICctaW1hZScsICc8aW5maWxlLm1hZT4nLCAnLW9tYWUnLCAnPG91dGZpbGUubWFlPic=

>  <s_epik_input>  (1) 
RkMxKEYpW0NIMl1PW0NASF0oW09IXSlbQ0BIXShDMT1PKVtDSDJdW0NIMl1OKFtDSDJdMilbQ0gyXVtDSDJdW0NASF0oW0NAQEhdMjMpW0NIMl1bQ0BIXShbT0hdKU4oW0NIMl0zKVtDQEBIXTRbQ0gyXVtDSDJdW0NIMl1bQ0BASF0oW0NIMl00KVtDSDJdW09IXQ==

>  <s_glide_docking_method>  (1) 
confgen

>  <s_i_glide_gridfile>  (1) 
gpcr_drd2_6luq_protein_autoprepared_prepared

>  <s_lp_Force_Field>  (1) 
S-OPLS

>  <s_lp_Variant>  (1) 
DiffSBDD_39-1

>  <s_m_source_file>  (1) 
generated_generic_title2_ligand_DiffSBDD_2026-06-23_prepared.sdf

>  <GenAI_Model>  (1) 
DiffSBDD

>  <Protein>  (1) 
generic_title2

$$$$
DiffSBDD_2
     RDKit          3D

  0  0  0  0  0  0  0  0  0  0999 V3000
M  V30 BEGIN CTAB
M  V30 COUNTS 61 63 0 0 1
M  V30 BEGIN ATOM
M  V30 1 C 10.053879 7.245416 -9.305509 0 CFG=1
M  V30 2 C 6.754105 6.825361 -12.464913 0
M  V30 3 C 10.093804 8.707350 -9.757969 0
M  V30 4 C 5.573721 7.724678 -17.010846 0
M  V30 5 N 7.089223 1.882760 -15.997118 0
M  V30 6 C 6.654667 5.836743 -13.624510 0 CFG=2
M  V30 7 C 8.829574 5.083516 -9.455829 0
M  V30 8 C 7.844023 5.043627 -14.098785 0 CFG=2
M  V30 9 C 6.232831 -0.355341 -15.579324 0
M  V30 10 C 7.377770 3.095333 -15.678762 0
M  V30 11 C 7.090111 0.813008 -15.107724 0
M  V30 12 C 6.597326 5.464206 -16.293036 0 CFG=1
M  V30 13 C 8.145659 7.418635 -12.179135 0
M  V30 14 C 9.114529 6.448124 -11.468007 0
M  V30 15 C 7.204385 6.057063 -15.027501 0 CFG=1
M  V30 16 C 7.176184 3.696691 -18.164875 0
M  V30 17 C 8.670246 5.074471 -7.935523 0
M  V30 18 C 9.830182 5.805837 -7.253047 0
M  V30 19 O 7.695212 0.741765 -14.035150 0
M  V30 20 C 6.411011 6.504691 -17.418379 0
M  V30 21 C 7.442625 4.217566 -16.731166 0 CFG=2
M  V30 22 C 9.889205 7.229986 -7.779185 0
M  V30 23 N 8.975639 6.461091 -9.990108 0 CFG=2 CHG=1
M  V30 24 C 7.669833 3.546172 -14.246049 0
M  V30 25 H 11.013185 6.790638 -9.549909 0
M  V30 26 H 6.054062 7.632771 -12.669069 0
M  V30 27 H 6.380939 6.342213 -11.560972 0
M  V30 28 H 10.855484 9.262874 -9.208771 0
M  V30 29 H 10.339903 8.789725 -10.813567 0
M  V30 30 H 9.129783 9.191148 -9.588585 0
M  V30 31 H 5.375818 8.351130 -17.881303 0
M  V30 32 H 4.607412 7.424889 -16.603742 0
M  V30 33 H 6.080692 8.340586 -16.267077 0
M  V30 34 H 5.701371 5.310390 -13.608158 0
M  V30 35 H 7.953962 4.616428 -9.913121 0
M  V30 36 H 9.699296 4.486722 -9.738148 0
M  V30 37 H 8.871274 5.336434 -13.901385 0
M  V30 38 H 6.652500 -0.801138 -16.483078 0
M  V30 39 H 5.218763 -0.015530 -15.792197 0
M  V30 40 H 6.173602 -1.123407 -14.807603 0
M  V30 41 H 5.586055 5.191168 -16.014450 0
M  V30 42 H 8.580137 7.760344 -13.114548 0
M  V30 43 H 8.023331 8.323014 -11.585034 0
M  V30 44 H 8.957868 5.431821 -11.815863 0
M  V30 45 H 10.142307 6.672701 -11.753985 0
M  V30 46 H 7.771350 6.968696 -15.180079 0
M  V30 47 H 7.835626 2.860590 -18.402822 0
M  V30 48 H 6.155081 3.349632 -18.305825 0
M  V30 49 H 7.379760 4.457708 -18.916482 0
M  V30 50 H 7.733137 5.554064 -7.663411 0
M  V30 51 H 8.600100 4.047557 -7.585026 0
M  V30 52 H 9.695881 5.835791 -6.172691 0
M  V30 53 H 10.775435 5.295793 -7.449156 0
M  V30 54 H 7.379094 6.808774 -17.809050 0
M  V30 55 H 5.886886 6.036978 -18.253726 0
M  V30 56 H 8.484285 4.543741 -16.753389 0
M  V30 57 H 8.978300 7.759737 -7.494874 0
M  V30 58 H 10.716701 7.757097 -7.303461 0
M  V30 59 H 6.857070 3.225810 -13.593816 0
M  V30 60 H 8.575975 3.069777 -13.878883 0
M  V30 61 H 8.093274 6.951459 -9.770739 0
M  V30 END ATOM
M  V30 BEGIN BOND
M  V30 1 1 3 1
M  V30 2 1 6 2
M  V30 3 1 8 6
M  V30 4 2 10 5
M  V30 5 1 11 5
M  V30 6 1 11 9
M  V30 7 1 13 2
M  V30 8 1 14 13
M  V30 9 1 15 6
M  V30 10 1 15 8
M  V30 11 1 15 12
M  V30 12 1 17 7
M  V30 13 1 18 17
M  V30 14 2 19 11
M  V30 15 1 20 4
M  V30 16 1 20 12
M  V30 17 1 21 10
M  V30 18 1 21 12
M  V30 19 1 21 16
M  V30 20 1 22 1
M  V30 21 1 22 18
M  V30 22 1 23 1
M  V30 23 1 23 7
M  V30 24 1 23 14
M  V30 25 1 24 8
M  V30 26 1 24 10
M  V30 27 1 1 25 CFG=1
M  V30 28 1 26 2
M  V30 29 1 27 2
M  V30 30 1 28 3
M  V30 31 1 29 3
M  V30 32 1 30 3
M  V30 33 1 31 4
M  V30 34 1 32 4
M  V30 35 1 33 4
M  V30 36 1 6 34 CFG=3
M  V30 37 1 35 7
M  V30 38 1 36 7
M  V30 39 1 8 37 CFG=1
M  V30 40 1 38 9
M  V30 41 1 39 9
M  V30 42 1 40 9
M  V30 43 1 12 41 CFG=1
M  V30 44 1 42 13
M  V30 45 1 43 13
M  V30 46 1 44 14
M  V30 47 1 45 14
M  V30 48 1 15 46 CFG=3
M  V30 49 1 47 16
M  V30 50 1 48 16
M  V30 51 1 49 16
M  V30 52 1 50 17
M  V30 53 1 51 17
M  V30 54 1 52 18
M  V30 55 1 53 18
M  V30 56 1 54 20
M  V30 57 1 55 20
M  V30 58 1 21 56 CFG=3
M  V30 59 1 57 22
M  V30 60 1 58 22
M  V30 61 1 59 24
M  V30 62 1 60 24
M  V30 63 1 23 61 CFG=3
M  V30 END BOND
M  V30 END CTAB
M  END
>  <i_epik_Tot_Q>  (1) 
1

>  <i_epik_Tot_abs_Q>  (1) 
1

>  <i_i_glide_confnum>  (1) 
88

>  <i_i_glide_lignum>  (1) 
22

>  <i_i_glide_posenum>  (1) 
315

>  <i_i_glide_rotatable_bonds>  (1) 
6

>  <i_lp_mmshare_version>  (1) 
72125

>  <i_m_source_file_index>  (1) 
3

>  <i_f3d_flags>  (1) 
0

>  <num_sample>  (1) 
50

>  <b_lp_Chiralities_Consistent>  (1) 
1

>  <r_epik_Charging_Adjusted_Penalty>  (1) 
0.0011657924221308697

>  <r_epik_Ionization_Penalty>  (1) 
0.0011657924221308697

>  <r_epik_Ionization_Penalty_Charging>  (1) 
0.0011657924221308697

>  <r_epik_Ionization_Penalty_Neutral>  (1) 
0

>  <r_epik_State_Penalty>  (1) 
-0

>  <r_glide_ring_energy>  (1) 
0

>  <r_i_docking_score>  (1) 
-5.0090411742271463

>  <r_i_glide_ecoul>  (1) 
-5.7578696630574253

>  <r_i_glide_eff_state_penalty>  (1) 
-0

>  <r_i_glide_einternal>  (1) 
5.8642295053691686

>  <r_i_glide_emodel>  (1) 
-40.029793077717592

>  <r_i_glide_emodel_strain>  (1) 
0.27422243683277259

>  <r_i_glide_energy>  (1) 
-30.96345685880538

>  <r_i_glide_erotb>  (1) 
0.84713914833173298

>  <r_i_glide_esite>  (1) 
-0.10000000000000001

>  <r_i_glide_evdw>  (1) 
-25.205587195747952

>  <r_i_glide_gscore>  (1) 
-5.0090411742271463

>  <r_i_glide_gscore_strain>  (1) 
0

>  <r_i_glide_hbond>  (1) 
-0.19020510214144765

>  <r_i_glide_ligand_efficiency>  (1) 
-0.2087100489261311

>  <r_i_glide_ligand_efficiency_ln>  (1) 
-1.1988934029148199

>  <r_i_glide_ligand_efficiency_sa>  (1) 
-0.60202395676510156

>  <r_i_glide_lipo>  (1) 
-1.2211416969614168

>  <r_i_glide_metal>  (1) 
-0

>  <r_i_glide_rewards>  (1) 
-2.2208737142100028

>  <r_lp_Energy>  (1) 
45.021229999999996

>  <r_lp_tautomer_probability>  (1) 
1

>  <s_epik_Chemistry_Notes>  (1) 
This compound has an imine and may undergo hydrolysis.

>  <s_epik_cmdline>  (1) 
J2VwaWtfcHl0aG9uJywgJy1waHQnLCAnMS4wJywgJy1waCcsICc3LjQnLCAnLXRuJywgJzgnLCAnLW1hJywgJzUwMCcsICctaW1hZScsICc8aW5maWxlLm1hZT4nLCAnLW9tYWUnLCAnPG91dGZpbGUubWFlPic=

>  <s_epik_input>  (1) 
W0NIM11bQ0BIXTFbQ0gyXVtDSDJdW0NIMl1bQ0gyXU4xW0NIMl1bQ0gyXVtDSDJdW0NASF0yW0NAQEhdKFtDQEBIXTIzKVtDQEBIXShbQ0gyXVtDSDNdKVtDQEhdKFtDSDNdKVxDKFtDSDJdMyk9TlxDKD1PKVtDSDNd

>  <s_glide_docking_method>  (1) 
confgen

>  <s_i_glide_gridfile>  (1) 
gpcr_drd2_6luq_protein_autoprepared_prepared

>  <s_lp_Force_Field>  (1) 
S-OPLS

>  <s_lp_Variant>  (1) 
DiffSBDD_2-2

>  <s_m_source_file>  (1) 
generated_generic_title2_ligand_DiffSBDD_2026-06-23_prepared.sdf

>  <GenAI_Model>  (1) 
DiffSBDD

>  <Protein>  (1) 
generic_title2

$$$$
DiffSBDD_31
     RDKit          3D

  0  0  0  0  0  0  0  0  0  0999 V3000
M  V30 BEGIN CTAB
M  V30 COUNTS 59 61 0 0 1
M  V30 BEGIN ATOM
M  V30 1 C 6.688174 -0.485101 -22.428098 0
M  V30 2 C 6.386786 -0.161243 -17.294974 0
M  V30 3 C 7.644849 0.404788 -16.996087 0
M  V30 4 C 7.295014 2.608970 -13.069061 0
M  V30 5 C 7.803831 -2.509639 -18.516330 0
M  V30 6 O 8.175396 7.394874 -11.585025 0
M  V30 7 C 5.488962 0.518114 -19.604720 0
M  V30 8 C 6.040823 4.702263 -13.013202 0
M  V30 9 C 7.184507 6.932754 -12.490449 0 CFG=2
M  V30 10 C 6.482328 1.288800 -20.522860 0
M  V30 11 C 7.088646 -1.514617 -19.449809 0 CFG=1
M  V30 12 C 7.399973 0.275529 -21.284629 0 CFG=1
M  V30 13 C 7.224262 5.411194 -12.700110 0
M  V30 14 O 4.290236 0.792248 -19.584696 0
M  V30 15 F 7.375641 7.517735 -13.697846 0
M  V30 16 C 7.324369 1.097154 -13.247878 0
M  V30 17 C 6.055733 -0.608889 -18.722874 0 CFG=1
M  V30 18 C 6.079593 3.306991 -13.192388 0
M  V30 19 C 5.690158 2.162287 -21.531117 0
M  V30 20 C 7.942815 0.813695 -15.685982 0
M  V30 21 C 8.087327 -0.732279 -20.331599 0
M  V30 22 C 5.429735 -0.317594 -16.268010 0
M  V30 23 C 8.446617 4.709148 -12.581963 0
M  V30 24 C 6.991702 0.657506 -14.662443 0
M  V30 25 C 8.480710 3.311434 -12.767025 0
M  V30 26 C 5.733076 0.089577 -14.953213 0
M  V30 27 C 7.327320 2.297316 -19.700606 0
M  V30 28 C 5.824756 7.448611 -11.984895 0
M  V30 29 H 5.785117 -0.991764 -22.086973 0
M  V30 30 H 6.399427 0.183875 -23.239288 0
M  V30 31 H 7.342786 -1.237701 -22.868592 0
M  V30 32 H 8.381753 0.522229 -17.767625 0
M  V30 33 H 8.533331 -2.021309 -17.869329 0
M  V30 34 H 7.092116 -3.029932 -17.874149 0
M  V30 35 H 8.331122 -3.270392 -19.091292 0
M  V30 36 H 7.744486 7.590225 -10.739050 0
M  V30 37 H 5.103076 5.225782 -13.112469 0
M  V30 38 H 6.503834 -2.128455 -20.136243 0
M  V30 39 H 8.198570 0.848955 -21.757689 0
M  V30 40 H 8.305860 0.704427 -12.977131 0
M  V30 41 H 6.620547 0.645569 -12.546880 0
M  V30 42 H 5.196813 -1.265540 -18.579508 0
M  V30 43 H 5.173687 2.770024 -13.424448 0
M  V30 44 H 6.352624 2.630790 -22.259787 0
M  V30 45 H 4.956724 1.589883 -22.094417 0
M  V30 46 H 5.148849 2.962680 -21.024788 0
M  V30 47 H 8.905303 1.245487 -15.465047 0
M  V30 48 H 8.680393 -1.436621 -20.916078 0
M  V30 49 H 8.819533 -0.220938 -19.712012 0
M  V30 50 H 4.464593 -0.751183 -16.487836 0
M  V30 51 H 9.355598 5.242049 -12.345697 0
M  V30 52 H 9.414562 2.777931 -12.667711 0
M  V30 53 H 5.000377 -0.034672 -14.168577 0
M  V30 54 H 8.276942 1.891092 -19.366714 0
M  V30 55 H 6.792242 2.666074 -18.824135 0
M  V30 56 H 7.594179 3.172561 -20.294826 0
M  V30 57 H 5.477138 6.872960 -11.126992 0
M  V30 58 H 5.885911 8.486690 -11.663561 0
M  V30 59 H 5.056889 7.398629 -12.756592 0
M  V30 END ATOM
M  V30 BEGIN BOND
M  V30 1 1 3 2
M  V30 2 1 9 6
M  V30 3 1 10 7
M  V30 4 1 11 5
M  V30 5 1 12 1
M  V30 6 1 12 10
M  V30 7 1 13 8
M  V30 8 1 13 9
M  V30 9 2 14 7
M  V30 10 1 9 15 CFG=3
M  V30 11 1 16 4
M  V30 12 1 17 2
M  V30 13 1 17 7
M  V30 14 1 17 11
M  V30 15 1 18 4
M  V30 16 2 18 8
M  V30 17 1 19 10
M  V30 18 2 20 3
M  V30 19 1 21 11
M  V30 20 1 21 12
M  V30 21 2 22 2
M  V30 22 2 23 13
M  V30 23 1 24 16
M  V30 24 1 24 20
M  V30 25 2 25 4
M  V30 26 1 25 23
M  V30 27 1 26 22
M  V30 28 2 26 24
M  V30 29 1 27 10
M  V30 30 1 28 9
M  V30 31 1 29 1
M  V30 32 1 30 1
M  V30 33 1 31 1
M  V30 34 1 32 3
M  V30 35 1 33 5
M  V30 36 1 34 5
M  V30 37 1 35 5
M  V30 38 1 36 6
M  V30 39 1 37 8
M  V30 40 1 11 38 CFG=3
M  V30 41 1 12 39 CFG=3
M  V30 42 1 40 16
M  V30 43 1 41 16
M  V30 44 1 17 42 CFG=1
M  V30 45 1 43 18
M  V30 46 1 44 19
M  V30 47 1 45 19
M  V30 48 1 46 19
M  V30 49 1 47 20
M  V30 50 1 48 21
M  V30 51 1 49 21
M  V30 52 1 50 22
M  V30 53 1 51 23
M  V30 54 1 52 25
M  V30 55 1 53 26
M  V30 56 1 54 27
M  V30 57 1 55 27
M  V30 58 1 56 27
M  V30 59 1 57 28
M  V30 60 1 58 28
M  V30 61 1 59 28
M  V30 END BOND
M  V30 END CTAB
M  END
>  <i_epik_Tot_Q>  (1) 
0

>  <i_epik_Tot_abs_Q>  (1) 
0

>  <i_i_glide_confnum>  (1) 
111

>  <i_i_glide_lignum>  (1) 
93

>  <i_i_glide_posenum>  (1) 
320

>  <i_i_glide_rotatable_bonds>  (1) 
5

>  <i_lp_mmshare_version>  (1) 
72125

>  <i_m_source_file_index>  (1) 
32

>  <i_f3d_flags>  (1) 
0

>  <num_sample>  (1) 
50

>  <b_lp_Chiralities_Consistent>  (1) 
1

>  <r_epik_Charging_Adjusted_Penalty>  (1) 
0

>  <r_epik_Ionization_Penalty>  (1) 
1.3037473646551527e-05

>  <r_epik_Ionization_Penalty_Charging>  (1) 
0

>  <r_epik_Ionization_Penalty_Neutral>  (1) 
1.3037473646551527e-05

>  <r_epik_State_Penalty>  (1) 
-0

>  <r_glide_ring_energy>  (1) 
1.3203360407337346

>  <r_i_docking_score>  (1) 
-5.007919604195842

>  <r_i_glide_ecoul>  (1) 
-6.0228774185521026

>  <r_i_glide_eff_state_penalty>  (1) 
-0

>  <r_i_glide_einternal>  (1) 
6.0419640459137796

>  <r_i_glide_emodel>  (1) 
-37.368615699600532

>  <r_i_glide_emodel_strain>  (1) 
0.094263171824984227

>  <r_i_glide_energy>  (1) 
-35.560092190784772

>  <r_i_glide_erotb>  (1) 
0.5309461335497756

>  <r_i_glide_esite>  (1) 
0

>  <r_i_glide_evdw>  (1) 
-29.537214772232673

>  <r_i_glide_gscore>  (1) 
-5.007919604195842

>  <r_i_glide_gscore_strain>  (1) 
0

>  <r_i_glide_hbond>  (1) 
-0.16

>  <r_i_glide_ligand_efficiency>  (1) 
-0.17885427157842293

>  <r_i_glide_ligand_efficiency_ln>  (1) 
-1.1559748835572192

>  <r_i_glide_ligand_efficiency_sa>  (1) 
-0.5431069086478939

>  <r_i_glide_lipo>  (1) 
-1.6091474780065214

>  <r_i_glide_metal>  (1) 
-0

>  <r_i_glide_rewards>  (1) 
-1.3894259083446472

>  <r_lp_Energy>  (1) 
34.726877999999999

>  <r_lp_tautomer_probability>  (1) 
1

>  <s_epik_cmdline>  (1) 
J2VwaWtfcHl0aG9uJywgJy1waHQnLCAnMS4wJywgJy1waCcsICc3LjQnLCAnLXRuJywgJzgnLCAnLW1hJywgJzUwMCcsICctaW1hZScsICc8aW5maWxlLm1hZT4nLCAnLW9tYWUnLCAnPG91dGZpbGUubWFlPic=

>  <s_epik_input>  (1) 
W0NIM11bQ0BASF0xW0NIMl1bQ0BASF0oW0NIM10pW0NASF0oQyg9TylDMShbQ0gzXSlbQ0gzXSljMltjSF1bY0hdYyhbY0hdW2NIXTIpW0NIMl1jM1tjSF1bY0hdYyhbQ0BdKEYpKFtPSF0pW0NIM10pW2NIXVtjSF0z

>  <s_glide_docking_method>  (1) 
confgen

>  <s_i_glide_gridfile>  (1) 
gpcr_drd2_6luq_protein_autoprepared_prepared

>  <s_lp_Force_Field>  (1) 
S-OPLS

>  <s_lp_Variant>  (1) 
DiffSBDD_31-1

>  <s_m_source_file>  (1) 
generated_generic_title2_ligand_DiffSBDD_2026-06-23_prepared.sdf

>  <GenAI_Model>  (1) 
DiffSBDD

>  <Protein>  (1) 
generic_title2

$$$$
DiffSBDD_39
     RDKit          3D

  0  0  0  0  0  0  0  0  0  0999 V3000
M  V30 BEGIN CTAB
M  V30 COUNTS 68 71 0 0 1
M  V30 BEGIN ATOM
M  V30 1 C 9.023598 4.599085 -11.770189 0
M  V30 2 F 8.575410 -0.409767 -14.194591 0
M  V30 3 F 6.575412 -1.209771 -13.937898 0
M  V30 4 C 12.481578 9.683831 -5.826632 0
M  V30 5 C 9.488045 6.056505 -9.801052 0
M  V30 6 C 9.704056 8.491503 -10.070205 0 CFG=1
M  V30 7 O 11.543524 10.702687 -5.585024 0
M  V30 8 C 7.178806 2.317293 -14.694737 0 CFG=2
M  V30 9 C 8.117071 6.919799 -13.292748 0
M  V30 10 C 10.170770 7.332823 -7.873239 0 CFG=2
M  V30 11 O 7.582020 3.173225 -16.912337 0
M  V30 12 C 8.529985 5.605861 -13.976257 0
M  V30 13 N 8.310707 4.461118 -13.056953 0 CFG=2 CHG=1
M  V30 14 C 7.128838 -0.264399 -16.020983 0
M  V30 15 C 8.683229 5.932502 -11.086700 0 CFG=1
M  V30 16 C 6.888137 4.107062 -12.894671 0
M  V30 17 O 7.709464 0.913334 -16.574215 0
M  V30 18 C 8.872951 8.425808 -11.375031 0
M  V30 19 N 9.375413 7.371331 -9.135832 0 CFG=2 CHG=1
M  V30 20 C 11.738561 8.430775 -6.291694 0 CFG=1
M  V30 21 C 11.075754 7.704360 -5.125886 0
M  V30 22 C 6.359489 3.535791 -14.205428 0
M  V30 23 C 9.005062 7.074762 -12.059388 0 CFG=2
M  V30 24 C 7.032832 2.078016 -16.219697 0 CFG=1
M  V30 25 C 6.813887 1.059465 -13.918031 0
M  V30 26 C 10.403015 6.397202 -5.545605 0
M  V30 27 C 7.288658 -0.245092 -14.494019 0
M  V30 28 O 6.175412 1.106145 -12.864872 0
M  V30 29 C 9.434974 6.620809 -6.719191 0
M  V30 30 O 10.975342 8.356298 -10.385025 0 CHG=-1
M  V30 31 C 10.690045 8.690303 -7.367089 0
M  V30 32 H 10.094812 4.545627 -11.973680 0
M  V30 33 H 8.802241 3.753926 -11.117898 0
M  V30 34 H 13.190688 9.990224 -6.588208 0
M  V30 35 H 13.063532 9.495998 -4.922942 0
M  V30 36 H 10.538722 5.990220 -10.040577 0
M  V30 37 H 9.241000 5.234787 -9.131118 0
M  V30 38 H 9.336090 9.388913 -9.579867 0
M  V30 39 H 11.997717 11.530118 -5.525021 0
M  V30 40 H 8.242507 2.475936 -14.533676 0
M  V30 41 H 8.175401 7.763743 -13.973596 0
M  V30 42 H 7.067766 6.914081 -12.999716 0
M  V30 43 H 11.064126 6.746654 -8.099978 0
M  V30 44 H 7.528437 2.982874 -17.837656 0
M  V30 45 H 9.589488 5.602113 -14.235828 0
M  V30 46 H 8.009722 5.492699 -14.924555 0
M  V30 47 H 7.634829 -1.134798 -16.438899 0
M  V30 48 H 6.079221 -0.347380 -16.308336 0
M  V30 49 H 7.624347 5.962467 -10.821250 0
M  V30 50 H 6.782951 3.377297 -12.093216 0
M  V30 51 H 6.282769 4.956092 -12.581749 0
M  V30 52 H 9.190041 9.190222 -12.079496 0
M  V30 53 H 7.822341 8.643318 -11.185029 0
M  V30 54 H 12.462837 7.793172 -6.785075 0
M  V30 55 H 11.775284 7.531993 -4.308016 0
M  V30 56 H 10.308071 8.384283 -4.785026 0
M  V30 57 H 5.348091 3.243139 -13.985016 0
M  V30 58 H 6.261976 4.302505 -14.971589 0
M  V30 59 H 10.045099 6.982504 -12.378607 0
M  V30 60 H 5.999270 1.980159 -16.542157 0
M  V30 61 H 11.168632 5.671045 -5.824681 0
M  V30 62 H 9.862631 5.990235 -4.692257 0
M  V30 63 H 9.024056 5.659656 -7.022993 0
M  V30 64 H 8.583861 7.222838 -6.394408 0
M  V30 65 H 9.854286 9.273195 -6.986213 0
M  V30 66 H 11.192415 9.272661 -8.132844 0
M  V30 67 H 8.735117 3.660632 -13.501076 0
M  V30 68 H 8.382549 7.528274 -8.934983 0
M  V30 END ATOM
M  V30 BEGIN BOND
M  V30 1 1 7 4
M  V30 2 1 12 9
M  V30 3 1 13 1
M  V30 4 1 13 12
M  V30 5 1 15 1
M  V30 6 1 15 5
M  V30 7 1 16 13
M  V30 8 1 17 14
M  V30 9 1 18 6
M  V30 10 1 19 5
M  V30 11 1 19 6
M  V30 12 1 19 10
M  V30 13 1 20 4
M  V30 14 1 21 20
M  V30 15 1 22 8
M  V30 16 1 22 16
M  V30 17 1 23 9
M  V30 18 1 23 15
M  V30 19 1 23 18
M  V30 20 1 24 8
M  V30 21 1 24 11
M  V30 22 1 24 17
M  V30 23 1 25 8
M  V30 24 1 26 21
M  V30 25 1 27 2
M  V30 26 1 27 3
M  V30 27 1 27 14
M  V30 28 1 27 25
M  V30 29 2 28 25
M  V30 30 1 29 10
M  V30 31 1 29 26
M  V30 32 1 30 6
M  V30 33 1 31 10
M  V30 34 1 31 20
M  V30 35 1 32 1
M  V30 36 1 33 1
M  V30 37 1 34 4
M  V30 38 1 35 4
M  V30 39 1 36 5
M  V30 40 1 37 5
M  V30 41 1 6 38 CFG=1
M  V30 42 1 39 7
M  V30 43 1 8 40 CFG=3
M  V30 44 1 41 9
M  V30 45 1 42 9
M  V30 46 1 10 43 CFG=3
M  V30 47 1 44 11
M  V30 48 1 45 12
M  V30 49 1 46 12
M  V30 50 1 47 14
M  V30 51 1 48 14
M  V30 52 1 15 49 CFG=1
M  V30 53 1 50 16
M  V30 54 1 51 16
M  V30 55 1 52 18
M  V30 56 1 53 18
M  V30 57 1 20 54 CFG=3
M  V30 58 1 55 21
M  V30 59 1 56 21
M  V30 60 1 57 22
M  V30 61 1 58 22
M  V30 62 1 23 59 CFG=3
M  V30 63 1 24 60 CFG=1
M  V30 64 1 61 26
M  V30 65 1 62 26
M  V30 66 1 63 29
M  V30 67 1 64 29
M  V30 68 1 65 31
M  V30 69 1 66 31
M  V30 70 1 13 67 CFG=3
M  V30 71 1 19 68 CFG=1
M  V30 END BOND
M  V30 END CTAB
M  END
>  <i_epik_Tot_Q>  (1) 
1

>  <i_epik_Tot_abs_Q>  (1) 
3

>  <i_i_glide_confnum>  (1) 
435

>  <i_i_glide_lignum>  (1) 
108

>  <i_i_glide_posenum>  (1) 
355

>  <i_i_glide_rotatable_bonds>  (1) 
7

>  <i_lp_mmshare_version>  (1) 
72125

>  <i_m_source_file_index>  (1) 
40

>  <i_f3d_flags>  (1) 
0

>  <num_sample>  (1) 
50

>  <b_lp_Chiralities_Consistent>  (1) 
1

>  <r_epik_Charging_Adjusted_Penalty>  (1) 
0.43569023002306473

>  <r_epik_Ionization_Penalty>  (1) 
0.17475065349743213

>  <r_epik_Ionization_Penalty_Charging>  (1) 
0.17468327186895813

>  <r_epik_Ionization_Penalty_Neutral>  (1) 
6.7381628474014066e-05

>  <r_epik_State_Penalty>  (1) 
0.26100695815410663

>  <r_glide_ring_energy>  (1) 
0

>  <r_i_docking_score>  (1) 
-5.005600593513563

>  <r_i_glide_ecoul>  (1) 
-8.4512265082292242

>  <r_i_glide_eff_state_penalty>  (1) 
0.26100695815410663

>  <r_i_glide_einternal>  (1) 
7.6748566585376992

>  <r_i_glide_emodel>  (1) 
-27.552146960093335

>  <r_i_glide_emodel_strain>  (1) 
1.35568577478017

>  <r_i_glide_energy>  (1) 
-23.927168445908574

>  <r_i_glide_erotb>  (1) 
0.49989103335302049

>  <r_i_glide_esite>  (1) 
-0.23427040982861957

>  <r_i_glide_evdw>  (1) 
-15.47594193767935

>  <r_i_glide_gscore>  (1) 
-5.2666075516676694

>  <r_i_glide_gscore_strain>  (1) 
0

>  <r_i_glide_hbond>  (1) 
-0.20000000000000001

>  <r_i_glide_ligand_efficiency>  (1) 
-0.16147098688753428

>  <r_i_glide_ligand_efficiency_ln>  (1) 
-1.128916337072468

>  <r_i_glide_ligand_efficiency_sa>  (1) 
-0.50724183413104462

>  <r_i_glide_lipo>  (1) 
-1.7602833765404182

>  <r_i_glide_metal>  (1) 
-0

>  <r_i_glide_rewards>  (1) 
-1.5304637255333007

>  <r_lp_Energy>  (1) 
51.063981999999996

>  <r_lp_tautomer_probability>  (1) 
0.99995000000000001

>  <s_epik_Chemistry_Notes>  (1) 
This compound contains an acetal/aminal-like group ( X-CH(R)-Y where X, Y are N, S, or O) that may be acid/base labile, releasing an aldehyde.

>  <s_epik_cmdline>  (1) 
J2VwaWtfcHl0aG9uJywgJy1waHQnLCAnMS4wJywgJy1waCcsICc3LjQnLCAnLXRuJywgJzgnLCAnLW1hJywgJzUwMCcsICctaW1hZScsICc8aW5maWxlLm1hZT4nLCAnLW9tYWUnLCAnPG91dGZpbGUubWFlPic=

>  <s_epik_input>  (1) 
RkMxKEYpW0NIMl1PW0NASF0oW09IXSlbQ0BIXShDMT1PKVtDSDJdW0NIMl1OKFtDSDJdMilbQ0gyXVtDSDJdW0NASF0oW0NAQEhdMjMpW0NIMl1bQ0BIXShbT0hdKU4oW0NIMl0zKVtDQEBIXTRbQ0gyXVtDSDJdW0NIMl1bQ0BASF0oW0NIMl00KVtDSDJdW09IXQ==

>  <s_glide_docking_method>  (1) 
confgen

>  <s_i_glide_gridfile>  (1) 
gpcr_drd2_6luq_protein_autoprepared_prepared

>  <s_lp_Force_Field>  (1) 
S-OPLS

>  <s_lp_Variant>  (1) 
DiffSBDD_39-4

>  <s_m_source_file>  (1) 
generated_generic_title2_ligand_DiffSBDD_2026-06-23_prepared.sdf

>  <GenAI_Model>  (1) 
DiffSBDD

>  <Protein>  (1) 
generic_title2

$$$$
DiffSBDD_39
     RDKit          3D

  0  0  0  0  0  0  0  0  0  0999 V3000
M  V30 BEGIN CTAB
M  V30 COUNTS 68 71 0 0 1
M  V30 BEGIN ATOM
M  V30 1 C 8.283511 5.264916 -15.330257 0
M  V30 2 F 8.277017 6.898786 -22.025409 0
M  V30 3 F 7.961427 4.820226 -21.532963 0
M  V30 4 C 11.666880 8.776217 -9.435100 0
M  V30 5 C 8.016061 6.462354 -13.049034 0
M  V30 6 C 6.587008 5.343147 -11.346754 0 CFG=1
M  V30 7 O 12.975689 8.506482 -8.978963 0
M  V30 8 C 7.201212 5.850995 -18.625264 0 CFG=2
M  V30 9 C 7.620757 2.710125 -14.057008 0
M  V30 10 C 8.936616 6.170172 -10.700573 0 CFG=2
M  V30 11 O 5.375300 7.450428 -18.841219 0
M  V30 12 C 7.703948 2.836783 -15.582691 0
M  V30 13 N 8.575394 3.970750 -16.010551 0 CFG=1 CHG=1
M  V30 14 C 6.133810 6.265124 -21.317273 0
M  V30 15 C 8.260398 5.113457 -13.789879 0 CFG=1
M  V30 16 C 8.744402 4.069817 -17.488987 0
M  V30 17 O 5.437981 5.596076 -20.264491 0
M  V30 18 C 6.940817 3.973154 -11.952351 0
M  V30 19 N 7.711813 6.304749 -11.585017 0 CFG=1 CHG=1
M  V30 20 C 10.898632 7.455444 -9.590482 0 CFG=1
M  V30 21 C 10.505120 6.886155 -8.217271 0
M  V30 22 C 7.446993 4.361247 -18.291485 0
M  V30 23 C 7.192779 4.053484 -13.458436 0 CFG=2
M  V30 24 C 5.710862 6.088153 -18.986067 0 CFG=1
M  V30 25 C 8.122239 6.327412 -19.752417 0
M  V30 26 C 9.850431 5.510366 -8.342530 0
M  V30 27 C 7.653976 6.070341 -21.186330 0
M  V30 28 O 9.198804 6.871559 -19.512979 0
M  V30 29 C 8.664025 5.511421 -9.308347 0
M  V30 30 O 5.563412 5.834093 -11.997152 0 CHG=-1
M  V30 31 C 9.656840 7.543847 -10.506410 0
M  V30 32 H 7.322826 5.650695 -15.673655 0
M  V30 33 H 9.042435 5.990217 -15.619706 0
M  V30 34 H 11.162816 9.465188 -8.760755 0
M  V30 35 H 11.774026 9.282333 -10.385025 0
M  V30 36 H 7.185002 6.988224 -13.522123 0
M  V30 37 H 8.869736 7.118716 -13.184786 0
M  V30 38 H 6.434541 5.179735 -10.285409 0
M  V30 39 H 13.519947 9.262239 -9.178109 0
M  V30 40 H 7.404715 6.451369 -17.739941 0
M  V30 41 H 6.897929 1.935584 -13.796442 0
M  V30 42 H 8.575379 2.391733 -13.636159 0
M  V30 43 H 9.630915 5.504683 -11.214356 0
M  V30 44 H 4.436567 7.533007 -18.921005 0
M  V30 45 H 6.689109 2.962984 -15.950167 0
M  V30 46 H 8.075549 1.904029 -16.009141 0
M  V30 47 H 5.877261 7.325408 -21.338169 0
M  V30 48 H 5.791937 5.856595 -22.269050 0
M  V30 49 H 9.232019 4.740195 -13.461670 0
M  V30 50 H 9.520720 4.800643 -17.717998 0
M  V30 51 H 9.147010 3.112968 -17.824695 0
M  V30 52 H 6.145935 3.256622 -11.741049 0
M  V30 53 H 7.844836 3.590225 -11.483211 0
M  V30 54 H 11.596323 6.790227 -10.080404 0
M  V30 55 H 11.380313 6.807290 -7.571270 0
M  V30 56 H 9.815853 7.570884 -7.720228 0
M  V30 57 H 7.504386 3.805231 -19.228199 0
M  V30 58 H 6.575419 3.939802 -17.802666 0
M  V30 59 H 6.250390 4.337668 -13.931234 0
M  V30 60 H 5.060016 5.550296 -18.295452 0
M  V30 61 H 10.575406 4.768186 -8.656761 0
M  V30 62 H 9.508756 5.190263 -7.358685 0
M  V30 63 H 8.364969 4.472288 -9.435239 0
M  V30 64 H 7.836267 5.990230 -8.792137 0
M  V30 65 H 8.975411 8.277625 -10.081179 0
M  V30 66 H 9.966295 7.950258 -11.467960 0
M  V30 67 H 9.495225 3.724844 -15.673202 0
M  V30 68 H 7.290621 7.169726 -11.262704 0
M  V30 END ATOM
M  V30 BEGIN BOND
M  V30 1 1 7 4
M  V30 2 1 12 9
M  V30 3 1 13 1
M  V30 4 1 13 12
M  V30 5 1 15 1
M  V30 6 1 15 5
M  V30 7 1 16 13
M  V30 8 1 17 14
M  V30 9 1 18 6
M  V30 10 1 19 5
M  V30 11 1 19 6
M  V30 12 1 19 10
M  V30 13 1 20 4
M  V30 14 1 21 20
M  V30 15 1 22 8
M  V30 16 1 22 16
M  V30 17 1 23 9
M  V30 18 1 23 15
M  V30 19 1 23 18
M  V30 20 1 24 8
M  V30 21 1 24 11
M  V30 22 1 24 17
M  V30 23 1 25 8
M  V30 24 1 26 21
M  V30 25 1 27 2
M  V30 26 1 27 3
M  V30 27 1 27 14
M  V30 28 1 27 25
M  V30 29 2 28 25
M  V30 30 1 29 10
M  V30 31 1 29 26
M  V30 32 1 30 6
M  V30 33 1 31 10
M  V30 34 1 31 20
M  V30 35 1 32 1
M  V30 36 1 33 1
M  V30 37 1 34 4
M  V30 38 1 35 4
M  V30 39 1 36 5
M  V30 40 1 37 5
M  V30 41 1 6 38 CFG=1
M  V30 42 1 39 7
M  V30 43 1 8 40 CFG=1
M  V30 44 1 41 9
M  V30 45 1 42 9
M  V30 46 1 10 43 CFG=3
M  V30 47 1 44 11
M  V30 48 1 45 12
M  V30 49 1 46 12
M  V30 50 1 47 14
M  V30 51 1 48 14
M  V30 52 1 15 49 CFG=1
M  V30 53 1 50 16
M  V30 54 1 51 16
M  V30 55 1 52 18
M  V30 56 1 53 18
M  V30 57 1 20 54 CFG=3
M  V30 58 1 55 21
M  V30 59 1 56 21
M  V30 60 1 57 22
M  V30 61 1 58 22
M  V30 62 1 23 59 CFG=3
M  V30 63 1 24 60 CFG=1
M  V30 64 1 61 26
M  V30 65 1 62 26
M  V30 66 1 63 29
M  V30 67 1 64 29
M  V30 68 1 65 31
M  V30 69 1 66 31
M  V30 70 1 13 67 CFG=1
M  V30 71 1 19 68 CFG=1
M  V30 END BOND
M  V30 END CTAB
M  END
>  <i_epik_Tot_Q>  (1) 
1

>  <i_epik_Tot_abs_Q>  (1) 
3

>  <i_i_glide_confnum>  (1) 
40

>  <i_i_glide_lignum>  (1) 
105

>  <i_i_glide_posenum>  (1) 
96

>  <i_i_glide_rotatable_bonds>  (1) 
7

>  <i_lp_mmshare_version>  (1) 
72125

>  <i_m_source_file_index>  (1) 
40

>  <i_f3d_flags>  (1) 
0

>  <num_sample>  (1) 
50

>  <b_lp_Chiralities_Consistent>  (1) 
1

>  <r_epik_Charging_Adjusted_Penalty>  (1) 
0.43569023002306473

>  <r_epik_Ionization_Penalty>  (1) 
0.17475065349743213

>  <r_epik_Ionization_Penalty_Charging>  (1) 
0.17468327186895813

>  <r_epik_Ionization_Penalty_Neutral>  (1) 
6.7381628474014066e-05

>  <r_epik_State_Penalty>  (1) 
0.26100695815410663

>  <r_glide_ring_energy>  (1) 
1.2534239858202438

>  <r_i_docking_score>  (1) 
-4.9848192125834565

>  <r_i_glide_ecoul>  (1) 
-7.1119403769153386

>  <r_i_glide_eff_state_penalty>  (1) 
0.26100695815410663

>  <r_i_glide_einternal>  (1) 
8.4395594339322582

>  <r_i_glide_emodel>  (1) 
-36.406709586699428

>  <r_i_glide_emodel_strain>  (1) 
0.57170416617881159

>  <r_i_glide_energy>  (1) 
-32.099723362678318

>  <r_i_glide_erotb>  (1) 
0.49989103335302049

>  <r_i_glide_esite>  (1) 
-0.15348411953860444

>  <r_i_glide_evdw>  (1) 
-24.987782985762976

>  <r_i_glide_gscore>  (1) 
-5.2458261707375629

>  <r_i_glide_gscore_strain>  (1) 
0

>  <r_i_glide_hbond>  (1) 
-0.44870058918250111

>  <r_i_glide_ligand_efficiency>  (1) 
-0.16080061976075666

>  <r_i_glide_ligand_efficiency_ln>  (1) 
-1.1242294987998889

>  <r_i_glide_ligand_efficiency_sa>  (1) 
-0.50513595580898618

>  <r_i_glide_lipo>  (1) 
-1.2165894940512827

>  <r_i_glide_metal>  (1) 
-0

>  <r_i_glide_rewards>  (1) 
-1.6107627954927455

>  <r_lp_Energy>  (1) 
47.853707

>  <r_lp_tautomer_probability>  (1) 
0.99995000000000001

>  <s_epik_Chemistry_Notes>  (1) 
This compound contains an acetal/aminal-like group ( X-CH(R)-Y where X, Y are N, S, or O) that may be acid/base labile, releasing an aldehyde.

>  <s_epik_cmdline>  (1) 
J2VwaWtfcHl0aG9uJywgJy1waHQnLCAnMS4wJywgJy1waCcsICc3LjQnLCAnLXRuJywgJzgnLCAnLW1hJywgJzUwMCcsICctaW1hZScsICc8aW5maWxlLm1hZT4nLCAnLW9tYWUnLCAnPG91dGZpbGUubWFlPic=

>  <s_epik_input>  (1) 
RkMxKEYpW0NIMl1PW0NASF0oW09IXSlbQ0BIXShDMT1PKVtDSDJdW0NIMl1OKFtDSDJdMilbQ0gyXVtDSDJdW0NASF0oW0NAQEhdMjMpW0NIMl1bQ0BIXShbT0hdKU4oW0NIMl0zKVtDQEBIXTRbQ0gyXVtDSDJdW0NIMl1bQ0BASF0oW0NIMl00KVtDSDJdW09IXQ==

>  <s_glide_docking_method>  (1) 
confgen

>  <s_i_glide_gridfile>  (1) 
gpcr_drd2_6luq_protein_autoprepared_prepared

>  <s_lp_Force_Field>  (1) 
S-OPLS

>  <s_lp_Variant>  (1) 
DiffSBDD_39-1

>  <s_m_source_file>  (1) 
generated_generic_title2_ligand_DiffSBDD_2026-06-23_prepared.sdf

>  <GenAI_Model>  (1) 
DiffSBDD

>  <Protein>  (1) 
generic_title2

$$$$
DiffSBDD_16
     RDKit          3D

  0  0  0  0  0  0  0  0  0  0999 V3000
M  V30 BEGIN CTAB
M  V30 COUNTS 40 42 0 0 1
M  V30 BEGIN ATOM
M  V30 1 O 11.567871 9.288729 -9.185029 0 CHG=-1
M  V30 2 O 11.375368 7.538213 -6.877681 0
M  V30 3 C 6.446313 6.146346 -16.452725 0
M  V30 4 C 8.729536 6.144955 -11.060246 0 CFG=1
M  V30 5 C 7.460965 3.821272 -16.243380 0
M  V30 6 S 9.573977 6.210800 -8.398402 0
M  V30 7 F 6.175389 7.190133 -17.250269 0
M  V30 8 C 8.245475 3.989616 -14.939862 0
M  V30 9 C 9.745780 6.679031 -10.060175 0
M  V30 10 C 10.979838 7.327528 -8.025348 0
M  V30 11 C 7.090150 5.092673 -16.991575 0
M  V30 12 C 8.192124 7.245204 -11.985078 0
M  V30 13 C 8.036908 4.101807 -12.400721 0
M  V30 14 C 6.888207 6.839841 -12.689995 0
M  V30 15 C 10.732753 7.506586 -10.352214 0
M  V30 16 C 11.654844 7.990227 -9.273115 0 CFG=1
M  V30 17 C 7.146761 6.043545 -13.981814 0 CFG=2
M  V30 18 C 6.001880 6.227210 -15.001140 0
M  V30 19 C 7.430051 4.536209 -13.762643 0 CFG=1
M  V30 20 C 9.218229 4.917624 -11.844050 0
M  V30 21 H 7.895723 5.829483 -10.432172 0
M  V30 22 H 8.073211 3.231418 -16.925440 0
M  V30 23 H 6.575812 3.216317 -16.060282 0
M  V30 24 H 8.575224 2.987701 -14.672082 0
M  V30 25 H 9.153159 4.574827 -15.098628 0
M  V30 26 H 7.362780 5.123760 -18.036758 0
M  V30 27 H 8.001177 8.138192 -11.389555 0
M  V30 28 H 8.950759 7.550098 -12.705917 0
M  V30 29 H 8.347184 3.059345 -12.471590 0
M  V30 30 H 7.237746 4.077721 -11.658457 0
M  V30 31 H 6.214510 6.309812 -12.016941 0
M  V30 32 H 6.372344 7.764277 -12.927721 0
M  V30 33 H 10.896761 7.853368 -11.359128 0
M  V30 34 H 12.604899 7.485145 -9.434905 0
M  V30 35 H 8.029168 6.498984 -14.431891 0
M  V30 36 H 5.566683 7.220936 -14.890274 0
M  V30 37 H 5.181486 5.532871 -14.816800 0
M  V30 38 H 6.472564 4.014172 -13.785678 0
M  V30 39 H 9.774346 4.274657 -11.160452 0
M  V30 40 H 9.918962 5.196576 -12.631391 0
M  V30 END ATOM
M  V30 BEGIN BOND
M  V30 1 1 7 3
M  V30 2 1 8 5
M  V30 3 1 9 4
M  V30 4 1 9 6
M  V30 5 2 10 2
M  V30 6 1 10 6
M  V30 7 2 11 3
M  V30 8 1 11 5
M  V30 9 1 12 4
M  V30 10 1 14 12
M  V30 11 2 15 9
M  V30 12 1 16 1
M  V30 13 1 16 10
M  V30 14 1 16 15
M  V30 15 1 17 14
M  V30 16 1 18 3
M  V30 17 1 18 17
M  V30 18 1 19 8
M  V30 19 1 19 13
M  V30 20 1 19 17
M  V30 21 1 20 4
M  V30 22 1 20 13
M  V30 23 1 4 21 CFG=1
M  V30 24 1 22 5
M  V30 25 1 23 5
M  V30 26 1 24 8
M  V30 27 1 25 8
M  V30 28 1 26 11
M  V30 29 1 27 12
M  V30 30 1 28 12
M  V30 31 1 29 13
M  V30 32 1 30 13
M  V30 33 1 31 14
M  V30 34 1 32 14
M  V30 35 1 33 15
M  V30 36 1 16 34 CFG=3
M  V30 37 1 17 35 CFG=3
M  V30 38 1 36 18
M  V30 39 1 37 18
M  V30 40 1 19 38 CFG=3
M  V30 41 1 39 20
M  V30 42 1 40 20
M  V30 END BOND
M  V30 END CTAB
M  END
>  <i_epik_Tot_Q>  (1) 
-1

>  <i_epik_Tot_abs_Q>  (1) 
1

>  <i_i_glide_confnum>  (1) 
1

>  <i_i_glide_lignum>  (1) 
58

>  <i_i_glide_posenum>  (1) 
306

>  <i_i_glide_rotatable_bonds>  (1) 
1

>  <i_lp_mmshare_version>  (1) 
72125

>  <i_m_source_file_index>  (1) 
17

>  <i_f3d_flags>  (1) 
0

>  <num_sample>  (1) 
50

>  <b_lp_Chiralities_Consistent>  (1) 
1

>  <r_epik_Charging_Adjusted_Penalty>  (1) 
0.29503530446885118

>  <r_epik_Ionization_Penalty>  (1) 
0.14751765223442562

>  <r_epik_Ionization_Penalty_Charging>  (1) 
0.14751765223442562

>  <r_epik_Ionization_Penalty_Neutral>  (1) 
0

>  <r_epik_State_Penalty>  (1) 
0.14751765223442559

>  <r_glide_ring_energy>  (1) 
0

>  <r_i_docking_score>  (1) 
-4.9800446529544447

>  <r_i_glide_ecoul>  (1) 
-0.05157361346553091

>  <r_i_glide_eff_state_penalty>  (1) 
0.14751765223442559

>  <r_i_glide_einternal>  (1) 
0.016684686613142263

>  <r_i_glide_emodel>  (1) 
-38.360035676410774

>  <r_i_glide_emodel_strain>  (1) 
0.091940179641611053

>  <r_i_glide_energy>  (1) 
-30.308387755165633

>  <r_i_glide_erotb>  (1) 
0.20975943134131059

>  <r_i_glide_esite>  (1) 
0

>  <r_i_glide_evdw>  (1) 
-30.256814141700101

>  <r_i_glide_gscore>  (1) 
-5.1275623051888699

>  <r_i_glide_gscore_strain>  (1) 
0

>  <r_i_glide_hbond>  (1) 
0

>  <r_i_glide_ligand_efficiency>  (1) 
-0.24900223264772223

>  <r_i_glide_ligand_efficiency_ln>  (1) 
-1.2463409237688892

>  <r_i_glide_ligand_efficiency_sa>  (1) 
-0.67589604687044069

>  <r_i_glide_lipo>  (1) 
-1.4203035579376302

>  <r_i_glide_metal>  (1) 
-0

>  <r_i_glide_rewards>  (1) 
-2.396441429487715

>  <r_lp_Energy>  (1) 
23.813070999999997

>  <s_epik_cmdline>  (1) 
J2VwaWtfcHl0aG9uJywgJy1waHQnLCAnMS4wJywgJy1waCcsICc3LjQnLCAnLXRuJywgJzgnLCAnLW1hJywgJzUwMCcsICctaW1hZScsICc8aW5maWxlLm1hZT4nLCAnLW9tYWUnLCAnPG91dGZpbGUubWFlPic=

>  <s_epik_input>  (1) 
Tz1DKFMxKVtDQEhdKFtPSF0pW0NIXT1DMVtDQEBIXShbQ0gyXVtDSDJdMilbQ0gyXVtDSDJdW0NAQEhdKFtDQEhdMjMpW0NIMl1bQ0gyXVtDSF09QyhGKVtDSDJdMw==

>  <s_glide_docking_method>  (1) 
confgen

>  <s_i_glide_gridfile>  (1) 
gpcr_drd2_6luq_protein_autoprepared_prepared

>  <s_lp_Force_Field>  (1) 
S-OPLS

>  <s_lp_Variant>  (1) 
DiffSBDD_16-1

>  <s_m_source_file>  (1) 
generated_generic_title2_ligand_DiffSBDD_2026-06-23_prepared.sdf

>  <GenAI_Model>  (1) 
DiffSBDD

>  <Protein>  (1) 
generic_title2

$$$$
DiffSBDD_23
     RDKit          3D

  0  0  0  0  0  0  0  0  0  0999 V3000
M  V30 BEGIN CTAB
M  V30 COUNTS 57 60 0 0 1
M  V30 BEGIN ATOM
M  V30 1 C 11.379758 9.620223 -3.947974 0
M  V30 2 C 12.570915 5.934668 -2.072619 0
M  V30 3 F 10.143572 5.798377 -13.333725 0
M  V30 4 S 8.974987 4.816420 -10.762971 0 CHG=1
M  V30 5 C 9.157438 4.914647 -13.471430 0 CFG=1
M  V30 6 C 9.599957 6.496511 -10.520027 0
M  V30 7 C 5.711005 5.808004 -14.077740 0
M  V30 8 C 6.890406 4.235711 -12.527562 0
M  V30 9 C 8.392230 5.095452 -8.063559 0
M  V30 10 O 10.091142 6.345639 -6.833867 0
M  V30 11 O 11.775406 9.565907 -6.784980 0
M  V30 12 C 11.775765 9.591591 -2.600989 0
M  V30 13 C 10.069007 6.683964 -9.112746 0
M  V30 14 C 7.723869 4.894780 -9.451758 0
M  V30 15 C 11.397848 8.445040 -4.715621 0
M  V30 16 C 7.298157 4.145280 -15.040530 0 CFG=2
M  V30 17 C 8.133764 5.121768 -12.336584 0 CFG=1
M  V30 18 F 10.975219 10.784563 -4.506454 0
M  V30 19 C 12.174903 8.397627 -2.004446 0
M  V30 20 C 9.548578 6.087969 -8.059464 0
M  V30 21 S 11.376728 7.717193 -8.842624 0
M  V30 22 C 12.169161 7.211456 -2.741957 0
M  V30 23 C 11.211251 7.252871 -7.055703 0 CFG=1
M  V30 24 C 7.648541 2.642901 -15.112669 0
M  V30 25 C 8.541984 5.062126 -14.874169 0 CFG=2
M  V30 26 C 11.025956 8.518145 -6.191086 0 CFG=2
M  V30 27 O 9.513963 4.789645 -15.862434 0
M  V30 28 C 6.261374 4.445194 -13.921386 0 CFG=2
M  V30 29 C 5.375496 6.972575 -14.222956 0
M  V30 30 C 11.775423 7.221855 -4.104993 0
M  V30 31 H 13.374142 6.071438 -1.349730 0
M  V30 32 H 11.695010 5.590230 -1.527238 0
M  V30 33 H 12.894060 5.190435 -2.784997 0
M  V30 34 H 9.623009 3.940945 -13.355546 0
M  V30 35 H 10.426296 6.702119 -11.197639 0
M  V30 36 H 8.823958 7.236180 -10.716266 0
M  V30 37 H 6.146463 4.455975 -11.761462 0
M  V30 38 H 7.151242 3.187429 -12.388951 0
M  V30 39 H 8.808817 4.142726 -7.744132 0
M  V30 40 H 7.660451 5.388154 -7.312838 0
M  V30 41 H 11.560484 9.594281 -7.705526 0
M  V30 42 H 11.775219 10.497138 -2.021983 0
M  V30 43 H 7.024951 5.687258 -9.680902 0
M  V30 44 H 7.120547 3.990161 -9.455506 0
M  V30 45 H 6.843871 4.389325 -16.003537 0
M  V30 46 H 7.801126 6.159539 -12.343602 0
M  V30 47 H 12.476776 8.390271 -0.968311 0
M  V30 48 H 12.140783 6.740022 -6.809060 0
M  V30 49 H 8.173617 2.290258 -14.224879 0
M  V30 50 H 6.749386 2.036243 -15.224007 0
M  V30 51 H 8.287506 2.430279 -15.969698 0
M  V30 52 H 8.247799 6.101972 -15.021346 0
M  V30 53 H 9.978206 8.814933 -6.250541 0
M  V30 54 H 10.311818 5.244505 -15.632659 0
M  V30 55 H 5.410332 3.769431 -13.985337 0
M  V30 56 H 5.075389 7.990019 -14.352003 0
M  V30 57 H 11.778463 6.305143 -4.673006 0
M  V30 END ATOM
M  V30 BEGIN BOND
M  V30 1 1 5 3
M  V30 2 1 4 6 CFG=1
M  V30 3 1 12 1
M  V30 4 1 13 6
M  V30 5 1 14 4
M  V30 6 1 14 9
M  V30 7 2 15 1
M  V30 8 1 17 4
M  V30 9 1 17 5
M  V30 10 1 17 8
M  V30 11 1 18 1
M  V30 12 2 19 12
M  V30 13 1 20 9
M  V30 14 1 20 10
M  V30 15 2 20 13
M  V30 16 1 21 13
M  V30 17 1 22 2
M  V30 18 1 22 19
M  V30 19 1 23 10
M  V30 20 1 23 21
M  V30 21 1 24 16
M  V30 22 1 25 5
M  V30 23 1 25 16
M  V30 24 1 26 11
M  V30 25 1 26 15
M  V30 26 1 26 23
M  V30 27 1 27 25
M  V30 28 1 28 7
M  V30 29 1 28 8
M  V30 30 1 28 16
M  V30 31 3 29 7
M  V30 32 1 30 15
M  V30 33 2 30 22
M  V30 34 1 31 2
M  V30 35 1 32 2
M  V30 36 1 33 2
M  V30 37 1 5 34 CFG=3
M  V30 38 1 35 6
M  V30 39 1 36 6
M  V30 40 1 37 8
M  V30 41 1 38 8
M  V30 42 1 39 9
M  V30 43 1 40 9
M  V30 44 1 41 11
M  V30 45 1 42 12
M  V30 46 1 43 14
M  V30 47 1 44 14
M  V30 48 1 16 45 CFG=3
M  V30 49 1 17 46 CFG=1
M  V30 50 1 47 19
M  V30 51 1 23 48 CFG=1
M  V30 52 1 49 24
M  V30 53 1 50 24
M  V30 54 1 51 24
M  V30 55 1 25 52 CFG=3
M  V30 56 1 26 53 CFG=1
M  V30 57 1 54 27
M  V30 58 1 28 55 CFG=3
M  V30 59 1 56 29
M  V30 60 1 57 30
M  V30 END BOND
M  V30 END CTAB
M  END
>  <i_epik_Tot_Q>  (1) 
1

>  <i_epik_Tot_abs_Q>  (1) 
1

>  <i_i_glide_confnum>  (1) 
21

>  <i_i_glide_lignum>  (1) 
70

>  <i_i_glide_posenum>  (1) 
140

>  <i_i_glide_rotatable_bonds>  (1) 
6

>  <i_lp_mmshare_version>  (1) 
72125

>  <i_m_source_file_index>  (1) 
24

>  <i_f3d_flags>  (1) 
0

>  <num_sample>  (1) 
50

>  <b_lp_Chiralities_Consistent>  (1) 
1

>  <r_epik_Charging_Adjusted_Penalty>  (1) 
0

>  <r_epik_Ionization_Penalty>  (1) 
0.0001931723336569867

>  <r_epik_Ionization_Penalty_Charging>  (1) 
0

>  <r_epik_Ionization_Penalty_Neutral>  (1) 
0.0001931723336569867

>  <r_epik_State_Penalty>  (1) 
-0

>  <r_glide_ring_energy>  (1) 
1.5751490715595688

>  <r_i_docking_score>  (1) 
-4.9749810157793997

>  <r_i_glide_ecoul>  (1) 
-4.073810669976484

>  <r_i_glide_eff_state_penalty>  (1) 
-0

>  <r_i_glide_einternal>  (1) 
19.408645181609867

>  <r_i_glide_emodel>  (1) 
-32.286287573725289

>  <r_i_glide_emodel_strain>  (1) 
1.8573179150262149

>  <r_i_glide_energy>  (1) 
-37.589073217941454

>  <r_i_glide_erotb>  (1) 
0.39027100354639338

>  <r_i_glide_esite>  (1) 
-0.031231189992732684

>  <r_i_glide_evdw>  (1) 
-33.515262547964973

>  <r_i_glide_gscore>  (1) 
-4.9749810157793997

>  <r_i_glide_gscore_strain>  (1) 
0

>  <r_i_glide_hbond>  (1) 
0

>  <r_i_glide_ligand_efficiency>  (1) 
-0.16583270052597998

>  <r_i_glide_ligand_efficiency_ln>  (1) 
-1.1303698935448672

>  <r_i_glide_ligand_efficiency_sa>  (1) 
-0.5152807576244367

>  <r_i_glide_lipo>  (1) 
-3.0607375904170633

>  <r_i_glide_metal>  (1) 
-0

>  <r_i_glide_rewards>  (1) 
0.013551488978724491

>  <r_lp_Energy>  (1) 
9.4869079999999997

>  <r_lp_tautomer_probability>  (1) 
1

>  <s_epik_Chemistry_Notes>  (1) 
This compound contains an acetal/aminal-like group ( X-CH(R)-Y where X, Y are N, S, or O) that may be acid/base labile, releasing an aldehyde.

>  <s_epik_cmdline>  (1) 
J2VwaWtfcHl0aG9uJywgJy1waHQnLCAnMS4wJywgJy1waCcsICc3LjQnLCAnLXRuJywgJzgnLCAnLW1hJywgJzUwMCcsICctaW1hZScsICc8aW5maWxlLm1hZT4nLCAnLW9tYWUnLCAnPG91dGZpbGUubWFlPic=

>  <s_epik_input>  (1) 
RmMxW2NIXVtjSF1jKFtDSDNdKVtjSF1jMVtDQEBIXShbT0hdKVtDQEhdKFMyKU9DKD1DMjMpW0NIMl1bQ0gyXVtTK10oW0NIMl0zKVtDQEBIXShbQ0BASF00RilbQ0gyXVtDQEBIXShDI1tDSF0pW0NASF0oW0NIM10pW0NAQEhdNFtPSF0=

>  <s_glide_docking_method>  (1) 
confgen

>  <s_i_glide_gridfile>  (1) 
gpcr_drd2_6luq_protein_autoprepared_prepared

>  <s_lp_Force_Field>  (1) 
S-OPLS

>  <s_lp_Variant>  (1) 
DiffSBDD_23-1

>  <s_m_source_file>  (1) 
generated_generic_title2_ligand_DiffSBDD_2026-06-23_prepared.sdf

>  <GenAI_Model>  (1) 
DiffSBDD

>  <Protein>  (1) 
generic_title2

$$$$
DiffSBDD_25
     RDKit          3D

  0  0  0  0  0  0  0  0  0  0999 V3000
M  V30 BEGIN CTAB
M  V30 COUNTS 44 46 0 0 1
M  V30 BEGIN ATOM
M  V30 1 C 9.776110 5.294949 -8.356476 0 CFG=1
M  V30 2 C 11.539774 8.673102 -8.484458 0
M  V30 3 C 11.376954 9.115980 -7.159514 0
M  V30 4 C 10.295891 6.635155 -7.961905 0
M  V30 5 N 5.716281 7.190371 -13.383922 0 CHG=1
M  V30 6 N 8.607092 5.890109 -10.544243 0 CHG=1
M  V30 7 C 10.126069 7.094183 -6.637768 0
M  V30 8 C 8.334361 4.895679 -8.379961 0
M  V30 9 C 7.393881 8.391426 -11.985165 0
M  V30 10 C 6.747905 7.049043 -12.355351 0 CFG=2
M  V30 11 C 9.010105 5.868520 -11.978058 0 CFG=1
M  V30 12 C 9.153785 4.873299 -9.654381 0 CFG=2
M  V30 13 C 10.665824 8.330187 -6.239089 0
M  V30 14 C 8.329905 3.668045 -12.845355 0
M  V30 15 C 7.191116 4.649093 -13.099454 0
M  V30 16 C 9.540012 4.548313 -12.549781 0
M  V30 17 C 11.000810 7.437599 -8.885463 0
M  V30 18 C 7.780970 6.055868 -12.871672 0 CFG=1
M  V30 19 H 10.504547 4.591583 -7.985025 0
M  V30 20 H 12.086122 9.277627 -9.192893 0
M  V30 21 H 11.797183 10.060682 -6.850270 0
M  V30 22 H 6.117607 7.592413 -14.218325 0
M  V30 23 H 5.338269 6.279105 -13.600898 0
M  V30 24 H 7.606194 5.765995 -10.503694 0
M  V30 25 H 9.590820 6.485741 -5.921491 0
M  V30 26 H 8.060819 3.946206 -7.941613 0
M  V30 27 H 7.589073 5.671657 -8.265119 0
M  V30 28 H 8.174004 8.326302 -11.227338 0
M  V30 29 H 7.844485 8.855948 -12.859124 0
M  V30 30 H 6.648036 9.077053 -11.582385 0
M  V30 31 H 6.247416 6.653240 -11.470490 0
M  V30 32 H 9.745989 6.658807 -12.131254 0
M  V30 33 H 9.375534 3.903921 -10.077851 0
M  V30 34 H 10.540799 8.670745 -5.222355 0
M  V30 35 H 8.497862 2.993189 -13.686272 0
M  V30 36 H 8.092948 3.050094 -11.986429 0
M  V30 37 H 6.795439 4.544340 -14.111821 0
M  V30 38 H 6.374278 4.438803 -12.404962 0
M  V30 39 H 10.009982 4.785189 -13.505685 0
M  V30 40 H 10.316745 4.051852 -11.980437 0
M  V30 41 H 11.144090 7.096105 -9.898103 0
M  V30 42 H 8.152872 6.412915 -13.835221 0
M  V30 43 H 4.970869 7.782445 -13.041849 0
M  V30 44 H 8.760058 6.804113 -10.134316 0
M  V30 END ATOM
M  V30 BEGIN BOND
M  V30 1 2 3 2
M  V30 2 1 4 1
M  V30 3 1 7 4
M  V30 4 1 8 1
M  V30 5 1 10 5
M  V30 6 1 10 9
M  V30 7 1 11 6
M  V30 8 1 12 1
M  V30 9 1 12 6
M  V30 10 1 12 8
M  V30 11 1 13 3
M  V30 12 2 13 7
M  V30 13 1 15 14
M  V30 14 1 16 11
M  V30 15 1 16 14
M  V30 16 1 17 2
M  V30 17 2 17 4
M  V30 18 1 18 10
M  V30 19 1 18 11
M  V30 20 1 18 15
M  V30 21 1 1 19 CFG=1
M  V30 22 1 20 2
M  V30 23 1 21 3
M  V30 24 1 22 5
M  V30 25 1 23 5
M  V30 26 1 24 6
M  V30 27 1 25 7
M  V30 28 1 26 8
M  V30 29 1 27 8
M  V30 30 1 28 9
M  V30 31 1 29 9
M  V30 32 1 30 9
M  V30 33 1 10 31 CFG=1
M  V30 34 1 11 32 CFG=1
M  V30 35 1 12 33 CFG=3
M  V30 36 1 34 13
M  V30 37 1 35 14
M  V30 38 1 36 14
M  V30 39 1 37 15
M  V30 40 1 38 15
M  V30 41 1 39 16
M  V30 42 1 40 16
M  V30 43 1 41 17
M  V30 44 1 18 42 CFG=3
M  V30 45 1 43 5
M  V30 46 1 44 6
M  V30 END BOND
M  V30 END CTAB
M  END
>  <i_epik_Tot_Q>  (1) 
2

>  <i_epik_Tot_abs_Q>  (1) 
2

>  <i_i_glide_confnum>  (1) 
26

>  <i_i_glide_lignum>  (1) 
72

>  <i_i_glide_posenum>  (1) 
273

>  <i_i_glide_rotatable_bonds>  (1) 
4

>  <i_lp_mmshare_version>  (1) 
72125

>  <i_m_source_file_index>  (1) 
26

>  <i_f3d_flags>  (1) 
0

>  <num_sample>  (1) 
50

>  <b_lp_Chiralities_Consistent>  (1) 
1

>  <r_epik_Charging_Adjusted_Penalty>  (1) 
0.43880639721899328

>  <r_epik_Ionization_Penalty>  (1) 
0.22252539232578136

>  <r_epik_Ionization_Penalty_Charging>  (1) 
0.22252539232578136

>  <r_epik_Ionization_Penalty_Neutral>  (1) 
0

>  <r_epik_State_Penalty>  (1) 
0.21628100489321189

>  <r_glide_ring_energy>  (1) 
0.2379056209447041

>  <r_i_docking_score>  (1) 
-4.9664817441727767

>  <r_i_glide_ecoul>  (1) 
-6.8799608464263944

>  <r_i_glide_eff_state_penalty>  (1) 
0.21628100489321189

>  <r_i_glide_einternal>  (1) 
4.4189840875729995

>  <r_i_glide_emodel>  (1) 
-38.158195004172619

>  <r_i_glide_emodel_strain>  (1) 
2.9391280620995985

>  <r_i_glide_energy>  (1) 
-24.476174255807031

>  <r_i_glide_erotb>  (1) 
0.86113592628682767

>  <r_i_glide_esite>  (1) 
-0.082294318360997321

>  <r_i_glide_evdw>  (1) 
-17.596213409380638

>  <r_i_glide_gscore>  (1) 
-5.1827627490659882

>  <r_i_glide_gscore_strain>  (1) 
0

>  <r_i_glide_hbond>  (1) 
-0.032102523167889002

>  <r_i_glide_ligand_efficiency>  (1) 
-0.27591565245404315

>  <r_i_glide_ligand_efficiency_ln>  (1) 
-1.2766085231038564

>  <r_i_glide_ligand_efficiency_sa>  (1) 
-0.72310357169646644

>  <r_i_glide_lipo>  (1) 
-1.388599445481846

>  <r_i_glide_metal>  (1) 
-0

>  <r_i_glide_rewards>  (1) 
-2.6290975909090912

>  <r_lp_Energy>  (1) 
41.001804999999997

>  <s_epik_cmdline>  (1) 
J2VwaWtfcHl0aG9uJywgJy1waHQnLCAnMS4wJywgJy1waCcsICc3LjQnLCAnLXRuJywgJzgnLCAnLW1hJywgJzUwMCcsICctaW1hZScsICc8aW5maWxlLm1hZT4nLCAnLW9tYWUnLCAnPG91dGZpbGUubWFlPic=

>  <s_epik_input>  (1) 
W2NIXTFbY0hdW2NIXVtjSF1bY0hdYzFbQ0BIXTJbQ0gyXVtDQEhdMltOSF1bQ0BIXTNbQ0gyXVtDSDJdW0NIMl1bQ0BIXTNbQ0BIXShbTkgyXSlbQ0gzXQ==

>  <s_glide_docking_method>  (1) 
confgen

>  <s_i_glide_gridfile>  (1) 
gpcr_drd2_6luq_protein_autoprepared_prepared

>  <s_lp_Force_Field>  (1) 
S-OPLS

>  <s_lp_Variant>  (1) 
DiffSBDD_25-1

>  <s_m_source_file>  (1) 
generated_generic_title2_ligand_DiffSBDD_2026-06-23_prepared.sdf

>  <GenAI_Model>  (1) 
DiffSBDD

>  <Protein>  (1) 
generic_title2

$$$$
DiffSBDD_0
     RDKit          3D

  0  0  0  0  0  0  0  0  0  0999 V3000
M  V30 BEGIN CTAB
M  V30 COUNTS 70 74 0 0 1
M  V30 BEGIN ATOM
M  V30 1 C 11.579491 9.481765 -6.982278 0
M  V30 2 N 7.708498 4.052298 -13.037253 0
M  V30 3 C 7.336637 5.422901 -17.026380 0 CFG=1
M  V30 4 C 9.038308 4.487738 -11.007374 0
M  V30 5 F 9.896700 6.390226 -5.916534 0
M  V30 6 C 7.155977 5.406295 -13.178214 0
M  V30 7 C 11.543636 9.152141 -8.489175 0
M  V30 8 C 9.595179 6.637869 -10.260951 0
M  V30 9 C 10.961844 6.742865 -8.005048 0 CFG=1
M  V30 10 C 9.823748 4.773618 -17.708450 0
M  V30 11 C 7.345760 3.118818 -14.111377 0 CFG=1
M  V30 12 C 5.981082 0.772721 -12.814715 0
M  V30 13 C 8.390279 5.051454 -18.066979 0 CFG=1
M  V30 14 O 8.616419 5.778113 -10.837272 0
M  V30 15 C 10.845792 7.107360 -6.504484 0 CFG=1
M  V30 16 C 7.268668 4.086745 -17.702556 0 CFG=1
M  V30 17 N 7.684344 5.158043 -15.606788 0 CFG=2 CHG=1
M  V30 18 C 9.580875 6.661865 -8.713309 0
M  V30 19 C 6.946564 0.763062 -14.011192 0
M  V30 20 C 7.908197 3.698091 -15.424456 0 CFG=2
M  V30 21 O 6.095571 -0.409776 -12.058776 0
M  V30 22 C 11.974380 7.702308 -8.679414 0
M  V30 23 N 10.502138 3.684217 -18.169526 0
M  V30 24 C 6.732677 5.736973 -14.627110 0
M  V30 25 N 10.507414 5.590240 -16.904820 0
M  V30 26 O 11.773336 4.989254 -16.808897 0
M  V30 27 C 11.667603 3.890282 -17.581451 0
M  V30 28 O 7.876885 1.836967 -13.953295 0
M  V30 29 N 12.811986 3.113143 -17.649179 0
M  V30 30 C 8.612922 3.698411 -12.019724 0
M  V30 31 C 10.565846 8.597602 -6.245700 0
M  V30 32 C 14.117479 3.273263 -17.037693 0
M  V30 33 C 7.442863 2.977658 -16.693978 0
M  V30 34 H 12.579337 9.299829 -6.585878 0
M  V30 35 H 11.375591 10.532857 -6.784973 0
M  V30 36 H 6.587726 6.186729 -17.228359 0
M  V30 37 H 9.739606 4.175751 -10.244858 0
M  V30 38 H 6.335538 5.561661 -12.476926 0
M  V30 39 H 7.931516 6.130313 -12.937877 0
M  V30 40 H 12.175414 9.809217 -9.081162 0
M  V30 41 H 10.539017 9.263387 -8.895583 0
M  V30 42 H 10.571588 6.390244 -10.669599 0
M  V30 43 H 9.393036 7.646340 -10.623028 0
M  V30 44 H 11.375402 5.739178 -8.029266 0
M  V30 45 H 6.254993 3.078593 -14.137176 0
M  V30 46 H 4.957572 0.869956 -13.176359 0
M  V30 47 H 6.175437 1.617507 -12.153976 0
M  V30 48 H 8.333649 5.542770 -19.036220 0
M  V30 49 H 11.773361 6.827828 -6.004050 0
M  V30 50 H 6.509394 3.925207 -18.465532 0
M  V30 51 H 8.975347 7.508139 -8.398048 0
M  V30 52 H 9.054243 5.781402 -8.344145 0
M  V30 53 H 7.520463 -0.164163 -14.032374 0
M  V30 54 H 6.390610 0.790730 -14.948647 0
M  V30 55 H 8.975465 3.590291 -15.363579 0
M  V30 56 H 5.760436 -1.136934 -12.578689 0
M  V30 57 H 12.960073 7.590209 -8.226849 0
M  V30 58 H 12.122737 7.486582 -9.735101 0
M  V30 59 H 5.736990 5.335969 -14.822670 0
M  V30 60 H 6.666929 6.817059 -14.759790 0
M  V30 61 H 12.728360 2.291245 -18.228258 0
M  V30 62 H 8.973892 2.684582 -12.105431 0
M  V30 63 H 10.601089 8.800740 -5.175914 0
M  V30 64 H 9.554318 8.843317 -6.570894 0
M  V30 65 H 14.735654 2.393845 -17.221602 0
M  V30 66 H 14.623276 4.145817 -17.452066 0
M  V30 67 H 14.022111 3.409145 -15.960623 0
M  V30 68 H 6.513446 2.433795 -16.551768 0
M  V30 69 H 8.182891 2.255904 -17.042579 0
M  V30 70 H 8.574544 5.605020 -15.424306 0
M  V30 END ATOM
M  V30 BEGIN BOND
M  V30 1 1 6 2
M  V30 2 1 7 1
M  V30 3 1 11 2
M  V30 4 1 13 3
M  V30 5 1 13 10
M  V30 6 1 14 4
M  V30 7 1 14 8
M  V30 8 1 15 5
M  V30 9 1 15 9
M  V30 10 1 16 3
M  V30 11 1 16 13
M  V30 12 1 17 3
M  V30 13 1 18 8
M  V30 14 1 18 9
M  V30 15 1 19 12
M  V30 16 1 20 11
M  V30 17 1 20 17
M  V30 18 1 21 12
M  V30 19 1 22 7
M  V30 20 1 22 9
M  V30 21 1 23 10
M  V30 22 1 24 6
M  V30 23 1 24 17
M  V30 24 2 25 10
M  V30 25 1 26 25
M  V30 26 2 27 23
M  V30 27 1 27 26
M  V30 28 1 28 11
M  V30 29 1 28 19
M  V30 30 1 29 27
M  V30 31 1 30 2
M  V30 32 2 30 4
M  V30 33 1 31 1
M  V30 34 1 31 15
M  V30 35 1 32 29
M  V30 36 1 33 16
M  V30 37 1 33 20
M  V30 38 1 34 1
M  V30 39 1 35 1
M  V30 40 1 3 36 CFG=1
M  V30 41 1 37 4
M  V30 42 1 38 6
M  V30 43 1 39 6
M  V30 44 1 40 7
M  V30 45 1 41 7
M  V30 46 1 42 8
M  V30 47 1 43 8
M  V30 48 1 9 44 CFG=1
M  V30 49 1 11 45 CFG=3
M  V30 50 1 46 12
M  V30 51 1 47 12
M  V30 52 1 13 48 CFG=3
M  V30 53 1 15 49 CFG=1
M  V30 54 1 16 50 CFG=3
M  V30 55 1 51 18
M  V30 56 1 52 18
M  V30 57 1 53 19
M  V30 58 1 54 19
M  V30 59 1 20 55 CFG=1
M  V30 60 1 56 21
M  V30 61 1 57 22
M  V30 62 1 58 22
M  V30 63 1 59 24
M  V30 64 1 60 24
M  V30 65 1 61 29
M  V30 66 1 62 30
M  V30 67 1 63 31
M  V30 68 1 64 31
M  V30 69 1 65 32
M  V30 70 1 66 32
M  V30 71 1 67 32
M  V30 72 1 68 33
M  V30 73 1 69 33
M  V30 74 1 17 70 CFG=1
M  V30 END BOND
M  V30 END CTAB
M  END
>  <i_epik_Tot_Q>  (1) 
1

>  <i_epik_Tot_abs_Q>  (1) 
1

>  <i_i_glide_confnum>  (1) 
327

>  <i_i_glide_lignum>  (1) 
15

>  <i_i_glide_posenum>  (1) 
56

>  <i_i_glide_rotatable_bonds>  (1) 
11

>  <i_lp_mmshare_version>  (1) 
72125

>  <i_m_source_file_index>  (1) 
1

>  <i_f3d_flags>  (1) 
0

>  <num_sample>  (1) 
50

>  <b_lp_Chiralities_Consistent>  (1) 
1

>  <r_epik_Charging_Adjusted_Penalty>  (1) 
0.41344222577729461

>  <r_epik_Ionization_Penalty>  (1) 
0.0027644559619576371

>  <r_epik_Ionization_Penalty_Charging>  (1) 
0.0027623868246906495

>  <r_epik_Ionization_Penalty_Neutral>  (1) 
2.0691372669875143e-06

>  <r_epik_State_Penalty>  (1) 
0.41067983895260396

>  <r_glide_ring_energy>  (1) 
1.678368750750399

>  <r_i_docking_score>  (1) 
-4.959838864713122

>  <r_i_glide_ecoul>  (1) 
-0.71572026027787672

>  <r_i_glide_eff_state_penalty>  (1) 
0.41067983895260396

>  <r_i_glide_einternal>  (1) 
14.105414794513244

>  <r_i_glide_emodel>  (1) 
-35.057637237702096

>  <r_i_glide_emodel_strain>  (1) 
3.3785409228687939

>  <r_i_glide_energy>  (1) 
-35.343486087756304

>  <r_i_glide_erotb>  (1) 
0.74142510397790429

>  <r_i_glide_esite>  (1) 
0

>  <r_i_glide_evdw>  (1) 
-34.627765827478427

>  <r_i_glide_gscore>  (1) 
-5.3705187036657263

>  <r_i_glide_gscore_strain>  (1) 
0

>  <r_i_glide_hbond>  (1) 
-0.16

>  <r_i_glide_ligand_efficiency>  (1) 
-0.15029814741554914

>  <r_i_glide_ligand_efficiency_ln>  (1) 
-1.1030424828409569

>  <r_i_glide_ligand_efficiency_sa>  (1) 
-0.48208646757014745

>  <r_i_glide_lipo>  (1) 
-2.5814273865362405

>  <r_i_glide_metal>  (1) 
-0

>  <r_i_glide_rewards>  (1) 
-1.5317700906917864

>  <r_lp_Energy>  (1) 
42.741957999999997

>  <r_lp_tautomer_probability>  (1) 
0.5

>  <s_epik_Chemistry_Notes>  (1) 
This compound has an imine and may undergo hydrolysis. This compound contains an acetal/aminal-like group ( X-CH(R)-Y where X, Y are N, S, or O) that may be acid/base labile, releasing an aldehyde.

>  <s_epik_cmdline>  (1) 
J2VwaWtfcHl0aG9uJywgJy1waHQnLCAnMS4wJywgJy1waCcsICc3LjQnLCAnLXRuJywgJzgnLCAnLW1hJywgJzUwMCcsICctaW1hZScsICc8aW5maWxlLm1hZT4nLCAnLW9tYWUnLCAnPG91dGZpbGUubWFlPic=

>  <s_epik_input>  (1) 
W0NIMl0xW0NIMl1bQ0gyXVtDSDJdW0NASF0oRilbQ0BIXTFbQ0gyXVtDSDJdTy9bQ0hdPVtDSF1cTihbQ0BIXTJPW0NIMl1bQ0gyXVtPSF0pW0NIMl1bQ0gyXU4zW0NAQEhdMltDSDJdW0NAQEhdKFtDQEBIXTM0KVtDQEBIXTRjNW5jKG9uNSlbTkhdW0NIM10=

>  <s_glide_docking_method>  (1) 
confgen

>  <s_i_glide_gridfile>  (1) 
gpcr_drd2_6luq_protein_autoprepared_prepared

>  <s_lp_Force_Field>  (1) 
S-OPLS

>  <s_lp_Variant>  (1) 
DiffSBDD_0-15

>  <s_m_source_file>  (1) 
generated_generic_title2_ligand_DiffSBDD_2026-06-23_prepared.sdf

>  <GenAI_Model>  (1) 
DiffSBDD

>  <Protein>  (1) 
generic_title2

$$$$
DiffSBDD_45
     RDKit          3D

  0  0  0  0  0  0  0  0  0  0999 V3000
M  V30 BEGIN CTAB
M  V30 COUNTS 54 58 0 0 1
M  V30 BEGIN ATOM
M  V30 1 C 9.229901 6.019321 -7.669719 0
M  V30 2 C 7.364068 4.199142 -18.136644 0 CFG=1
M  V30 3 C 8.581572 3.479261 -12.510785 0
M  V30 4 C 8.881291 4.676079 -11.816907 0
M  V30 5 C 8.429391 3.937588 -17.081155 0
M  V30 6 C 8.861085 5.180580 -16.278702 0
M  V30 7 C 9.536529 6.389283 -10.168660 0
M  V30 8 C 10.030927 6.748110 -8.761271 0 CFG=1
M  V30 9 C 6.220489 5.190160 -18.043431 0 CFG=1
M  V30 10 C 8.817513 7.070691 -12.388387 0
M  V30 11 N 8.226133 5.075065 -13.889044 0
M  V30 12 C 6.395920 5.454810 -15.496884 0
M  V30 13 O 11.926510 9.190238 -4.385041 0
M  V30 14 C 9.273400 7.407670 -11.115493 0
M  V30 15 O 9.681152 7.809456 -6.068979 0
M  V30 16 C 9.988313 8.257007 -8.443408 0
M  V30 17 C 5.941357 6.064931 -16.833433 0
M  V30 18 F 12.604290 8.790226 -7.860021 0
M  V30 19 C 9.707277 6.405123 -6.266906 0
M  V30 20 C 7.881509 5.658738 -15.178571 0 CFG=2
M  V30 21 C 8.635115 5.724933 -12.724084 0
M  V30 22 O 7.430603 5.479610 -18.765799 0
M  V30 23 C 11.919351 8.533126 -6.746693 0 CFG=1
M  V30 24 C 12.392190 9.539398 -5.673787 0
M  V30 25 C 10.408167 8.587764 -7.004083 0 CFG=2
M  V30 26 C 9.340115 5.027936 -10.523712 0
M  V30 27 N 8.175410 3.709216 -13.735089 0
M  V30 28 H 9.301846 4.938320 -7.771720 0
M  V30 29 H 8.175410 6.266410 -7.772990 0
M  V30 30 H 7.213219 3.373047 -18.829152 0
M  V30 31 H 8.650582 2.461159 -12.157489 0
M  V30 32 H 9.304317 3.541726 -17.597230 0
M  V30 33 H 8.087721 3.142254 -16.418739 0
M  V30 34 H 9.059190 5.990205 -16.977591 0
M  V30 35 H 9.831945 4.981633 -15.821749 0
M  V30 36 H 11.067439 6.416332 -8.703493 0
M  V30 37 H 5.366655 5.025489 -18.696958 0
M  V30 38 H 8.608059 7.843966 -13.110530 0
M  V30 39 H 6.175409 4.390320 -15.467634 0
M  V30 40 H 5.808910 5.902476 -14.693159 0
M  V30 41 H 12.199554 8.307685 -4.185524 0
M  V30 42 H 9.412237 8.443418 -10.860888 0
M  V30 43 H 8.975408 8.626115 -8.580120 0
M  V30 44 H 10.607445 8.822160 -9.139121 0
M  V30 45 H 6.377089 7.052969 -16.985596 0
M  V30 46 H 4.862197 6.216917 -16.790023 0
M  V30 47 H 10.692092 5.990326 -6.056320 0
M  V30 48 H 9.025955 5.990226 -5.532795 0
M  V30 49 H 8.028625 6.732266 -15.073381 0
M  V30 50 H 12.175410 7.507198 -6.508176 0
M  V30 51 H 12.048882 10.545616 -5.916365 0
M  V30 52 H 13.481702 9.590120 -5.645417 0
M  V30 53 H 10.080065 9.590240 -6.785060 0
M  V30 54 H 9.544739 4.250398 -9.805665 0
M  V30 END ATOM
M  V30 BEGIN BOND
M  V30 1 1 4 3
M  V30 2 1 5 2
M  V30 3 1 6 5
M  V30 4 1 8 1
M  V30 5 1 8 7
M  V30 6 1 9 2
M  V30 7 1 14 7
M  V30 8 2 14 10
M  V30 9 1 16 8
M  V30 10 1 17 9
M  V30 11 1 17 12
M  V30 12 1 19 1
M  V30 13 1 19 15
M  V30 14 1 20 6
M  V30 15 1 20 11
M  V30 16 1 20 12
M  V30 17 2 21 4
M  V30 18 1 21 10
M  V30 19 1 21 11
M  V30 20 1 22 2
M  V30 21 1 22 9
M  V30 22 1 23 18
M  V30 23 1 24 13
M  V30 24 1 24 23
M  V30 25 1 25 15
M  V30 26 1 25 16
M  V30 27 1 25 23
M  V30 28 1 26 4
M  V30 29 2 26 7
M  V30 30 2 27 3
M  V30 31 1 27 11
M  V30 32 1 28 1
M  V30 33 1 29 1
M  V30 34 1 2 30 CFG=3
M  V30 35 1 31 3
M  V30 36 1 32 5
M  V30 37 1 33 5
M  V30 38 1 34 6
M  V30 39 1 35 6
M  V30 40 1 8 36 CFG=3
M  V30 41 1 9 37 CFG=3
M  V30 42 1 38 10
M  V30 43 1 39 12
M  V30 44 1 40 12
M  V30 45 1 41 13
M  V30 46 1 42 14
M  V30 47 1 43 16
M  V30 48 1 44 16
M  V30 49 1 45 17
M  V30 50 1 46 17
M  V30 51 1 47 19
M  V30 52 1 48 19
M  V30 53 1 20 49 CFG=1
M  V30 54 1 23 50 CFG=1
M  V30 55 1 51 24
M  V30 56 1 52 24
M  V30 57 1 25 53 CFG=1
M  V30 58 1 54 26
M  V30 END BOND
M  V30 END CTAB
M  END
>  <i_epik_Tot_Q>  (1) 
0

>  <i_epik_Tot_abs_Q>  (1) 
0

>  <i_i_glide_confnum>  (1) 
140

>  <i_i_glide_lignum>  (1) 
122

>  <i_i_glide_posenum>  (1) 
375

>  <i_i_glide_rotatable_bonds>  (1) 
5

>  <i_lp_mmshare_version>  (1) 
72125

>  <i_m_source_file_index>  (1) 
46

>  <i_f3d_flags>  (1) 
0

>  <num_sample>  (1) 
50

>  <b_lp_Chiralities_Consistent>  (1) 
1

>  <r_epik_Charging_Adjusted_Penalty>  (1) 
0

>  <r_epik_Ionization_Penalty>  (1) 
1.2822463511274088e-05

>  <r_epik_Ionization_Penalty_Charging>  (1) 
0

>  <r_epik_Ionization_Penalty_Neutral>  (1) 
1.2822463511274088e-05

>  <r_epik_State_Penalty>  (1) 
-0

>  <r_glide_ring_energy>  (1) 
0

>  <r_i_docking_score>  (1) 
-4.9525139133634353

>  <r_i_glide_ecoul>  (1) 
-0.41408417375451212

>  <r_i_glide_eff_state_penalty>  (1) 
-0

>  <r_i_glide_einternal>  (1) 
4.8335149251394007

>  <r_i_glide_emodel>  (1) 
-31.815754063392532

>  <r_i_glide_emodel_strain>  (1) 
1.2175059947747897

>  <r_i_glide_energy>  (1) 
-30.443878688108853

>  <r_i_glide_erotb>  (1) 
0.55159765068717725

>  <r_i_glide_esite>  (1) 
0

>  <r_i_glide_evdw>  (1) 
-30.029794514354339

>  <r_i_glide_gscore>  (1) 
-4.9525139133634353

>  <r_i_glide_gscore_strain>  (1) 
0

>  <r_i_glide_hbond>  (1) 
0

>  <r_i_glide_ligand_efficiency>  (1) 
-0.18342644123568277

>  <r_i_glide_ligand_efficiency_ln>  (1) 
-1.1528635904579632

>  <r_i_glide_ligand_efficiency_sa>  (1) 
-0.55027932370704846

>  <r_i_glide_lipo>  (1) 
-2.0588395010539364

>  <r_i_glide_metal>  (1) 
-0

>  <r_i_glide_rewards>  (1) 
-1.8816697112157825

>  <r_lp_Energy>  (1) 
32.347338000000001

>  <r_lp_tautomer_probability>  (1) 
1

>  <s_epik_cmdline>  (1) 
J2VwaWtfcHl0aG9uJywgJy1waHQnLCAnMS4wJywgJy1waCcsICc3LjQnLCAnLXRuJywgJzgnLCAnLW1hJywgJzUwMCcsICctaW1hZScsICc8aW5maWxlLm1hZT4nLCAnLW9tYWUnLCAnPG91dGZpbGUubWFlPic=

>  <s_epik_input>  (1) 
W09IXVtDSDJdW0NASF0oRilbQ0BASF0oW0NIMl0xKU9bQ0gyXVtDSDJdW0NASF0xYyhbY0hdMilbY0hdW2NIXWMoYzIzKW4obltjSF0zKVtDQEBIXShbQ0gyXVtDSDJdNClbQ0gyXVtDSDJdW0NAQEhdKE81KVtDQEhdNDU=

>  <s_glide_docking_method>  (1) 
confgen

>  <s_i_glide_gridfile>  (1) 
gpcr_drd2_6luq_protein_autoprepared_prepared

>  <s_lp_Force_Field>  (1) 
S-OPLS

>  <s_lp_Variant>  (1) 
DiffSBDD_45-1

>  <s_m_source_file>  (1) 
generated_generic_title2_ligand_DiffSBDD_2026-06-23_prepared.sdf

>  <GenAI_Model>  (1) 
DiffSBDD

>  <Protein>  (1) 
generic_title2

$$$$
DiffSBDD_0
     RDKit          3D

  0  0  0  0  0  0  0  0  0  0999 V3000
M  V30 BEGIN CTAB
M  V30 COUNTS 70 74 0 0 1
M  V30 BEGIN ATOM
M  V30 1 C 11.874823 9.257646 -6.631116 0
M  V30 2 N 7.789492 4.194038 -12.929750 0
M  V30 3 C 7.511716 5.522839 -16.970926 0 CFG=1
M  V30 4 C 9.119911 4.198677 -10.847716 0
M  V30 5 F 11.998259 8.394781 -10.198431 0
M  V30 6 C 7.593129 5.645094 -13.086615 0
M  V30 7 C 10.588274 8.507845 -6.254279 0
M  V30 8 C 9.038749 5.729379 -9.074644 0
M  V30 9 C 10.118236 8.080399 -8.759176 0 CFG=1
M  V30 10 C 9.996144 4.717516 -17.515157 0
M  V30 11 C 7.202624 3.388430 -14.002720 0 CFG=1
M  V30 12 C 6.262417 0.005545 -13.132443 0
M  V30 13 C 8.588024 5.011811 -17.929691 0 CFG=1
M  V30 14 O 8.823971 5.479693 -10.468331 0
M  V30 15 C 11.446693 8.826877 -9.063075 0 CFG=1
M  V30 16 C 7.402948 4.141447 -17.593520 0 CFG=1
M  V30 17 N 7.491357 5.182497 -15.526408 0 CFG=1 CHG=1
M  V30 18 C 10.311268 6.558417 -8.845192 0
M  V30 19 C 6.187266 1.518427 -13.091844 0
M  V30 20 C 7.899952 3.795972 -15.292857 0 CFG=2
M  V30 21 O 5.775225 -0.409772 -14.385010 0
M  V30 22 C 9.535703 8.503078 -7.387612 0
M  V30 23 N 10.753302 5.595176 -16.803426 0
M  V30 24 C 8.055059 6.089821 -14.505325 0
M  V30 25 N 10.601376 3.585845 -17.879156 0
M  V30 26 O 11.921897 3.749497 -17.428339 0
M  V30 27 C 11.911612 4.960048 -16.841899 0
M  V30 28 O 7.286813 2.020781 -13.834462 0
M  V30 29 N 13.139961 5.384639 -16.371381 0
M  V30 30 C 8.634907 3.617924 -11.968140 0
M  V30 31 C 12.466095 8.686451 -7.924714 0
M  V30 32 C 13.528425 6.602980 -15.686708 0
M  V30 33 C 7.499340 3.040919 -16.554474 0
M  V30 34 H 11.666757 10.320768 -6.754648 0
M  V30 35 H 12.599441 9.190210 -5.820455 0
M  V30 36 H 6.803929 6.292127 -17.274859 0
M  V30 37 H 9.775411 3.700299 -10.149794 0
M  V30 38 H 6.533759 5.863688 -12.946304 0
M  V30 39 H 8.125725 6.260855 -12.372381 0
M  V30 40 H 10.175406 8.953137 -5.352813 0
M  V30 41 H 10.837834 7.479350 -5.991345 0
M  V30 42 H 8.175411 6.237646 -8.661081 0
M  V30 43 H 9.098360 4.808715 -8.491104 0
M  V30 44 H 9.399199 8.353162 -9.534181 0
M  V30 45 H 6.148317 3.668150 -14.064702 0
M  V30 46 H 5.619074 -0.412912 -12.357985 0
M  V30 47 H 7.274088 -0.357104 -12.962858 0
M  V30 48 H 8.600102 5.453255 -18.923593 0
M  V30 49 H 11.254606 9.884380 -9.234588 0
M  V30 50 H 6.675539 3.985291 -18.388507 0
M  V30 51 H 10.829739 6.190522 -7.960356 0
M  V30 52 H 10.975385 6.390227 -9.677320 0
M  V30 53 H 5.230904 1.841652 -13.507051 0
M  V30 54 H 6.226108 1.875813 -12.062751 0
M  V30 55 H 8.975411 3.735315 -15.159814 0
M  V30 56 H 5.394474 -1.282403 -14.224135 0
M  V30 57 H 9.071671 9.481180 -7.485757 0
M  V30 58 H 8.711394 7.847496 -7.104706 0
M  V30 59 H 7.775400 7.124741 -14.703015 0
M  V30 60 H 9.137658 5.990221 -14.555726 0
M  V30 61 H 13.894804 4.729133 -16.507388 0
M  V30 62 H 8.891661 2.593389 -12.196157 0
M  V30 63 H 13.397226 9.190222 -8.180487 0
M  V30 64 H 12.728438 7.638376 -7.784012 0
M  V30 65 H 14.270547 6.387849 -14.917884 0
M  V30 66 H 13.950586 7.319712 -16.391061 0
M  V30 67 H 12.664127 7.063827 -15.206675 0
M  V30 68 H 6.560856 2.513860 -16.441894 0
M  V30 69 H 8.246838 2.299503 -16.839793 0
M  V30 70 H 6.503393 5.180252 -15.319721 0
M  V30 END ATOM
M  V30 BEGIN BOND
M  V30 1 1 6 2
M  V30 2 1 7 1
M  V30 3 1 11 2
M  V30 4 1 13 3
M  V30 5 1 13 10
M  V30 6 1 14 4
M  V30 7 1 14 8
M  V30 8 1 15 5
M  V30 9 1 15 9
M  V30 10 1 16 3
M  V30 11 1 16 13
M  V30 12 1 17 3
M  V30 13 1 18 8
M  V30 14 1 18 9
M  V30 15 1 19 12
M  V30 16 1 20 11
M  V30 17 1 20 17
M  V30 18 1 21 12
M  V30 19 1 22 7
M  V30 20 1 22 9
M  V30 21 1 23 10
M  V30 22 1 24 6
M  V30 23 1 24 17
M  V30 24 2 25 10
M  V30 25 1 26 25
M  V30 26 2 27 23
M  V30 27 1 27 26
M  V30 28 1 28 11
M  V30 29 1 28 19
M  V30 30 1 29 27
M  V30 31 1 30 2
M  V30 32 2 30 4
M  V30 33 1 31 1
M  V30 34 1 31 15
M  V30 35 1 32 29
M  V30 36 1 33 16
M  V30 37 1 33 20
M  V30 38 1 34 1
M  V30 39 1 35 1
M  V30 40 1 3 36 CFG=1
M  V30 41 1 37 4
M  V30 42 1 38 6
M  V30 43 1 39 6
M  V30 44 1 40 7
M  V30 45 1 41 7
M  V30 46 1 42 8
M  V30 47 1 43 8
M  V30 48 1 9 44 CFG=3
M  V30 49 1 11 45 CFG=3
M  V30 50 1 46 12
M  V30 51 1 47 12
M  V30 52 1 13 48 CFG=3
M  V30 53 1 15 49 CFG=3
M  V30 54 1 16 50 CFG=3
M  V30 55 1 51 18
M  V30 56 1 52 18
M  V30 57 1 53 19
M  V30 58 1 54 19
M  V30 59 1 20 55 CFG=1
M  V30 60 1 56 21
M  V30 61 1 57 22
M  V30 62 1 58 22
M  V30 63 1 59 24
M  V30 64 1 60 24
M  V30 65 1 61 29
M  V30 66 1 62 30
M  V30 67 1 63 31
M  V30 68 1 64 31
M  V30 69 1 65 32
M  V30 70 1 66 32
M  V30 71 1 67 32
M  V30 72 1 68 33
M  V30 73 1 69 33
M  V30 74 1 17 70 CFG=1
M  V30 END BOND
M  V30 END CTAB
M  END
>  <i_epik_Tot_Q>  (1) 
1

>  <i_epik_Tot_abs_Q>  (1) 
1

>  <i_i_glide_confnum>  (1) 
617

>  <i_i_glide_lignum>  (1) 
16

>  <i_i_glide_posenum>  (1) 
242

>  <i_i_glide_rotatable_bonds>  (1) 
11

>  <i_lp_mmshare_version>  (1) 
72125

>  <i_m_source_file_index>  (1) 
1

>  <i_f3d_flags>  (1) 
0

>  <num_sample>  (1) 
50

>  <b_lp_Chiralities_Consistent>  (1) 
1

>  <r_epik_Charging_Adjusted_Penalty>  (1) 
0.41344222577729461

>  <r_epik_Ionization_Penalty>  (1) 
0.0027644559619576371

>  <r_epik_Ionization_Penalty_Charging>  (1) 
0.0027623868246906495

>  <r_epik_Ionization_Penalty_Neutral>  (1) 
2.0691372669875143e-06

>  <r_epik_State_Penalty>  (1) 
0.41067983895260396

>  <r_glide_ring_energy>  (1) 
1.6783687507503939

>  <r_i_docking_score>  (1) 
-4.952182929651415

>  <r_i_glide_ecoul>  (1) 
-3.6063294381909277

>  <r_i_glide_eff_state_penalty>  (1) 
0.41067983895260396

>  <r_i_glide_einternal>  (1) 
11.420567412765777

>  <r_i_glide_emodel>  (1) 
-40.86627609238095

>  <r_i_glide_emodel_strain>  (1) 
1.3454141011756207

>  <r_i_glide_energy>  (1) 
-34.882610173177305

>  <r_i_glide_erotb>  (1) 
0.74142510397790429

>  <r_i_glide_esite>  (1) 
0

>  <r_i_glide_evdw>  (1) 
-31.276280734986376

>  <r_i_glide_gscore>  (1) 
-5.3628627686040193

>  <r_i_glide_gscore_strain>  (1) 
0

>  <r_i_glide_hbond>  (1) 
-0.16

>  <r_i_glide_ligand_efficiency>  (1) 
-0.1500661493833762

>  <r_i_glide_ligand_efficiency_ln>  (1) 
-1.1013398425235434

>  <r_i_glide_ligand_efficiency_sa>  (1) 
-0.48134232591746129

>  <r_i_glide_lipo>  (1) 
-2.2843666116033043

>  <r_i_glide_metal>  (1) 
-0

>  <r_i_glide_rewards>  (1) 
-1.5551578085006603

>  <r_lp_Energy>  (1) 
50.173428000000001

>  <r_lp_tautomer_probability>  (1) 
0.5

>  <s_epik_Chemistry_Notes>  (1) 
This compound has an imine and may undergo hydrolysis. This compound contains an acetal/aminal-like group ( X-CH(R)-Y where X, Y are N, S, or O) that may be acid/base labile, releasing an aldehyde.

>  <s_epik_cmdline>  (1) 
J2VwaWtfcHl0aG9uJywgJy1waHQnLCAnMS4wJywgJy1waCcsICc3LjQnLCAnLXRuJywgJzgnLCAnLW1hJywgJzUwMCcsICctaW1hZScsICc8aW5maWxlLm1hZT4nLCAnLW9tYWUnLCAnPG91dGZpbGUubWFlPic=

>  <s_epik_input>  (1) 
W0NIMl0xW0NIMl1bQ0gyXVtDSDJdW0NASF0oRilbQ0BIXTFbQ0gyXVtDSDJdTy9bQ0hdPVtDSF1cTihbQ0BIXTJPW0NIMl1bQ0gyXVtPSF0pW0NIMl1bQ0gyXU4zW0NAQEhdMltDSDJdW0NAQEhdKFtDQEBIXTM0KVtDQEBIXTRjNW5jKG9uNSlbTkhdW0NIM10=

>  <s_glide_docking_method>  (1) 
confgen

>  <s_i_glide_gridfile>  (1) 
gpcr_drd2_6luq_protein_autoprepared_prepared

>  <s_lp_Force_Field>  (1) 
S-OPLS

>  <s_lp_Variant>  (1) 
DiffSBDD_0-16

>  <s_m_source_file>  (1) 
generated_generic_title2_ligand_DiffSBDD_2026-06-23_prepared.sdf

>  <GenAI_Model>  (1) 
DiffSBDD

>  <Protein>  (1) 
generic_title2

$$$$
DiffSBDD_30
     RDKit          3D

  0  0  0  0  0  0  0  0  0  0999 V3000
M  V30 BEGIN CTAB
M  V30 COUNTS 45 45 0 0 1
M  V30 BEGIN ATOM
M  V30 1 C 8.803310 4.092258 -11.920101 0
M  V30 2 N 11.375411 7.566834 -4.785020 0 CHG=-1
M  V30 3 C 9.651227 4.916832 -15.938634 0
M  V30 4 O 10.075332 6.468941 -7.965217 0
M  V30 5 C 11.905865 8.882498 -4.523770 0
M  V30 6 C 8.365998 4.110491 -16.219463 0
M  V30 7 O 6.701079 5.803036 -16.026397 0
M  V30 8 F 8.575430 2.820775 -15.963684 0
M  V30 9 N 10.773670 4.475106 -16.785029 0 CHG=1
M  V30 10 C 10.745310 7.701690 -5.988737 0
M  V30 11 C 8.224158 4.854405 -10.703247 0 CFG=2
M  V30 12 C 11.484768 9.603850 -5.793172 0
M  V30 13 C 7.817136 3.678690 -13.037601 0
M  V30 14 C 7.122400 4.588871 -15.424658 0 CFG=2
M  V30 15 F 13.230159 8.862857 -4.385024 0
M  V30 16 F 11.342603 9.439180 -3.453441 0
M  V30 17 C 9.990010 6.508347 -6.546372 0
M  V30 18 O 11.775420 10.781119 -5.985024 0
M  V30 19 N 8.962318 5.705555 -8.467330 0
M  V30 20 F 8.086986 4.187946 -17.523142 0
M  V30 21 O 7.544064 5.990230 -11.185026 0
M  V30 22 C 9.375459 5.347605 -9.810111 0
M  V30 23 O 6.066277 5.245362 -13.372150 0
M  V30 24 N 10.772510 8.790230 -6.632423 0
M  V30 25 C 7.316051 4.860222 -13.911429 0 CFG=1
M  V30 26 H 9.607235 4.679194 -12.366629 0
M  V30 27 H 9.290700 3.190066 -11.548804 0
M  V30 28 H 9.478871 5.978195 -16.120335 0
M  V30 29 H 9.953252 4.816509 -14.895869 0
M  V30 30 H 6.363808 5.607580 -16.887283 0
M  V30 31 H 11.589094 5.035710 -16.581631 0
M  V30 32 H 10.520913 4.576859 -17.757626 0
M  V30 33 H 7.531233 4.223299 -10.145918 0
M  V30 34 H 8.352324 2.965563 -13.657214 0
M  V30 35 H 6.983047 3.110643 -12.621285 0
M  V30 36 H 6.335743 3.850003 -15.535805 0
M  V30 37 H 8.955772 6.581943 -6.205035 0
M  V30 38 H 10.410176 5.590230 -6.143576 0
M  V30 39 H 8.201572 6.380304 -8.516466 0
M  V30 40 H 7.375318 6.606752 -10.466416 0
M  V30 41 H 10.107807 4.551506 -9.691903 0
M  V30 42 H 9.884726 6.187090 -10.286547 0
M  V30 43 H 6.252935 5.596960 -12.505836 0
M  V30 44 H 7.995407 5.707118 -13.806831 0
M  V30 45 H 10.981679 3.505926 -16.590117 0
M  V30 END ATOM
M  V30 BEGIN BOND
M  V30 1 1 5 2
M  V30 2 1 6 3
M  V30 3 1 8 6
M  V30 4 1 9 3
M  V30 5 1 10 2
M  V30 6 1 11 1
M  V30 7 1 12 5
M  V30 8 1 13 1
M  V30 9 1 14 6
M  V30 10 1 14 7
M  V30 11 1 15 5
M  V30 12 1 16 5
M  V30 13 1 17 4
M  V30 14 1 17 10
M  V30 15 2 18 12
M  V30 16 1 19 4
M  V30 17 1 20 6
M  V30 18 1 21 11
M  V30 19 1 22 11
M  V30 20 1 22 19
M  V30 21 2 24 10
M  V30 22 1 24 12
M  V30 23 1 25 13
M  V30 24 1 25 14
M  V30 25 1 25 23
M  V30 26 1 26 1
M  V30 27 1 27 1
M  V30 28 1 28 3
M  V30 29 1 29 3
M  V30 30 1 30 7
M  V30 31 1 31 9
M  V30 32 1 32 9
M  V30 33 1 11 33 CFG=1
M  V30 34 1 34 13
M  V30 35 1 35 13
M  V30 36 1 14 36 CFG=1
M  V30 37 1 37 17
M  V30 38 1 38 17
M  V30 39 1 39 19
M  V30 40 1 40 21
M  V30 41 1 41 22
M  V30 42 1 42 22
M  V30 43 1 43 23
M  V30 44 1 25 44 CFG=3
M  V30 45 1 45 9
M  V30 END BOND
M  V30 END CTAB
M  END
>  <i_epik_Tot_Q>  (1) 
0

>  <i_epik_Tot_abs_Q>  (1) 
2

>  <i_i_glide_confnum>  (1) 
1511

>  <i_i_glide_lignum>  (1) 
92

>  <i_i_glide_posenum>  (1) 
305

>  <i_i_glide_rotatable_bonds>  (1) 
14

>  <i_lp_mmshare_version>  (1) 
72125

>  <i_m_source_file_index>  (1) 
31

>  <i_f3d_flags>  (1) 
0

>  <num_sample>  (1) 
50

>  <b_lp_Chiralities_Consistent>  (1) 
1

>  <r_epik_Charging_Adjusted_Penalty>  (1) 
1.1033345343036571

>  <r_epik_Ionization_Penalty>  (1) 
0.55249664061947246

>  <r_epik_Ionization_Penalty_Charging>  (1) 
0.55167603061160131

>  <r_epik_Ionization_Penalty_Neutral>  (1) 
0.00082061000787111938

>  <r_epik_State_Penalty>  (1) 
0.55165850369205582

>  <r_glide_ring_energy>  (1) 
0

>  <r_i_docking_score>  (1) 
-4.9324202381940205

>  <r_i_glide_ecoul>  (1) 
-10.782949922993167

>  <r_i_glide_eff_state_penalty>  (1) 
0.55165850369205582

>  <r_i_glide_einternal>  (1) 
12.716883611275975

>  <r_i_glide_emodel>  (1) 
-47.844557814801604

>  <r_i_glide_emodel_strain>  (1) 
1.0742562984173816

>  <r_i_glide_energy>  (1) 
-38.442750902758725

>  <r_i_glide_erotb>  (1) 
1.2301891588113794

>  <r_i_glide_esite>  (1) 
-0.088671262596103209

>  <r_i_glide_evdw>  (1) 
-27.65980097976556

>  <r_i_glide_gscore>  (1) 
-5.4840787418860764

>  <r_i_glide_gscore_strain>  (1) 
0

>  <r_i_glide_hbond>  (1) 
-0.27549218005368181

>  <r_i_glide_ligand_efficiency>  (1) 
-0.19729680952776082

>  <r_i_glide_ligand_efficiency_ln>  (1) 
-1.1691314091587681

>  <r_i_glide_ligand_efficiency_sa>  (1) 
-0.57689937075197784

>  <r_i_glide_lipo>  (1) 
-1.1988214884673698

>  <r_i_glide_metal>  (1) 
-0

>  <r_i_glide_rewards>  (1) 
-2.1508504321430473

>  <r_lp_Energy>  (1) 
17.800135000000001

>  <s_epik_Chemistry_Notes>  (1) 
This compound has an imine and may undergo hydrolysis. This compound has a N-S or N-O group and may undergo hydrolysis at high or low pH.

>  <s_epik_cmdline>  (1) 
J2VwaWtfcHl0aG9uJywgJy1waHQnLCAnMS4wJywgJy1waCcsICc3LjQnLCAnLXRuJywgJzgnLCAnLW1hJywgJzUwMCcsICctaW1hZScsICc8aW5maWxlLm1hZT4nLCAnLW9tYWUnLCAnPG91dGZpbGUubWFlPic=

>  <s_epik_input>  (1) 
W05IMl1bQ0gyXUMoRikoRilbQ0BASF0oW09IXSlbQ0BASF0oW09IXSlbQ0gyXVtDSDJdW0NASF0oW09IXSlbQ0gyXVtOSF1PW0NIMl1DKD1OQzEoRilGKVtOSF1DMT1P

>  <s_glide_docking_method>  (1) 
confgen

>  <s_i_glide_gridfile>  (1) 
gpcr_drd2_6luq_protein_autoprepared_prepared

>  <s_lp_Force_Field>  (1) 
S-OPLS

>  <s_lp_Variant>  (1) 
DiffSBDD_30-4

>  <s_m_source_file>  (1) 
generated_generic_title2_ligand_DiffSBDD_2026-06-23_prepared.sdf

>  <GenAI_Model>  (1) 
DiffSBDD

>  <Protein>  (1) 
generic_title2

$$$$
DiffSBDD_39
     RDKit          3D

  0  0  0  0  0  0  0  0  0  0999 V3000
M  V30 BEGIN CTAB
M  V30 COUNTS 68 71 0 0 1
M  V30 BEGIN ATOM
M  V30 1 C 7.779744 4.660344 -12.110517 0
M  V30 2 F 6.037304 2.060814 -18.736991 0
M  V30 3 F 7.724579 3.233886 -19.414209 0
M  V30 4 C 12.105590 9.572859 -5.963127 0
M  V30 5 C 9.022967 5.796705 -10.152153 0
M  V30 6 C 9.918868 8.093338 -10.478794 0 CFG=1
M  V30 7 O 13.441694 9.590272 -6.384960 0
M  V30 8 C 7.278209 2.117265 -15.880834 0 CFG=2
M  V30 9 C 7.492294 7.258130 -13.416877 0
M  V30 10 C 10.125857 7.011650 -8.216210 0 CFG=2
M  V30 11 O 8.135348 -0.009856 -15.081124 0
M  V30 12 C 7.258995 5.962144 -14.177122 0
M  V30 13 N 6.838588 4.881174 -13.246808 0 CFG=1 CHG=1
M  V30 14 C 8.176692 1.124555 -18.482476 0
M  V30 15 C 8.054429 5.974053 -11.349326 0 CFG=1
M  V30 16 C 6.444224 3.657554 -13.980359 0
M  V30 17 O 7.899468 0.313342 -17.342936 0
M  V30 18 C 8.948499 8.315862 -11.648250 0
M  V30 19 N 9.375464 7.104465 -9.509613 0 CFG=2 CHG=1
M  V30 20 C 11.454189 8.255485 -6.420913 0 CFG=1
M  V30 21 C 10.575474 7.689824 -5.334717 0
M  V30 22 C 7.627730 2.842464 -14.552390 0
M  V30 23 C 8.568685 7.020174 -12.351716 0 CFG=2
M  V30 24 C 8.226861 0.922997 -16.131377 0 CFG=1
M  V30 25 C 7.375761 3.049091 -17.099101 0
M  V30 26 C 10.023836 6.345379 -5.759304 0
M  V30 27 C 7.301790 2.389517 -18.471738 0
M  V30 28 O 7.498009 4.269495 -16.974020 0
M  V30 29 C 9.254100 6.422250 -7.083372 0
M  V30 30 O 11.054848 7.590242 -10.902558 0 CHG=-1
M  V30 31 C 10.684360 8.382695 -7.731119 0
M  V30 32 H 8.721135 4.241475 -12.470014 0
M  V30 33 H 7.344958 3.931137 -11.428441 0
M  V30 34 H 12.107610 9.669639 -4.876481 0
M  V30 35 H 11.576606 10.442407 -6.354579 0
M  V30 36 H 9.922906 5.284733 -10.481476 0
M  V30 37 H 8.546537 5.136695 -9.430609 0
M  V30 38 H 9.866318 9.060134 -9.984863 0
M  V30 39 H 13.464259 9.461365 -7.322545 0
M  V30 40 H 6.264370 1.719022 -15.830255 0
M  V30 41 H 7.775347 8.046974 -14.111307 0
M  V30 42 H 6.564065 7.589410 -12.950340 0
M  V30 43 H 10.974029 6.348262 -8.386731 0
M  V30 44 H 7.381249 -0.561031 -15.235556 0
M  V30 45 H 8.170987 5.684507 -14.705858 0
M  V30 46 H 6.490769 6.125703 -14.933842 0
M  V30 47 H 7.978833 0.544357 -19.383718 0
M  V30 48 H 9.237272 1.381694 -18.508612 0
M  V30 49 H 7.102491 6.323236 -10.950727 0
M  V30 50 H 5.845293 3.018309 -13.330045 0
M  V30 51 H 5.777229 3.988544 -14.774753 0
M  V30 52 H 9.375239 9.008417 -12.373974 0
M  V30 53 H 8.042838 8.793503 -11.270759 0
M  V30 54 H 12.175403 7.478216 -6.613021 0
M  V30 55 H 11.120683 7.586359 -4.395433 0
M  V30 56 H 9.775386 8.390114 -5.185511 0
M  V30 57 H 8.492532 3.481361 -14.725454 0
M  V30 58 H 7.962908 2.141710 -13.787353 0
M  V30 59 H 9.469440 6.628584 -12.826227 0
M  V30 60 H 9.266581 1.251356 -16.168556 0
M  V30 61 H 10.845731 5.634021 -5.849965 0
M  V30 62 H 9.375266 5.990186 -4.966703 0
M  V30 63 H 8.892132 5.425751 -7.327567 0
M  V30 64 H 8.375436 7.045318 -6.929949 0
M  V30 65 H 9.867030 9.094363 -7.607123 0
M  V30 66 H 11.388646 8.798914 -8.451981 0
M  V30 67 H 5.990136 5.225213 -12.819810 0
M  V30 68 H 8.453472 7.495487 -9.275246 0
M  V30 END ATOM
M  V30 BEGIN BOND
M  V30 1 1 7 4
M  V30 2 1 12 9
M  V30 3 1 13 1
M  V30 4 1 13 12
M  V30 5 1 15 1
M  V30 6 1 15 5
M  V30 7 1 16 13
M  V30 8 1 17 14
M  V30 9 1 18 6
M  V30 10 1 19 5
M  V30 11 1 19 6
M  V30 12 1 19 10
M  V30 13 1 20 4
M  V30 14 1 21 20
M  V30 15 1 22 8
M  V30 16 1 22 16
M  V30 17 1 23 9
M  V30 18 1 23 15
M  V30 19 1 23 18
M  V30 20 1 24 8
M  V30 21 1 24 11
M  V30 22 1 24 17
M  V30 23 1 25 8
M  V30 24 1 26 21
M  V30 25 1 27 2
M  V30 26 1 27 3
M  V30 27 1 27 14
M  V30 28 1 27 25
M  V30 29 2 28 25
M  V30 30 1 29 10
M  V30 31 1 29 26
M  V30 32 1 30 6
M  V30 33 1 31 10
M  V30 34 1 31 20
M  V30 35 1 32 1
M  V30 36 1 33 1
M  V30 37 1 34 4
M  V30 38 1 35 4
M  V30 39 1 36 5
M  V30 40 1 37 5
M  V30 41 1 6 38 CFG=1
M  V30 42 1 39 7
M  V30 43 1 8 40 CFG=1
M  V30 44 1 41 9
M  V30 45 1 42 9
M  V30 46 1 10 43 CFG=3
M  V30 47 1 44 11
M  V30 48 1 45 12
M  V30 49 1 46 12
M  V30 50 1 47 14
M  V30 51 1 48 14
M  V30 52 1 15 49 CFG=1
M  V30 53 1 50 16
M  V30 54 1 51 16
M  V30 55 1 52 18
M  V30 56 1 53 18
M  V30 57 1 20 54 CFG=3
M  V30 58 1 55 21
M  V30 59 1 56 21
M  V30 60 1 57 22
M  V30 61 1 58 22
M  V30 62 1 23 59 CFG=3
M  V30 63 1 24 60 CFG=3
M  V30 64 1 61 26
M  V30 65 1 62 26
M  V30 66 1 63 29
M  V30 67 1 64 29
M  V30 68 1 65 31
M  V30 69 1 66 31
M  V30 70 1 13 67 CFG=1
M  V30 71 1 19 68 CFG=1
M  V30 END BOND
M  V30 END CTAB
M  END
>  <i_epik_Tot_Q>  (1) 
1

>  <i_epik_Tot_abs_Q>  (1) 
3

>  <i_i_glide_confnum>  (1) 
230

>  <i_i_glide_lignum>  (1) 
107

>  <i_i_glide_posenum>  (1) 
326

>  <i_i_glide_rotatable_bonds>  (1) 
7

>  <i_lp_mmshare_version>  (1) 
72125

>  <i_m_source_file_index>  (1) 
40

>  <i_f3d_flags>  (1) 
0

>  <num_sample>  (1) 
50

>  <b_lp_Chiralities_Consistent>  (1) 
1

>  <r_epik_Charging_Adjusted_Penalty>  (1) 
0.43569023002306473

>  <r_epik_Ionization_Penalty>  (1) 
0.17475065349743213

>  <r_epik_Ionization_Penalty_Charging>  (1) 
0.17468327186895813

>  <r_epik_Ionization_Penalty_Neutral>  (1) 
6.7381628474014066e-05

>  <r_epik_State_Penalty>  (1) 
0.26100695815410663

>  <r_glide_ring_energy>  (1) 
0

>  <r_i_docking_score>  (1) 
-4.927964335770957

>  <r_i_glide_ecoul>  (1) 
-8.2249053862719972

>  <r_i_glide_eff_state_penalty>  (1) 
0.26100695815410663

>  <r_i_glide_einternal>  (1) 
10.378483349418167

>  <r_i_glide_emodel>  (1) 
-35.504857394119071

>  <r_i_glide_emodel_strain>  (1) 
2.1402170909515377

>  <r_i_glide_energy>  (1) 
-28.841562067843384

>  <r_i_glide_erotb>  (1) 
0.49989103335302049

>  <r_i_glide_esite>  (1) 
-0.17632741916692196

>  <r_i_glide_evdw>  (1) 
-20.616656681571385

>  <r_i_glide_gscore>  (1) 
-5.1889712939250634

>  <r_i_glide_gscore_strain>  (1) 
0

>  <r_i_glide_hbond>  (1) 
-0.20000000000000001

>  <r_i_glide_ligand_efficiency>  (1) 
-0.15896659147648248

>  <r_i_glide_ligand_efficiency_ln>  (1) 
-1.1114069816859495

>  <r_i_glide_ligand_efficiency_sa>  (1) 
-0.4993745748408287

>  <r_i_glide_lipo>  (1) 
-1.4735884237853951

>  <r_i_glide_metal>  (1) 
-0

>  <r_i_glide_rewards>  (1) 
-1.5743778423063977

>  <r_lp_Energy>  (1) 
50.450402999999994

>  <r_lp_tautomer_probability>  (1) 
0.99995000000000001

>  <s_epik_Chemistry_Notes>  (1) 
This compound contains an acetal/aminal-like group ( X-CH(R)-Y where X, Y are N, S, or O) that may be acid/base labile, releasing an aldehyde.

>  <s_epik_cmdline>  (1) 
J2VwaWtfcHl0aG9uJywgJy1waHQnLCAnMS4wJywgJy1waCcsICc3LjQnLCAnLXRuJywgJzgnLCAnLW1hJywgJzUwMCcsICctaW1hZScsICc8aW5maWxlLm1hZT4nLCAnLW9tYWUnLCAnPG91dGZpbGUubWFlPic=

>  <s_epik_input>  (1) 
RkMxKEYpW0NIMl1PW0NASF0oW09IXSlbQ0BIXShDMT1PKVtDSDJdW0NIMl1OKFtDSDJdMilbQ0gyXVtDSDJdW0NASF0oW0NAQEhdMjMpW0NIMl1bQ0BIXShbT0hdKU4oW0NIMl0zKVtDQEBIXTRbQ0gyXVtDSDJdW0NIMl1bQ0BASF0oW0NIMl00KVtDSDJdW09IXQ==

>  <s_glide_docking_method>  (1) 
confgen

>  <s_i_glide_gridfile>  (1) 
gpcr_drd2_6luq_protein_autoprepared_prepared

>  <s_lp_Force_Field>  (1) 
S-OPLS

>  <s_lp_Variant>  (1) 
DiffSBDD_39-3

>  <s_m_source_file>  (1) 
generated_generic_title2_ligand_DiffSBDD_2026-06-23_prepared.sdf

>  <GenAI_Model>  (1) 
DiffSBDD

>  <Protein>  (1) 
generic_title2

$$$$
DiffSBDD_45
     RDKit          3D

  0  0  0  0  0  0  0  0  0  0999 V3000
M  V30 BEGIN CTAB
M  V30 COUNTS 54 58 0 0 1
M  V30 BEGIN ATOM
M  V30 1 C 10.554519 8.668949 -9.773794 0
M  V30 2 C 7.124162 0.379949 -15.349654 0 CFG=1
M  V30 3 C 7.261402 6.819957 -13.675377 0
M  V30 4 C 8.042436 6.469909 -12.548530 0
M  V30 5 C 7.161075 1.748472 -15.990272 0
M  V30 6 C 7.697784 2.849582 -15.064743 0
M  V30 7 C 9.492470 6.446804 -10.546486 0
M  V30 8 C 10.372365 7.188305 -9.520575 0 CFG=2
M  V30 9 C 6.428718 0.066249 -14.048389 0 CFG=1
M  V30 10 C 8.632477 4.354877 -11.433528 0
M  V30 11 N 7.162408 4.684851 -13.524260 0
M  V30 12 C 6.575424 2.306532 -12.825140 0
M  V30 13 O 10.975481 9.990322 -4.784719 0
M  V30 14 C 9.375408 5.045989 -10.475234 0
M  V30 15 O 11.300013 9.051422 -7.536838 0
M  V30 16 C 10.026664 7.003872 -8.032825 0
M  V30 17 C 5.708170 1.090575 -13.194667 0
M  V30 18 F 10.903409 6.489939 -5.168434 0
M  V30 19 C 11.664186 9.228206 -8.893177 0
M  V30 20 C 6.752224 3.344311 -13.957772 0 CFG=2
M  V30 21 C 7.974210 5.063444 -12.444366 0
M  V30 22 O 5.825789 -0.224606 -15.316273 0
M  V30 23 C 10.721894 7.716829 -5.656305 0 CFG=1
M  V30 24 C 11.546734 8.698635 -4.789703 0
M  V30 25 C 11.103455 7.696111 -7.145908 0 CFG=2
M  V30 26 C 8.821946 7.159855 -11.584848 0
M  V30 27 N 6.737519 5.770046 -14.256258 0
M  V30 28 H 9.612047 9.192489 -9.611774 0
M  V30 29 H 10.867006 8.790222 -10.797238 0
M  V30 30 H 7.930709 -0.292801 -15.636493 0
M  V30 31 H 7.070826 7.801314 -14.082749 0
M  V30 32 H 6.175398 1.990318 -16.373871 0
M  V30 33 H 7.808271 1.678993 -16.865384 0
M  V30 34 H 8.014015 3.690005 -15.684646 0
M  V30 35 H 8.575411 2.471458 -14.568652 0
M  V30 36 H 11.372397 6.790238 -9.665405 0
M  V30 37 H 6.784005 -0.809639 -13.512870 0
M  V30 38 H 8.575421 3.286147 -11.390075 0
M  V30 39 H 7.542720 1.920922 -12.511961 0
M  V30 40 H 6.131727 2.801417 -11.962223 0
M  V30 41 H 11.489837 10.547281 -4.221914 0
M  V30 42 H 9.880816 4.499925 -9.693521 0
M  V30 43 H 9.973069 5.944519 -7.777823 0
M  V30 44 H 9.038000 7.423497 -7.836079 0
M  V30 45 H 4.780092 1.394647 -13.672450 0
M  V30 46 H 5.406518 0.577724 -12.280230 0
M  V30 47 H 11.775415 10.289408 -9.110463 0
M  V30 48 H 12.624635 8.753566 -9.097713 0
M  V30 49 H 5.775381 3.504062 -14.385285 0
M  V30 50 H 9.657184 7.931377 -5.561162 0
M  V30 51 H 12.575456 8.790203 -5.133737 0
M  V30 52 H 11.583368 8.350436 -3.757181 0
M  V30 53 H 12.059318 7.181373 -7.261365 0
M  V30 54 H 8.900176 8.233091 -11.643723 0
M  V30 END ATOM
M  V30 BEGIN BOND
M  V30 1 1 4 3
M  V30 2 1 5 2
M  V30 3 1 6 5
M  V30 4 1 8 1
M  V30 5 1 8 7
M  V30 6 1 9 2
M  V30 7 1 14 7
M  V30 8 2 14 10
M  V30 9 1 16 8
M  V30 10 1 17 9
M  V30 11 1 17 12
M  V30 12 1 19 1
M  V30 13 1 19 15
M  V30 14 1 20 6
M  V30 15 1 20 11
M  V30 16 1 20 12
M  V30 17 2 21 4
M  V30 18 1 21 10
M  V30 19 1 21 11
M  V30 20 1 22 2
M  V30 21 1 22 9
M  V30 22 1 23 18
M  V30 23 1 24 13
M  V30 24 1 24 23
M  V30 25 1 25 15
M  V30 26 1 25 16
M  V30 27 1 25 23
M  V30 28 1 26 4
M  V30 29 2 26 7
M  V30 30 2 27 3
M  V30 31 1 27 11
M  V30 32 1 28 1
M  V30 33 1 29 1
M  V30 34 1 2 30 CFG=1
M  V30 35 1 31 3
M  V30 36 1 32 5
M  V30 37 1 33 5
M  V30 38 1 34 6
M  V30 39 1 35 6
M  V30 40 1 8 36 CFG=1
M  V30 41 1 9 37 CFG=1
M  V30 42 1 38 10
M  V30 43 1 39 12
M  V30 44 1 40 12
M  V30 45 1 41 13
M  V30 46 1 42 14
M  V30 47 1 43 16
M  V30 48 1 44 16
M  V30 49 1 45 17
M  V30 50 1 46 17
M  V30 51 1 47 19
M  V30 52 1 48 19
M  V30 53 1 20 49 CFG=3
M  V30 54 1 23 50 CFG=3
M  V30 55 1 51 24
M  V30 56 1 52 24
M  V30 57 1 25 53 CFG=1
M  V30 58 1 54 26
M  V30 END BOND
M  V30 END CTAB
M  END
>  <i_epik_Tot_Q>  (1) 
0

>  <i_epik_Tot_abs_Q>  (1) 
0

>  <i_i_glide_confnum>  (1) 
48

>  <i_i_glide_lignum>  (1) 
123

>  <i_i_glide_posenum>  (1) 
289

>  <i_i_glide_rotatable_bonds>  (1) 
5

>  <i_lp_mmshare_version>  (1) 
72125

>  <i_m_source_file_index>  (1) 
46

>  <i_f3d_flags>  (1) 
0

>  <num_sample>  (1) 
50

>  <b_lp_Chiralities_Consistent>  (1) 
1

>  <r_epik_Charging_Adjusted_Penalty>  (1) 
0

>  <r_epik_Ionization_Penalty>  (1) 
1.2822463511274088e-05

>  <r_epik_Ionization_Penalty_Charging>  (1) 
0

>  <r_epik_Ionization_Penalty_Neutral>  (1) 
1.2822463511274088e-05

>  <r_epik_State_Penalty>  (1) 
-0

>  <r_glide_ring_energy>  (1) 
0

>  <r_i_docking_score>  (1) 
-4.9145128977239958

>  <r_i_glide_ecoul>  (1) 
0.23895683812940705

>  <r_i_glide_eff_state_penalty>  (1) 
-0

>  <r_i_glide_einternal>  (1) 
7.3245168482689333

>  <r_i_glide_emodel>  (1) 
-31.476506263230775

>  <r_i_glide_emodel_strain>  (1) 
1.9344545505701518

>  <r_i_glide_energy>  (1) 
-31.677736713705411

>  <r_i_glide_erotb>  (1) 
0.55159765068717725

>  <r_i_glide_esite>  (1) 
0

>  <r_i_glide_evdw>  (1) 
-31.916693551834818

>  <r_i_glide_gscore>  (1) 
-4.9145128977239958

>  <r_i_glide_gscore_strain>  (1) 
0

>  <r_i_glide_hbond>  (1) 
0

>  <r_i_glide_ligand_efficiency>  (1) 
-0.18201899621199985

>  <r_i_glide_ligand_efficiency_ln>  (1) 
-1.1440175805128079

>  <r_i_glide_ligand_efficiency_sa>  (1) 
-0.54605698863599961

>  <r_i_glide_lipo>  (1) 
-1.6777345057517439

>  <r_i_glide_metal>  (1) 
-0

>  <r_i_glide_rewards>  (1) 
-2.2283848907870998

>  <r_lp_Energy>  (1) 
29.727612999999998

>  <r_lp_tautomer_probability>  (1) 
1

>  <s_epik_cmdline>  (1) 
J2VwaWtfcHl0aG9uJywgJy1waHQnLCAnMS4wJywgJy1waCcsICc3LjQnLCAnLXRuJywgJzgnLCAnLW1hJywgJzUwMCcsICctaW1hZScsICc8aW5maWxlLm1hZT4nLCAnLW9tYWUnLCAnPG91dGZpbGUubWFlPic=

>  <s_epik_input>  (1) 
W09IXVtDSDJdW0NASF0oRilbQ0BASF0oW0NIMl0xKU9bQ0gyXVtDSDJdW0NASF0xYyhbY0hdMilbY0hdW2NIXWMoYzIzKW4obltjSF0zKVtDQEBIXShbQ0gyXVtDSDJdNClbQ0gyXVtDSDJdW0NAQEhdKE81KVtDQEhdNDU=

>  <s_glide_docking_method>  (1) 
confgen

>  <s_i_glide_gridfile>  (1) 
gpcr_drd2_6luq_protein_autoprepared_prepared

>  <s_lp_Force_Field>  (1) 
S-OPLS

>  <s_lp_Variant>  (1) 
DiffSBDD_45-2

>  <s_m_source_file>  (1) 
generated_generic_title2_ligand_DiffSBDD_2026-06-23_prepared.sdf

>  <GenAI_Model>  (1) 
DiffSBDD

>  <Protein>  (1) 
generic_title2

$$$$
DiffSBDD_38
     RDKit          3D

  0  0  0  0  0  0  0  0  0  0999 V3000
M  V30 BEGIN CTAB
M  V30 COUNTS 55 57 0 0 1
M  V30 BEGIN ATOM
M  V30 1 C 10.812453 7.107590 -12.082675 0
M  V30 2 C 8.155226 5.112112 -12.780968 0
M  V30 3 N 8.690754 6.032722 -11.770633 0
M  V30 4 C 12.132725 8.942680 -5.471744 0 CFG=2
M  V30 5 C 12.784510 9.401295 -4.187971 0 CFG=1
M  V30 6 C 11.546943 10.104720 -4.713702 0
M  V30 7 C 11.374006 7.612592 -10.723451 0
M  V30 8 C 11.280799 7.794580 -8.180510 0
M  V30 9 C 9.333681 8.552778 -6.726927 0
M  V30 10 C 7.879569 3.803860 -12.535270 0
M  V30 11 C 7.907987 5.747140 -14.153796 0
M  V30 12 C 10.499981 7.560915 -6.853964 0 CFG=2
M  V30 13 C 7.443001 3.403035 -15.010916 0
M  V30 14 C 10.809097 6.978002 -9.408482 0 CFG=1
M  V30 15 C 11.375731 7.626612 -5.598479 0
M  V30 16 C 9.281200 7.301162 -12.211812 0
M  V30 17 C 7.020168 4.872947 -15.057458 0
M  V30 18 C 9.299343 6.826527 -9.481604 0
M  V30 19 C 12.745381 8.548950 -2.938408 0
M  V30 20 C 7.322156 2.848647 -13.580556 0
M  V30 21 C 8.689843 5.755016 -10.421971 0
M  V30 22 O 8.216495 4.741639 -9.932961 0
M  V30 23 H 11.292724 7.589941 -12.927031 0
M  V30 24 H 11.080950 6.059403 -12.234076 0
M  V30 25 H 12.699429 9.198781 -6.365142 0
M  V30 26 H 13.731631 9.920172 -4.317989 0
M  V30 27 H 11.653779 11.077831 -5.188208 0
M  V30 28 H 10.623154 9.960484 -4.158864 0
M  V30 29 H 11.157937 8.680395 -10.685652 0
M  V30 30 H 12.460101 7.569458 -10.720068 0
M  V30 31 H 12.335410 7.562056 -8.032346 0
M  V30 32 H 11.264641 8.857785 -8.416022 0
M  V30 33 H 9.712709 9.572815 -6.782791 0
M  V30 34 H 8.577466 8.455750 -7.503200 0
M  V30 35 H 8.820044 8.404577 -5.781386 0
M  V30 36 H 8.068698 3.372364 -11.586206 0
M  V30 37 H 7.405097 6.711248 -14.063690 0
M  V30 38 H 8.873333 5.885609 -14.639320 0
M  V30 39 H 10.111316 6.543916 -6.838017 0
M  V30 40 H 6.841291 2.811387 -15.700442 0
M  V30 41 H 8.474101 3.317657 -15.358958 0
M  V30 42 H 11.158567 5.990305 -9.184191 0
M  V30 43 H 10.764414 7.465663 -4.710465 0
M  V30 44 H 12.076253 6.789659 -5.622304 0
M  V30 45 H 8.977487 7.642874 -13.184784 0
M  V30 46 H 8.929338 8.158471 -11.641554 0
M  V30 47 H 5.980894 4.953288 -14.733644 0
M  V30 48 H 7.058734 5.241081 -16.082675 0
M  V30 49 H 8.975376 7.840486 -9.653447 0
M  V30 50 H 8.879019 6.546065 -8.523217 0
M  V30 51 H 11.737977 8.206818 -2.724459 0
M  V30 52 H 13.380515 7.673531 -3.066252 0
M  V30 53 H 13.098204 9.119420 -2.081721 0
M  V30 54 H 7.852327 1.895707 -13.510532 0
M  V30 55 H 6.279140 2.644055 -13.330558 0
M  V30 END ATOM
M  V30 BEGIN BOND
M  V30 1 1 3 2
M  V30 2 1 5 4
M  V30 3 1 6 4
M  V30 4 1 6 5
M  V30 5 1 7 1
M  V30 6 2 10 2
M  V30 7 1 11 2
M  V30 8 1 12 8
M  V30 9 1 12 9
M  V30 10 1 14 7
M  V30 11 1 14 8
M  V30 12 1 15 4
M  V30 13 1 15 12
M  V30 14 1 16 1
M  V30 15 1 16 3
M  V30 16 1 17 11
M  V30 17 1 17 13
M  V30 18 1 18 14
M  V30 19 1 19 5
M  V30 20 1 20 10
M  V30 21 1 20 13
M  V30 22 1 21 3
M  V30 23 1 21 18
M  V30 24 2 22 21
M  V30 25 1 23 1
M  V30 26 1 24 1
M  V30 27 1 4 25 CFG=3
M  V30 28 1 5 26 CFG=3
M  V30 29 1 27 6
M  V30 30 1 28 6
M  V30 31 1 29 7
M  V30 32 1 30 7
M  V30 33 1 31 8
M  V30 34 1 32 8
M  V30 35 1 33 9
M  V30 36 1 34 9
M  V30 37 1 35 9
M  V30 38 1 36 10
M  V30 39 1 37 11
M  V30 40 1 38 11
M  V30 41 1 12 39 CFG=3
M  V30 42 1 40 13
M  V30 43 1 41 13
M  V30 44 1 14 42 CFG=1
M  V30 45 1 43 15
M  V30 46 1 44 15
M  V30 47 1 45 16
M  V30 48 1 46 16
M  V30 49 1 47 17
M  V30 50 1 48 17
M  V30 51 1 49 18
M  V30 52 1 50 18
M  V30 53 1 51 19
M  V30 54 1 52 19
M  V30 55 1 53 19
M  V30 56 1 54 20
M  V30 57 1 55 20
M  V30 END BOND
M  V30 END CTAB
M  END
>  <i_epik_Tot_Q>  (1) 
0

>  <i_epik_Tot_abs_Q>  (1) 
0

>  <i_i_glide_confnum>  (1) 
455

>  <i_i_glide_lignum>  (1) 
103

>  <i_i_glide_posenum>  (1) 
73

>  <i_i_glide_rotatable_bonds>  (1) 
5

>  <i_lp_mmshare_version>  (1) 
72125

>  <i_m_source_file_index>  (1) 
39

>  <i_f3d_flags>  (1) 
0

>  <num_sample>  (1) 
50

>  <b_lp_Chiralities_Consistent>  (1) 
1

>  <r_epik_Charging_Adjusted_Penalty>  (1) 
0

>  <r_epik_Ionization_Penalty>  (1) 
3.750095861585333e-08

>  <r_epik_Ionization_Penalty_Charging>  (1) 
0

>  <r_epik_Ionization_Penalty_Neutral>  (1) 
3.750095861585333e-08

>  <r_epik_State_Penalty>  (1) 
-0

>  <r_glide_ring_energy>  (1) 
0.00030315173059249431

>  <r_i_docking_score>  (1) 
-4.9140714499619129

>  <r_i_glide_ecoul>  (1) 
-0.1944642815317259

>  <r_i_glide_eff_state_penalty>  (1) 
-0

>  <r_i_glide_einternal>  (1) 
11.454921448392184

>  <r_i_glide_emodel>  (1) 
-17.656582425632013

>  <r_i_glide_emodel_strain>  (1) 
0.62278596117516827

>  <r_i_glide_energy>  (1) 
-19.837346935426172

>  <r_i_glide_erotb>  (1) 
1.0003538244760346

>  <r_i_glide_esite>  (1) 
-0.10196031920229982

>  <r_i_glide_evdw>  (1) 
-19.642882653894446

>  <r_i_glide_gscore>  (1) 
-4.9140714499619129

>  <r_i_glide_gscore_strain>  (1) 
0

>  <r_i_glide_hbond>  (1) 
0

>  <r_i_glide_ligand_efficiency>  (1) 
-0.22336688408917785

>  <r_i_glide_ligand_efficiency_ln>  (1) 
-1.2011783074819906

>  <r_i_glide_ligand_efficiency_sa>  (1) 
-0.62588279438381944

>  <r_i_glide_lipo>  (1) 
-2.561324657583893

>  <r_i_glide_metal>  (1) 
-0

>  <r_i_glide_rewards>  (1) 
-2.2398265227272738

>  <r_lp_Energy>  (1) 
35.460141

>  <r_lp_tautomer_probability>  (1) 
1

>  <s_epik_cmdline>  (1) 
J2VwaWtfcHl0aG9uJywgJy1waHQnLCAnMS4wJywgJy1waCcsICc3LjQnLCAnLXRuJywgJzgnLCAnLW1hJywgJzUwMCcsICctaW1hZScsICc8aW5maWxlLm1hZT4nLCAnLW9tYWUnLCAnPG91dGZpbGUubWFlPic=

>  <s_epik_input>  (1) 
W0NIMl0xW0NIMl1bQ0gyXVtDSDJdW0NIXT1DMU4yW0NIMl1bQ0gyXVtDSDJdW0NASF0oW0NIMl1DMj1PKVtDSDJdW0NASF0oW0NIM10pW0NIMl1bQ0BASF0zW0NAQEhdKFtDSDJdMylbQ0gzXQ==

>  <s_glide_docking_method>  (1) 
confgen

>  <s_i_glide_gridfile>  (1) 
gpcr_drd2_6luq_protein_autoprepared_prepared

>  <s_lp_Force_Field>  (1) 
S-OPLS

>  <s_lp_Variant>  (1) 
DiffSBDD_38-1

>  <s_m_source_file>  (1) 
generated_generic_title2_ligand_DiffSBDD_2026-06-23_prepared.sdf

>  <GenAI_Model>  (1) 
DiffSBDD

>  <Protein>  (1) 
generic_title2

$$$$
DiffSBDD_6
     RDKit          3D

  0  0  0  0  0  0  0  0  0  0999 V3000
M  V30 BEGIN CTAB
M  V30 COUNTS 73 76 0 0 1
M  V30 BEGIN ATOM
M  V30 1 C 5.016494 7.697248 -17.181518 0
M  V30 2 C 5.461059 6.316240 -16.715994 0 CFG=1
M  V30 3 N 7.882565 5.366795 -11.868635 0
M  V30 4 C 7.905611 5.191295 -9.386448 0
M  V30 5 O 13.375124 7.990282 -8.629472 0
M  V30 6 C 8.688084 5.591575 -10.622710 0 CFG=2
M  V30 7 C 11.994974 9.261437 -9.984843 0
M  V30 8 C 6.791711 5.941068 -17.261092 0
M  V30 9 N 9.318585 4.944425 -17.969571 0
M  V30 10 C 6.980378 6.074283 -18.787404 0
M  V30 11 O 11.124869 8.243481 -7.319895 0
M  V30 12 C 12.196341 7.894038 -9.381626 0 CFG=2
M  V30 13 C 9.095881 5.130155 -16.672339 0
M  V30 14 C 5.780527 6.109572 -15.194005 0 CFG=2
M  V30 15 C 6.774814 6.925760 -14.404100 0 CFG=1
M  V30 16 C 8.319526 4.537832 -12.847956 0
M  V30 17 C 5.441902 5.830670 -21.675952 0
M  V30 18 C 10.327683 7.912659 -6.185104 0
M  V30 19 C 6.520302 7.211665 -12.935137 0
M  V30 20 C 7.700118 5.551394 -16.352003 0
M  V30 21 C 10.696983 6.557525 -5.569997 0
M  V30 22 C 9.632998 7.604517 -9.123891 0
M  V30 23 C 11.033126 7.415748 -8.487582 0 CFG=2
M  V30 24 C 5.945553 7.008496 -19.432165 0
M  V30 25 C 9.313980 7.016162 -10.537979 0
M  V30 26 F 5.342284 6.096198 -22.977775 0
M  V30 27 C 7.239752 5.585084 -14.952446 0 CFG=2
M  V30 28 C 6.559863 6.022410 -11.962415 0
M  V30 29 C 7.409375 4.341557 -14.075129 0
M  V30 30 C 8.381219 4.401176 -8.422210 0
M  V30 31 F 6.269585 4.797394 -21.526913 0
M  V30 32 O 9.974662 4.948885 -15.838128 0
M  V30 33 F 4.233530 5.500219 -21.219399 0
M  V30 34 C 5.972449 7.085908 -20.955728 0
M  V30 35 C 5.076167 7.734644 -18.697410 0
M  V30 36 O 9.385626 3.943053 -12.782616 0
M  V30 37 H 5.654784 8.484958 -16.780481 0
M  V30 38 H 3.997494 7.898514 -16.848379 0
M  V30 39 H 4.720727 5.590340 -17.038146 0
M  V30 40 H 6.908925 5.580680 -9.296739 0
M  V30 41 H 13.150849 8.471623 -7.845699 0
M  V30 42 H 9.549524 4.921305 -10.607134 0
M  V30 43 H 11.158673 9.190227 -10.661197 0
M  V30 44 H 12.865451 9.567279 -10.563103 0
M  V30 45 H 11.775496 10.020704 -9.235216 0
M  V30 46 H 10.231272 4.651223 -18.283573 0
M  V30 47 H 8.575065 5.093535 -18.634121 0
M  V30 48 H 7.924794 6.552336 -19.045218 0
M  V30 49 H 6.918936 5.085608 -19.238608 0
M  V30 50 H 12.358877 7.189737 -10.191507 0
M  V30 51 H 4.975447 5.652327 -14.621607 0
M  V30 52 H 7.154110 7.806274 -14.919118 0
M  V30 53 H 10.508866 8.690348 -5.444440 0
M  V30 54 H 9.262106 7.963932 -6.405367 0
M  V30 55 H 5.530705 7.660917 -12.860384 0
M  V30 56 H 7.217302 7.983799 -12.613683 0
M  V30 57 H 10.421910 5.740534 -6.232801 0
M  V30 58 H 10.169657 6.394694 -4.630044 0
M  V30 59 H 11.764681 6.488779 -5.368493 0
M  V30 60 H 8.897922 7.264849 -8.401823 0
M  V30 61 H 9.444789 8.677251 -9.179690 0
M  V30 62 H 11.192865 6.368657 -8.233666 0
M  V30 63 H 10.175371 7.080283 -11.202090 0
M  V30 64 H 8.592701 7.707487 -10.965061 0
M  V30 65 H 6.218029 6.391935 -11.005252 0
M  V30 66 H 5.786086 5.299126 -12.216080 0
M  V30 67 H 7.832132 3.536714 -14.677240 0
M  V30 68 H 6.436558 3.958516 -13.768956 0
M  V30 69 H 9.380983 3.996885 -8.467467 0
M  V30 70 H 7.774205 4.151593 -7.584236 0
M  V30 71 H 5.369754 7.940740 -21.266820 0
M  V30 72 H 6.989535 7.302958 -21.284882 0
M  V30 73 H 4.373707 8.389641 -19.191788 0
M  V30 END ATOM
M  V30 BEGIN BOND
M  V30 1 1 2 1
M  V30 2 1 6 3
M  V30 3 1 6 4
M  V30 4 1 8 2
M  V30 5 1 10 8
M  V30 6 1 12 5
M  V30 7 1 12 7
M  V30 8 1 13 9
M  V30 9 1 14 2
M  V30 10 1 15 14
M  V30 11 1 16 3
M  V30 12 1 18 11
M  V30 13 1 19 15
M  V30 14 2 20 8
M  V30 15 1 20 13
M  V30 16 1 21 18
M  V30 17 1 23 11
M  V30 18 1 23 12
M  V30 19 1 23 22
M  V30 20 1 24 10
M  V30 21 1 25 6
M  V30 22 1 25 22
M  V30 23 1 26 17
M  V30 24 1 27 14
M  V30 25 1 27 15
M  V30 26 1 27 20
M  V30 27 1 28 3
M  V30 28 1 28 19
M  V30 29 1 29 16
M  V30 30 1 27 29 CFG=1
M  V30 31 2 30 4
M  V30 32 1 31 17
M  V30 33 2 32 13
M  V30 34 1 33 17
M  V30 35 1 34 17
M  V30 36 1 34 24
M  V30 37 1 35 1
M  V30 38 2 35 24
M  V30 39 2 36 16
M  V30 40 1 37 1
M  V30 41 1 38 1
M  V30 42 1 2 39 CFG=3
M  V30 43 1 40 4
M  V30 44 1 41 5
M  V30 45 1 6 42 CFG=3
M  V30 46 1 43 7
M  V30 47 1 44 7
M  V30 48 1 45 7
M  V30 49 1 46 9
M  V30 50 1 47 9
M  V30 51 1 48 10
M  V30 52 1 49 10
M  V30 53 1 12 50 CFG=3
M  V30 54 1 14 51 CFG=1
M  V30 55 1 15 52 CFG=3
M  V30 56 1 53 18
M  V30 57 1 54 18
M  V30 58 1 55 19
M  V30 59 1 56 19
M  V30 60 1 57 21
M  V30 61 1 58 21
M  V30 62 1 59 21
M  V30 63 1 60 22
M  V30 64 1 61 22
M  V30 65 1 23 62 CFG=1
M  V30 66 1 63 25
M  V30 67 1 64 25
M  V30 68 1 65 28
M  V30 69 1 66 28
M  V30 70 1 67 29
M  V30 71 1 68 29
M  V30 72 1 69 30
M  V30 73 1 70 30
M  V30 74 1 71 34
M  V30 75 1 72 34
M  V30 76 1 73 35
M  V30 END BOND
M  V30 END CTAB
M  END
>  <i_epik_Tot_Q>  (1) 
0

>  <i_epik_Tot_abs_Q>  (1) 
0

>  <i_i_glide_confnum>  (1) 
874

>  <i_i_glide_lignum>  (1) 
30

>  <i_i_glide_posenum>  (1) 
236

>  <i_i_glide_rotatable_bonds>  (1) 
12

>  <i_lp_mmshare_version>  (1) 
72125

>  <i_m_source_file_index>  (1) 
7

>  <i_f3d_flags>  (1) 
0

>  <num_sample>  (1) 
50

>  <b_lp_Chiralities_Consistent>  (1) 
1

>  <r_epik_Charging_Adjusted_Penalty>  (1) 
0

>  <r_epik_Ionization_Penalty>  (1) 
7.0933553160111078e-06

>  <r_epik_Ionization_Penalty_Charging>  (1) 
0

>  <r_epik_Ionization_Penalty_Neutral>  (1) 
7.0933553160111078e-06

>  <r_epik_State_Penalty>  (1) 
-0

>  <r_glide_ring_energy>  (1) 
0

>  <r_i_docking_score>  (1) 
-4.9084929076043879

>  <r_i_glide_ecoul>  (1) 
1.1815178070999843

>  <r_i_glide_eff_state_penalty>  (1) 
-0

>  <r_i_glide_einternal>  (1) 
8.5188206235819095

>  <r_i_glide_emodel>  (1) 
-32.431054254652878

>  <r_i_glide_emodel_strain>  (1) 
4.3574429336471638

>  <r_i_glide_energy>  (1) 
-31.273997268180768

>  <r_i_glide_erotb>  (1) 
0.62865897288938211

>  <r_i_glide_esite>  (1) 
-0.022932785860611749

>  <r_i_glide_evdw>  (1) 
-32.455515075280751

>  <r_i_glide_gscore>  (1) 
-4.9084929076043879

>  <r_i_glide_gscore_strain>  (1) 
0.08936073341179096

>  <r_i_glide_hbond>  (1) 
0

>  <r_i_glide_ligand_efficiency>  (1) 
-0.13634702521123299

>  <r_i_glide_ligand_efficiency_ln>  (1) 
-1.0709005402861367

>  <r_i_glide_ligand_efficiency_sa>  (1) 
-0.45020795785069295

>  <r_i_glide_lipo>  (1) 
-2.7934621703441387

>  <r_i_glide_metal>  (1) 
-0

>  <r_i_glide_rewards>  (1) 
-1.3645695750017699

>  <r_lp_Energy>  (1) 
24.422612999999998

>  <r_lp_tautomer_probability>  (1) 
1

>  <s_epik_cmdline>  (1) 
J2VwaWtfcHl0aG9uJywgJy1waHQnLCAnMS4wJywgJy1waCcsICc3LjQnLCAnLXRuJywgJzgnLCAnLW1hJywgJzUwMCcsICctaW1hZScsICc8aW5maWxlLm1hZT4nLCAnLW9tYWUnLCAnPG91dGZpbGUubWFlPic=

>  <s_epik_input>  (1) 
RkMoRikoRilbQ0gyXUMoPVtDSF1bQ0gyXTEpW0NIMl1DKD1DMkMoPU8pW05IMl0pW0NASF0xW0NIXShbQ0BAXTIzNClbQ0BIXTNbQ0gyXVtDSDJdTihDKD1PKVtDSDJdNClbQ0BIXShbQ0hdPVtDSDJdKVtDSDJdW0NIMl1bQ0BASF0oW0NASF0oW09IXSlbQ0gzXSlPW0NIMl1bQ0gzXQ==

>  <s_glide_docking_method>  (1) 
confgen

>  <s_i_glide_gridfile>  (1) 
gpcr_drd2_6luq_protein_autoprepared_prepared

>  <s_lp_Force_Field>  (1) 
S-OPLS

>  <s_lp_Variant>  (1) 
DiffSBDD_6-1

>  <s_m_source_file>  (1) 
generated_generic_title2_ligand_DiffSBDD_2026-06-23_prepared.sdf

>  <GenAI_Model>  (1) 
DiffSBDD

>  <Protein>  (1) 
generic_title2

$$$$
DiffSBDD_7
     RDKit          3D

  0  0  0  0  0  0  0  0  0  0999 V3000
M  V30 BEGIN CTAB
M  V30 COUNTS 54 59 0 0 1
M  V30 BEGIN ATOM
M  V30 1 C 10.505225 7.336712 -7.057452 0
M  V30 2 C 4.751730 7.990019 -16.880107 0
M  V30 3 N 8.749705 5.357824 -9.364527 0
M  V30 4 C 8.801892 5.221940 -12.281274 0
M  V30 5 C 6.298309 6.337066 -18.041470 0 CFG=1
M  V30 6 F 8.556937 3.493776 -16.856378 0
M  V30 7 C 11.793721 8.727686 -8.600733 0
M  V30 8 N 10.272482 6.996251 -9.402881 0
M  V30 9 C 11.461943 8.395708 -7.332535 0
M  V30 10 C 6.384337 6.700448 -15.525196 0 CFG=1
M  V30 11 N 9.528678 6.134626 -11.524726 0
M  V30 12 C 5.489160 6.654305 -16.755776 0 CFG=1
M  V30 13 C 5.964647 7.129039 -14.177338 0 CFG=2
M  V30 14 C 8.171038 4.731073 -18.936135 0
M  V30 15 C 9.514252 6.158153 -10.233011 0
M  V30 16 N 9.061702 5.697579 -8.069389 0
M  V30 17 C 11.202931 8.033464 -9.830216 0
M  V30 18 C 7.776240 2.610462 -13.537195 0
M  V30 19 C 6.974438 4.973597 -18.039499 0 CFG=1
M  V30 20 C 6.909786 3.601807 -14.098763 0
M  V30 21 C 9.963893 6.697845 -8.108202 0
M  V30 22 C 6.900966 4.929869 -13.890630 0
M  V30 23 N 9.301214 3.940892 -12.141934 0
M  V30 24 S 7.375228 7.372330 -13.000617 0
M  V30 25 C 8.341900 4.729167 -17.439413 0 CFG=1
M  V30 26 N 10.175728 6.998702 -5.763793 0
M  V30 27 O 5.430053 6.335565 -19.157638 0
M  V30 28 C 7.769330 5.672596 -13.032160 0
M  V30 29 C 8.796018 2.792526 -12.701494 0
M  V30 30 N 5.977160 5.697173 -14.541557 0
M  V30 31 H 5.470658 8.790227 -17.026175 0
M  V30 32 H 4.056759 7.990221 -17.720279 0
M  V30 33 H 4.172370 8.221545 -15.986204 0
M  V30 34 H 7.054251 7.107689 -18.198559 0
M  V30 35 H 12.504486 9.514748 -8.784784 0
M  V30 36 H 11.916570 8.927515 -6.510217 0
M  V30 37 H 7.450092 6.634521 -15.705802 0
M  V30 38 H 4.734356 5.878268 -16.624165 0
M  V30 39 H 4.975446 7.450555 -13.877125 0
M  V30 40 H 8.225164 3.774276 -19.451670 0
M  V30 41 H 8.576794 5.579752 -19.483075 0
M  V30 42 H 8.447311 5.474804 -7.300813 0
M  V30 43 H 10.675689 8.764817 -10.440923 0
M  V30 44 H 11.999687 7.596616 -10.432071 0
M  V30 45 H 7.585408 1.590228 -13.836765 0
M  V30 46 H 6.274474 4.143187 -17.985144 0
M  V30 47 H 6.175397 3.230991 -14.786899 0
M  V30 48 H 8.916119 5.519346 -16.960397 0
M  V30 49 H 10.571874 7.478984 -4.971235 0
M  V30 50 H 9.499236 6.278132 -5.556961 0
M  V30 51 H 5.938760 6.148751 -19.932168 0
M  V30 52 H 9.355438 1.932006 -12.385140 0
M  V30 53 H 7.985920 4.728982 -9.567822 0
M  V30 54 H 10.101357 3.835020 -11.535940 0
M  V30 END ATOM
M  V30 BEGIN BOND
M  V30 1 1 9 1
M  V30 2 2 9 7
M  V30 3 1 11 4
M  V30 4 1 12 2
M  V30 5 1 12 5
M  V30 6 1 12 10
M  V30 7 1 13 10
M  V30 8 1 15 3
M  V30 9 1 15 8
M  V30 10 2 15 11
M  V30 11 1 16 3
M  V30 12 1 17 7
M  V30 13 1 17 8
M  V30 14 1 19 5
M  V30 15 1 19 14
M  V30 16 1 20 18
M  V30 17 2 21 1
M  V30 18 1 21 8
M  V30 19 1 21 16
M  V30 20 2 22 20
M  V30 21 1 23 4
M  V30 22 1 24 13
M  V30 23 1 25 6
M  V30 24 1 25 14
M  V30 25 1 25 19
M  V30 26 1 26 1
M  V30 27 1 27 5
M  V30 28 2 28 4
M  V30 29 1 28 22
M  V30 30 1 28 24
M  V30 31 2 29 18
M  V30 32 1 29 23
M  V30 33 1 30 10
M  V30 34 1 30 13
M  V30 35 1 30 22
M  V30 36 1 31 2
M  V30 37 1 32 2
M  V30 38 1 33 2
M  V30 39 1 5 34 CFG=3
M  V30 40 1 35 7
M  V30 41 1 36 9
M  V30 42 1 10 37 CFG=3
M  V30 43 1 12 38 CFG=1
M  V30 44 1 13 39 CFG=3
M  V30 45 1 40 14
M  V30 46 1 41 14
M  V30 47 1 42 16
M  V30 48 1 43 17
M  V30 49 1 44 17
M  V30 50 1 45 18
M  V30 51 1 19 46 CFG=1
M  V30 52 1 47 20
M  V30 53 1 25 48 CFG=3
M  V30 54 1 49 26
M  V30 55 1 50 26
M  V30 56 1 51 27
M  V30 57 1 52 29
M  V30 58 1 53 3
M  V30 59 1 54 23
M  V30 END BOND
M  V30 END CTAB
M  END
>  <i_epik_Tot_Q>  (1) 
0

>  <i_epik_Tot_abs_Q>  (1) 
0

>  <i_i_glide_confnum>  (1) 
91

>  <i_i_glide_lignum>  (1) 
31

>  <i_i_glide_posenum>  (1) 
340

>  <i_i_glide_rotatable_bonds>  (1) 
5

>  <i_lp_mmshare_version>  (1) 
72125

>  <i_m_source_file_index>  (1) 
8

>  <i_f3d_flags>  (1) 
0

>  <num_sample>  (1) 
50

>  <b_lp_Chiralities_Consistent>  (1) 
1

>  <r_epik_Charging_Adjusted_Penalty>  (1) 
6.333210498382379e-06

>  <r_epik_Ionization_Penalty>  (1) 
0.0013272624448344454

>  <r_epik_Ionization_Penalty_Charging>  (1) 
6.333210498382379e-06

>  <r_epik_Ionization_Penalty_Neutral>  (1) 
0.0013209292343360629

>  <r_epik_State_Penalty>  (1) 
-0

>  <r_glide_ring_energy>  (1) 
0

>  <r_i_docking_score>  (1) 
-4.9027705493258038

>  <r_i_glide_ecoul>  (1) 
-0.38189696467939677

>  <r_i_glide_eff_state_penalty>  (1) 
-0

>  <r_i_glide_einternal>  (1) 
1.5445251949575471

>  <r_i_glide_emodel>  (1) 
-45.78198598472396

>  <r_i_glide_emodel_strain>  (1) 
0.36271774769892318

>  <r_i_glide_energy>  (1) 
-37.926677276167446

>  <r_i_glide_erotb>  (1) 
0.43087853499794043

>  <r_i_glide_esite>  (1) 
-0.20025887378556639

>  <r_i_glide_evdw>  (1) 
-37.544780311488047

>  <r_i_glide_gscore>  (1) 
-4.9027705493258038

>  <r_i_glide_gscore_strain>  (1) 
0

>  <r_i_glide_hbond>  (1) 
0

>  <r_i_glide_ligand_efficiency>  (1) 
-0.1634256849775268

>  <r_i_glide_ligand_efficiency_ln>  (1) 
-1.1139628887705608

>  <r_i_glide_ligand_efficiency_sa>  (1) 
-0.50780160066994651

>  <r_i_glide_lipo>  (1) 
-2.4191849796142195

>  <r_i_glide_metal>  (1) 
-0

>  <r_i_glide_rewards>  (1) 
-0.77968167064764571

>  <r_lp_Energy>  (1) 
40.425478999999996

>  <r_lp_tautomer_probability>  (1) 
1

>  <s_epik_Chemistry_Notes>  (1) 
This compound has an imine and may undergo hydrolysis. This compound contains an acetal/aminal-like group ( X-CH(R)-Y where X, Y are N, S, or O) that may be acid/base labile, releasing an aldehyde.

>  <s_epik_cmdline>  (1) 
J2VwaWtfcHl0aG9uJywgJy1waHQnLCAnMS4wJywgJy1waCcsICc3LjQnLCAnLXRuJywgJzgnLCAnLW1hJywgJzUwMCcsICctaW1hZScsICc8aW5maWxlLm1hZT4nLCAnLW9tYWUnLCAnPG91dGZpbGUubWFlPic=

>  <s_epik_input>  (1) 
W0NIMl0xW0NIXT1bQ0hdQyhbTkgyXSk9QyhOMTIpW05IXU49QzJbTkhdQyg9TltDSF09W0NIXVtDSF09MylbQ0BASF0oUzQpQzNOKFtDQEBIXTQ1KVtDQEhdNVtDQEBIXShbQ0gzXSlbQ0BIXShbT0hdKVtDQEhdNltDSDJdW0NAQEhdNkY=

>  <s_glide_docking_method>  (1) 
confgen

>  <s_i_glide_gridfile>  (1) 
gpcr_drd2_6luq_protein_autoprepared_prepared

>  <s_lp_Force_Field>  (1) 
S-OPLS

>  <s_lp_Variant>  (1) 
DiffSBDD_7-1

>  <s_m_source_file>  (1) 
generated_generic_title2_ligand_DiffSBDD_2026-06-23_prepared.sdf

>  <GenAI_Model>  (1) 
DiffSBDD

>  <Protein>  (1) 
generic_title2

$$$$
DiffSBDD_2
     RDKit          3D

  0  0  0  0  0  0  0  0  0  0999 V3000
M  V30 BEGIN CTAB
M  V30 COUNTS 61 63 0 0 1
M  V30 BEGIN ATOM
M  V30 1 C 8.582301 5.398191 -10.245055 0 CFG=1
M  V30 2 C 5.963127 7.113183 -14.059835 0
M  V30 3 C 9.364954 4.285030 -10.967346 0
M  V30 4 C 3.851544 7.498062 -18.124682 0
M  V30 5 N 7.392841 2.695028 -17.996086 0
M  V30 6 C 6.056813 6.102595 -15.189281 0 CFG=2
M  V30 7 C 8.782266 7.284237 -11.851893 0
M  V30 8 C 7.396077 5.775611 -15.790671 0 CFG=2
M  V30 9 C 7.529418 0.266223 -17.965089 0
M  V30 10 C 7.377858 3.915390 -17.585607 0
M  V30 11 C 7.739391 1.584868 -17.230686 0
M  V30 12 C 5.838254 5.898963 -17.859602 0 CFG=1
M  V30 13 C 5.820831 6.485861 -12.655809 0
M  V30 14 C 6.983319 5.620281 -12.141054 0
M  V30 15 C 6.377439 6.564966 -16.596376 0 CFG=1
M  V30 16 C 6.653509 4.588996 -19.949918 0
M  V30 17 C 9.525872 8.125215 -10.820777 0
M  V30 18 C 10.340751 7.246307 -9.874341 0
M  V30 19 O 8.175407 1.584381 -16.078593 0
M  V30 20 C 5.123671 6.926289 -18.766838 0
M  V30 21 C 6.982058 5.077618 -18.519570 0 CFG=2
M  V30 22 C 9.442274 6.181024 -9.223264 0
M  V30 23 N 7.881642 6.319931 -11.185057 0 CFG=1 CHG=1
M  V30 24 C 7.732117 4.336141 -16.144367 0
M  V30 25 H 7.803111 4.900655 -9.664673 0
M  V30 26 H 6.818877 7.782874 -14.116722 0
M  V30 27 H 5.088420 7.734713 -14.252841 0
M  V30 28 H 9.775408 3.594139 -10.235598 0
M  V30 29 H 8.729180 3.677851 -11.610686 0
M  V30 30 H 10.175408 4.673876 -11.582578 0
M  V30 31 H 3.377775 8.225064 -18.785027 0
M  V30 32 H 3.122027 6.712158 -17.930630 0
M  V30 33 H 4.063444 7.990226 -17.176042 0
M  V30 34 H 5.357135 5.276835 -15.104765 0
M  V30 35 H 9.482254 6.762836 -12.505671 0
M  V30 36 H 8.207673 7.964214 -12.475840 0
M  V30 37 H 8.237714 6.332177 -15.386288 0
M  V30 38 H 8.047566 0.274749 -18.924369 0
M  V30 39 H 6.467371 0.101010 -18.146893 0
M  V30 40 H 7.909875 -0.570134 -17.377629 0
M  V30 41 H 5.062174 5.190232 -17.585017 0
M  V30 42 H 5.554825 7.248418 -11.921007 0
M  V30 43 H 4.975409 5.812333 -12.703994 0
M  V30 44 H 6.537571 4.774114 -11.615060 0
M  V30 45 H 7.551773 5.191286 -12.966633 0
M  V30 46 H 6.575408 7.628739 -16.708407 0
M  V30 47 H 7.458575 3.974566 -20.355529 0
M  V30 48 H 5.737493 3.997179 -19.972230 0
M  V30 49 H 6.537022 5.421473 -20.642225 0
M  V30 50 H 10.175413 8.790222 -11.365401 0
M  V30 51 H 8.842484 8.767130 -10.265142 0
M  V30 52 H 11.145444 6.790229 -10.444180 0
M  V30 53 H 10.816849 7.857868 -9.107146 0
M  V30 54 H 5.801536 7.736062 -19.035125 0
M  V30 55 H 4.815441 6.462436 -19.702186 0
M  V30 56 H 7.855250 5.725661 -18.612473 0
M  V30 57 H 10.046242 5.493115 -8.630027 0
M  V30 58 H 8.780809 6.676176 -8.510494 0
M  V30 59 H 7.192455 3.712766 -15.431711 0
M  V30 60 H 8.798671 4.179314 -15.978660 0
M  V30 61 H 7.314221 6.907082 -10.558522 0
M  V30 END ATOM
M  V30 BEGIN BOND
M  V30 1 1 3 1
M  V30 2 1 6 2
M  V30 3 1 8 6
M  V30 4 2 10 5
M  V30 5 1 11 5
M  V30 6 1 11 9
M  V30 7 1 13 2
M  V30 8 1 14 13
M  V30 9 1 15 6
M  V30 10 1 15 8
M  V30 11 1 15 12
M  V30 12 1 17 7
M  V30 13 1 18 17
M  V30 14 2 19 11
M  V30 15 1 20 4
M  V30 16 1 20 12
M  V30 17 1 21 10
M  V30 18 1 21 12
M  V30 19 1 21 16
M  V30 20 1 22 1
M  V30 21 1 22 18
M  V30 22 1 23 1
M  V30 23 1 23 7
M  V30 24 1 23 14
M  V30 25 1 24 8
M  V30 26 1 24 10
M  V30 27 1 1 25 CFG=1
M  V30 28 1 26 2
M  V30 29 1 27 2
M  V30 30 1 28 3
M  V30 31 1 29 3
M  V30 32 1 30 3
M  V30 33 1 31 4
M  V30 34 1 32 4
M  V30 35 1 33 4
M  V30 36 1 6 34 CFG=3
M  V30 37 1 35 7
M  V30 38 1 36 7
M  V30 39 1 8 37 CFG=1
M  V30 40 1 38 9
M  V30 41 1 39 9
M  V30 42 1 40 9
M  V30 43 1 12 41 CFG=1
M  V30 44 1 42 13
M  V30 45 1 43 13
M  V30 46 1 44 14
M  V30 47 1 45 14
M  V30 48 1 15 46 CFG=1
M  V30 49 1 47 16
M  V30 50 1 48 16
M  V30 51 1 49 16
M  V30 52 1 50 17
M  V30 53 1 51 17
M  V30 54 1 52 18
M  V30 55 1 53 18
M  V30 56 1 54 20
M  V30 57 1 55 20
M  V30 58 1 21 56 CFG=3
M  V30 59 1 57 22
M  V30 60 1 58 22
M  V30 61 1 59 24
M  V30 62 1 60 24
M  V30 63 1 23 61 CFG=1
M  V30 END BOND
M  V30 END CTAB
M  END
>  <i_epik_Tot_Q>  (1) 
1

>  <i_epik_Tot_abs_Q>  (1) 
1

>  <i_i_glide_confnum>  (1) 
117

>  <i_i_glide_lignum>  (1) 
21

>  <i_i_glide_posenum>  (1) 
238

>  <i_i_glide_rotatable_bonds>  (1) 
6

>  <i_lp_mmshare_version>  (1) 
72125

>  <i_m_source_file_index>  (1) 
3

>  <i_f3d_flags>  (1) 
0

>  <num_sample>  (1) 
50

>  <b_lp_Chiralities_Consistent>  (1) 
1

>  <r_epik_Charging_Adjusted_Penalty>  (1) 
0.0011657924221308697

>  <r_epik_Ionization_Penalty>  (1) 
0.0011657924221308697

>  <r_epik_Ionization_Penalty_Charging>  (1) 
0.0011657924221308697

>  <r_epik_Ionization_Penalty_Neutral>  (1) 
0

>  <r_epik_State_Penalty>  (1) 
-0

>  <r_glide_ring_energy>  (1) 
0

>  <r_i_docking_score>  (1) 
-4.8960894903444752

>  <r_i_glide_ecoul>  (1) 
-6.1431907649528599

>  <r_i_glide_eff_state_penalty>  (1) 
-0

>  <r_i_glide_einternal>  (1) 
5.7208256146205763

>  <r_i_glide_emodel>  (1) 
-35.682105089159712

>  <r_i_glide_emodel_strain>  (1) 
0

>  <r_i_glide_energy>  (1) 
-28.003745642487495

>  <r_i_glide_erotb>  (1) 
0.84713914833173298

>  <r_i_glide_esite>  (1) 
-0.10000000000000001

>  <r_i_glide_evdw>  (1) 
-21.860554877534636

>  <r_i_glide_gscore>  (1) 
-4.8960894903444752

>  <r_i_glide_gscore_strain>  (1) 
0

>  <r_i_glide_hbond>  (1) 
-0.19577585767630828

>  <r_i_glide_ligand_efficiency>  (1) 
-0.20400372876435313

>  <r_i_glide_ligand_efficiency_ln>  (1) 
-1.1718588819466533

>  <r_i_glide_ligand_efficiency_sa>  (1) 
-0.58844858030299474

>  <r_i_glide_lipo>  (1) 
-1.5847278558411269

>  <r_i_glide_metal>  (1) 
-0

>  <r_i_glide_rewards>  (1) 
-1.8482185665391131

>  <r_lp_Energy>  (1) 
45.776719999999997

>  <r_lp_tautomer_probability>  (1) 
1

>  <s_epik_Chemistry_Notes>  (1) 
This compound has an imine and may undergo hydrolysis.

>  <s_epik_cmdline>  (1) 
J2VwaWtfcHl0aG9uJywgJy1waHQnLCAnMS4wJywgJy1waCcsICc3LjQnLCAnLXRuJywgJzgnLCAnLW1hJywgJzUwMCcsICctaW1hZScsICc8aW5maWxlLm1hZT4nLCAnLW9tYWUnLCAnPG91dGZpbGUubWFlPic=

>  <s_epik_input>  (1) 
W0NIM11bQ0BIXTFbQ0gyXVtDSDJdW0NIMl1bQ0gyXU4xW0NIMl1bQ0gyXVtDSDJdW0NASF0yW0NAQEhdKFtDQEBIXTIzKVtDQEBIXShbQ0gyXVtDSDNdKVtDQEhdKFtDSDNdKVxDKFtDSDJdMyk9TlxDKD1PKVtDSDNd

>  <s_glide_docking_method>  (1) 
confgen

>  <s_i_glide_gridfile>  (1) 
gpcr_drd2_6luq_protein_autoprepared_prepared

>  <s_lp_Force_Field>  (1) 
S-OPLS

>  <s_lp_Variant>  (1) 
DiffSBDD_2-1

>  <s_m_source_file>  (1) 
generated_generic_title2_ligand_DiffSBDD_2026-06-23_prepared.sdf

>  <GenAI_Model>  (1) 
DiffSBDD

>  <Protein>  (1) 
generic_title2

$$$$
DiffSBDD_38
     RDKit          3D

  0  0  0  0  0  0  0  0  0  0999 V3000
M  V30 BEGIN CTAB
M  V30 COUNTS 55 57 0 0 1
M  V30 BEGIN ATOM
M  V30 1 C 8.999163 8.187931 -11.594198 0
M  V30 2 C 10.265089 7.175823 -8.525948 0
M  V30 3 N 9.795085 6.648595 -9.811494 0
M  V30 4 C 5.508409 7.113396 -15.217056 0 CFG=2
M  V30 5 C 4.626222 7.733921 -16.284304 0 CFG=1
M  V30 6 C 6.128514 7.831888 -16.385025 0
M  V30 7 C 8.019282 7.368023 -12.432499 0
M  V30 8 C 6.354443 5.439821 -12.657499 0
M  V30 9 C 7.035669 3.631514 -14.306912 0
M  V30 10 C 11.194140 8.165303 -8.447354 0
M  V30 11 C 9.602111 6.589906 -7.272101 0
M  V30 12 C 6.742610 5.129183 -14.124187 0 CFG=1
M  V30 13 C 11.219668 7.946561 -5.906062 0
M  V30 14 C 7.434652 6.094000 -11.784264 0 CFG=1
M  V30 15 C 5.630061 5.609756 -15.064616 0
M  V30 16 C 10.176789 7.355815 -11.062276 0
M  V30 17 C 9.775412 7.496281 -6.054691 0
M  V30 18 C 8.512419 5.107359 -11.302997 0
M  V30 19 C 3.834591 6.904084 -17.275679 0
M  V30 20 C 11.696138 8.744141 -7.133319 0
M  V30 21 C 9.020771 5.500209 -9.904600 0
M  V30 22 O 8.724933 4.790227 -8.947017 0
M  V30 23 H 9.375410 8.967323 -12.252909 0
M  V30 24 H 8.498674 8.715283 -10.785025 0
M  V30 25 H 5.490741 7.648288 -14.272465 0
M  V30 26 H 4.104871 8.636346 -15.973056 0
M  V30 27 H 6.575412 8.798795 -16.183017 0
M  V30 28 H 6.615776 7.234557 -17.152878 0
M  V30 29 H 8.564043 7.105197 -13.332199 0
M  V30 30 H 7.201805 8.010825 -12.747210 0
M  V30 31 H 5.978437 4.539882 -12.168110 0
M  V30 32 H 5.497234 6.113064 -12.634061 0
M  V30 33 H 6.175405 3.017856 -14.042413 0
M  V30 34 H 7.302713 3.403931 -15.339174 0
M  V30 35 H 7.869428 3.317095 -13.678553 0
M  V30 36 H 11.633080 8.583708 -9.326970 0
M  V30 37 H 8.523685 6.492680 -7.386278 0
M  V30 38 H 10.039432 5.615842 -7.047961 0
M  V30 39 H 7.648528 5.640875 -14.432422 0
M  V30 40 H 11.359872 8.525666 -4.992971 0
M  V30 41 H 11.788011 7.028602 -5.792615 0
M  V30 42 H 6.873513 6.390227 -10.900441 0
M  V30 43 H 5.775410 5.190227 -16.056315 0
M  V30 44 H 4.692948 5.259218 -14.647249 0
M  V30 45 H 11.047062 7.990227 -11.025223 0
M  V30 46 H 10.516935 6.653027 -11.820909 0
M  V30 47 H 9.111355 8.359549 -6.122061 0
M  V30 48 H 9.483810 6.920353 -5.185025 0
M  V30 49 H 9.306932 4.951938 -12.031432 0
M  V30 50 H 8.059695 4.121750 -11.188806 0
M  V30 51 H 4.449789 6.117107 -17.710898 0
M  V30 52 H 2.975412 6.447287 -16.785025 0
M  V30 53 H 3.472210 7.540553 -18.083257 0
M  V30 54 H 12.785543 8.773435 -7.161202 0
M  V30 55 H 11.375410 9.780693 -7.057559 0
M  V30 END ATOM
M  V30 BEGIN BOND
M  V30 1 1 3 2
M  V30 2 1 5 4
M  V30 3 1 6 4
M  V30 4 1 6 5
M  V30 5 1 7 1
M  V30 6 2 10 2
M  V30 7 1 11 2
M  V30 8 1 12 8
M  V30 9 1 12 9
M  V30 10 1 14 7
M  V30 11 1 14 8
M  V30 12 1 15 4
M  V30 13 1 15 12
M  V30 14 1 16 1
M  V30 15 1 16 3
M  V30 16 1 17 11
M  V30 17 1 17 13
M  V30 18 1 18 14
M  V30 19 1 19 5
M  V30 20 1 20 10
M  V30 21 1 20 13
M  V30 22 1 21 3
M  V30 23 1 21 18
M  V30 24 2 22 21
M  V30 25 1 23 1
M  V30 26 1 24 1
M  V30 27 1 4 25 CFG=1
M  V30 28 1 5 26 CFG=1
M  V30 29 1 27 6
M  V30 30 1 28 6
M  V30 31 1 29 7
M  V30 32 1 30 7
M  V30 33 1 31 8
M  V30 34 1 32 8
M  V30 35 1 33 9
M  V30 36 1 34 9
M  V30 37 1 35 9
M  V30 38 1 36 10
M  V30 39 1 37 11
M  V30 40 1 38 11
M  V30 41 1 12 39 CFG=3
M  V30 42 1 40 13
M  V30 43 1 41 13
M  V30 44 1 14 42 CFG=1
M  V30 45 1 43 15
M  V30 46 1 44 15
M  V30 47 1 45 16
M  V30 48 1 46 16
M  V30 49 1 47 17
M  V30 50 1 48 17
M  V30 51 1 49 18
M  V30 52 1 50 18
M  V30 53 1 51 19
M  V30 54 1 52 19
M  V30 55 1 53 19
M  V30 56 1 54 20
M  V30 57 1 55 20
M  V30 END BOND
M  V30 END CTAB
M  END
>  <i_epik_Tot_Q>  (1) 
0

>  <i_epik_Tot_abs_Q>  (1) 
0

>  <i_i_glide_confnum>  (1) 
306

>  <i_i_glide_lignum>  (1) 
104

>  <i_i_glide_posenum>  (1) 
378

>  <i_i_glide_rotatable_bonds>  (1) 
5

>  <i_lp_mmshare_version>  (1) 
72125

>  <i_m_source_file_index>  (1) 
39

>  <i_f3d_flags>  (1) 
0

>  <num_sample>  (1) 
50

>  <b_lp_Chiralities_Consistent>  (1) 
1

>  <r_epik_Charging_Adjusted_Penalty>  (1) 
0

>  <r_epik_Ionization_Penalty>  (1) 
3.750095861585333e-08

>  <r_epik_Ionization_Penalty_Charging>  (1) 
0

>  <r_epik_Ionization_Penalty_Neutral>  (1) 
3.750095861585333e-08

>  <r_epik_State_Penalty>  (1) 
-0

>  <r_glide_ring_energy>  (1) 
0.00030315173059249431

>  <r_i_docking_score>  (1) 
-4.8932590421361564

>  <r_i_glide_ecoul>  (1) 
-0.24146687708052006

>  <r_i_glide_eff_state_penalty>  (1) 
-0

>  <r_i_glide_einternal>  (1) 
8.2077786273395148

>  <r_i_glide_emodel>  (1) 
-32.388209649353215

>  <r_i_glide_emodel_strain>  (1) 
0.06379293031791633

>  <r_i_glide_energy>  (1) 
-29.384219207335345

>  <r_i_glide_erotb>  (1) 
1.0003538244760346

>  <r_i_glide_esite>  (1) 
-0.14077569135215373

>  <r_i_glide_evdw>  (1) 
-29.142752330254826

>  <r_i_glide_gscore>  (1) 
-4.8932590421361564

>  <r_i_glide_gscore_strain>  (1) 
0

>  <r_i_glide_hbond>  (1) 
0

>  <r_i_glide_ligand_efficiency>  (1) 
-0.22242086555164348

>  <r_i_glide_ligand_efficiency_ln>  (1) 
-1.196090995858355

>  <r_i_glide_ligand_efficiency_sa>  (1) 
-0.62323201323411903

>  <r_i_glide_lipo>  (1) 
-2.0196530044579428

>  <r_i_glide_metal>  (1) 
-0

>  <r_i_glide_rewards>  (1) 
-2.2398265227272738

>  <r_lp_Energy>  (1) 
35.882517999999997

>  <r_lp_tautomer_probability>  (1) 
1

>  <s_epik_cmdline>  (1) 
J2VwaWtfcHl0aG9uJywgJy1waHQnLCAnMS4wJywgJy1waCcsICc3LjQnLCAnLXRuJywgJzgnLCAnLW1hJywgJzUwMCcsICctaW1hZScsICc8aW5maWxlLm1hZT4nLCAnLW9tYWUnLCAnPG91dGZpbGUubWFlPic=

>  <s_epik_input>  (1) 
W0NIMl0xW0NIMl1bQ0gyXVtDSDJdW0NIXT1DMU4yW0NIMl1bQ0gyXVtDSDJdW0NASF0oW0NIMl1DMj1PKVtDSDJdW0NASF0oW0NIM10pW0NIMl1bQ0BASF0zW0NAQEhdKFtDSDJdMylbQ0gzXQ==

>  <s_glide_docking_method>  (1) 
confgen

>  <s_i_glide_gridfile>  (1) 
gpcr_drd2_6luq_protein_autoprepared_prepared

>  <s_lp_Force_Field>  (1) 
S-OPLS

>  <s_lp_Variant>  (1) 
DiffSBDD_38-2

>  <s_m_source_file>  (1) 
generated_generic_title2_ligand_DiffSBDD_2026-06-23_prepared.sdf

>  <GenAI_Model>  (1) 
DiffSBDD

>  <Protein>  (1) 
generic_title2

$$$$
DiffSBDD_8
     RDKit          3D

  0  0  0  0  0  0  0  0  0  0999 V3000
M  V30 BEGIN CTAB
M  V30 COUNTS 69 72 0 0 1
M  V30 BEGIN ATOM
M  V30 1 N 5.957550 6.097654 -17.174090 0
M  V30 2 C 5.754791 7.889603 -20.473219 0
M  V30 3 C 8.367676 5.077951 -14.115145 0 CFG=1
M  V30 4 N 5.249245 6.029926 -21.751049 0
M  V30 5 O 5.376119 5.929070 -13.390915 0
M  V30 6 C 9.409031 7.840370 -11.729439 0
M  V30 7 F 5.536726 4.340039 -20.232755 0
M  V30 8 C 10.513423 7.670430 -10.698293 0
M  V30 9 N 8.381495 6.792527 -11.585856 0 CHG=1
M  V30 10 C 7.297274 6.869339 -12.567403 0 CFG=1
M  V30 11 C 5.090872 5.585697 -20.381730 0 CFG=1
M  V30 12 C 11.381496 8.132339 -5.389131 0
M  V30 13 C 7.620411 6.396890 -13.989787 0 CFG=2
M  V30 14 O 6.440296 4.789583 -11.680854 0
M  V30 15 O 4.212067 5.397552 -22.508746 0
M  V30 16 C 9.930449 7.601455 -9.287665 0
M  V30 17 C 5.648524 7.514214 -15.149312 0
M  V30 18 C 7.027342 5.139844 -17.433331 0
M  V30 19 C 5.473912 6.166604 -15.828901 0 CFG=2
M  V30 20 C 5.911036 6.622885 -19.606740 0 CFG=2
M  V30 21 C 5.356207 6.789598 -18.177986 0
M  V30 22 C 9.402467 4.972969 -15.208136 0
M  V30 23 C 6.069099 6.050627 -12.193093 0 CFG=2
M  V30 24 C 6.208473 6.284069 -14.498041 0 CFG=2
M  V30 25 O 10.175690 8.829814 -5.587077 0
M  V30 26 O 4.392504 7.528920 -17.980735 0
M  V30 27 C 11.216380 6.697973 -5.932944 0
M  V30 28 C 4.881616 4.477134 -23.352641 0
M  V30 29 C 4.924323 7.443299 -21.679397 0
M  V30 30 O 10.537078 6.705251 -7.179085 0
M  V30 31 C 10.982519 7.417962 -8.219178 0
M  V30 32 N 9.775303 5.193242 -13.825243 0
M  V30 33 O 12.111348 7.901885 -8.321282 0
M  V30 34 H 5.285627 8.735589 -19.969018 0
M  V30 35 H 6.740849 8.224307 -20.799478 0
M  V30 36 H 7.861239 4.175355 -13.779492 0
M  V30 37 H 8.942451 8.817609 -11.620478 0
M  V30 38 H 9.850575 7.799115 -12.717147 0
M  V30 39 H 11.218395 8.491895 -10.768482 0
M  V30 40 H 11.104014 6.792052 -10.930662 0
M  V30 41 H 8.791098 5.871764 -11.641843 0
M  V30 42 H 6.966024 7.908195 -12.610911 0
M  V30 43 H 4.039955 5.588923 -20.090850 0
M  V30 44 H 12.174618 8.687424 -5.892068 0
M  V30 45 H 11.631038 8.115254 -4.328512 0
M  V30 46 H 8.166038 7.162655 -14.537888 0
M  V30 47 H 5.661307 4.373545 -11.343309 0
M  V30 48 H 9.219238 6.781257 -9.195121 0
M  V30 49 H 9.382366 8.517150 -9.072398 0
M  V30 50 H 4.860877 8.009356 -14.605601 0
M  V30 51 H 6.357943 8.199425 -15.607585 0
M  V30 52 H 6.736970 4.409007 -18.186559 0
M  V30 53 H 7.929120 5.648049 -17.768417 0
M  V30 54 H 7.246814 4.552139 -16.545599 0
M  V30 55 H 4.567080 5.601024 -15.696315 0
M  V30 56 H 6.968442 6.360863 -19.633032 0
M  V30 57 H 9.588224 3.999837 -15.654674 0
M  V30 58 H 9.535335 5.809296 -15.891332 0
M  V30 59 H 5.449126 6.546636 -11.441851 0
M  V30 60 H 9.462584 8.206328 -5.602141 0
M  V30 61 H 12.176337 6.193088 -6.042715 0
M  V30 62 H 10.622008 6.107218 -5.233503 0
M  V30 63 H 4.175563 4.000405 -24.024738 0
M  V30 64 H 5.636922 4.978462 -23.961008 0
M  V30 65 H 5.364873 3.686495 -22.774539 0
M  V30 66 H 3.857123 7.582657 -21.494146 0
M  V30 67 H 5.192259 7.968577 -22.596031 0
M  V30 68 H 10.312265 4.423794 -13.432629 0
M  V30 69 H 7.944877 6.919798 -10.671739 0
M  V30 END ATOM
M  V30 BEGIN BOND
M  V30 1 1 8 6
M  V30 2 1 9 6
M  V30 3 1 10 9
M  V30 4 1 11 4
M  V30 5 1 11 7
M  V30 6 1 13 3
M  V30 7 1 13 10
M  V30 8 1 15 4
M  V30 9 1 16 8
M  V30 10 1 18 1
M  V30 11 1 19 1
M  V30 12 1 19 17
M  V30 13 1 20 2
M  V30 14 1 20 11
M  V30 15 1 21 1
M  V30 16 1 21 20
M  V30 17 1 22 3
M  V30 18 1 23 5
M  V30 19 1 23 10
M  V30 20 1 23 14
M  V30 21 1 24 5 CFG=1
M  V30 22 1 24 13
M  V30 23 1 24 17
M  V30 24 1 24 19
M  V30 25 1 25 12
M  V30 26 2 26 21
M  V30 27 1 27 12
M  V30 28 1 28 15
M  V30 29 1 29 2
M  V30 30 1 29 4
M  V30 31 1 30 27
M  V30 32 1 31 16
M  V30 33 1 31 30
M  V30 34 1 32 3
M  V30 35 1 32 22
M  V30 36 2 33 31
M  V30 37 1 34 2
M  V30 38 1 35 2
M  V30 39 1 3 36 CFG=1
M  V30 40 1 37 6
M  V30 41 1 38 6
M  V30 42 1 39 8
M  V30 43 1 40 8
M  V30 44 1 41 9
M  V30 45 1 10 42 CFG=3
M  V30 46 1 11 43 CFG=1
M  V30 47 1 44 12
M  V30 48 1 45 12
M  V30 49 1 13 46 CFG=3
M  V30 50 1 47 14
M  V30 51 1 48 16
M  V30 52 1 49 16
M  V30 53 1 50 17
M  V30 54 1 51 17
M  V30 55 1 52 18
M  V30 56 1 53 18
M  V30 57 1 54 18
M  V30 58 1 19 55 CFG=1
M  V30 59 1 20 56 CFG=1
M  V30 60 1 57 22
M  V30 61 1 58 22
M  V30 62 1 23 59 CFG=1
M  V30 63 1 60 25
M  V30 64 1 61 27
M  V30 65 1 62 27
M  V30 66 1 63 28
M  V30 67 1 64 28
M  V30 68 1 65 28
M  V30 69 1 66 29
M  V30 70 1 67 29
M  V30 71 1 68 32
M  V30 72 1 69 9
M  V30 END BOND
M  V30 END CTAB
M  END
>  <i_epik_Tot_Q>  (1) 
1

>  <i_epik_Tot_abs_Q>  (1) 
1

>  <i_i_glide_confnum>  (1) 
3964

>  <i_i_glide_lignum>  (1) 
35

>  <i_i_glide_posenum>  (1) 
100

>  <i_i_glide_rotatable_bonds>  (1) 
15

>  <i_lp_mmshare_version>  (1) 
72125

>  <i_m_source_file_index>  (1) 
9

>  <i_f3d_flags>  (1) 
0

>  <num_sample>  (1) 
50

>  <b_lp_Chiralities_Consistent>  (1) 
1

>  <r_epik_Charging_Adjusted_Penalty>  (1) 
0.31458683345696248

>  <r_epik_Ionization_Penalty>  (1) 
0.14300301403106822

>  <r_epik_Ionization_Penalty_Charging>  (1) 
0.065080964065447874

>  <r_epik_Ionization_Penalty_Neutral>  (1) 
0.077922049965620341

>  <r_epik_State_Penalty>  (1) 
0.24950586939151459

>  <r_glide_ring_energy>  (1) 
0.39280565251889082

>  <r_i_docking_score>  (1) 
-4.8896721412714275

>  <r_i_glide_ecoul>  (1) 
-7.8811992746686892

>  <r_i_glide_eff_state_penalty>  (1) 
0.24950586939151459

>  <r_i_glide_einternal>  (1) 
60.726493912746776

>  <r_i_glide_emodel>  (1) 
-15.422460099236247

>  <r_i_glide_emodel_strain>  (1) 
6.1980656437333721

>  <r_i_glide_energy>  (1) 
-38.212514757619317

>  <r_i_glide_erotb>  (1) 
1.0741905119875848

>  <r_i_glide_esite>  (1) 
-0.14678688532798634

>  <r_i_glide_evdw>  (1) 
-30.331315482950625

>  <r_i_glide_gscore>  (1) 
-5.1391780106629419

>  <r_i_glide_gscore_strain>  (1) 
0.54951641093334302

>  <r_i_glide_hbond>  (1) 
-0.37806621192376511

>  <r_i_glide_ligand_efficiency>  (1) 
-0.14817188306883114

>  <r_i_glide_ligand_efficiency_ln>  (1) 
-1.0874377668513744

>  <r_i_glide_ligand_efficiency_sa>  (1) 
-0.47526640168340323

>  <r_i_glide_lipo>  (1) 
-2.0155972281472732

>  <r_i_glide_metal>  (1) 
-0

>  <r_i_glide_rewards>  (1) 
-1.5236889428370095

>  <r_lp_Energy>  (1) 
35.996015

>  <s_epik_Chemistry_Notes>  (1) 
This compound has an ester and may undergo hydrolysis at high or low pH. This compound contains an acetal/aminal-like group ( X-CH(R)-Y where X, Y are N, S, or O) that may be acid/base labile, releasing an aldehyde. This compound has a N-S or N-O group and may undergo hydrolysis at high or low pH.

>  <s_epik_cmdline>  (1) 
J2VwaWtfcHl0aG9uJywgJy1waHQnLCAnMS4wJywgJy1waCcsICc3LjQnLCAnLXRuJywgJzgnLCAnLW1hJywgJzUwMCcsICctaW1hZScsICc8aW5maWxlLm1hZT4nLCAnLW9tYWUnLCAnPG91dGZpbGUubWFlPic=

>  <s_epik_input>  (1) 
W0NIM11PTjFbQ0BIXShGKVtDQEBIXShbQ0gyXVtDSDJdMSlDKD1PKU4oW0NIM10pW0NASF0yW0NIMl1DMjNPW0NAQEhdKFtPSF0pW0NASF0oW0NASF0zW0NASF00W0NIMl1bTkhdNClbTkhdW0NIMl1bQ0gyXVtDSDJdQyg9TylPW0NIMl1bQ0gyXVtPSF0=

>  <s_glide_docking_method>  (1) 
confgen

>  <s_i_glide_gridfile>  (1) 
gpcr_drd2_6luq_protein_autoprepared_prepared

>  <s_lp_Force_Field>  (1) 
S-OPLS

>  <s_lp_Variant>  (1) 
DiffSBDD_8-4

>  <s_m_source_file>  (1) 
generated_generic_title2_ligand_DiffSBDD_2026-06-23_prepared.sdf

>  <GenAI_Model>  (1) 
DiffSBDD

>  <Protein>  (1) 
generic_title2

$$$$
DiffSBDD_0
     RDKit          3D

  0  0  0  0  0  0  0  0  0  0999 V3000
M  V30 BEGIN CTAB
M  V30 COUNTS 70 74 0 0 1
M  V30 BEGIN ATOM
M  V30 1 C 11.569577 6.479817 -5.308939 0
M  V30 2 N 7.830632 4.049180 -12.255900 0
M  V30 3 C 7.005572 7.350663 -14.329686 0 CFG=1
M  V30 4 C 7.749785 4.816922 -9.925327 0
M  V30 5 F 12.195034 7.590276 -8.815814 0
M  V30 6 C 9.069423 4.709563 -12.594031 0
M  V30 7 C 10.093725 6.788998 -5.323603 0
M  V30 8 C 9.546117 5.845895 -8.770368 0
M  V30 9 C 10.337407 8.084344 -7.490340 0 CFG=1
M  V30 10 C 5.741421 6.825929 -16.639583 0
M  V30 11 C 7.077554 3.637777 -13.417702 0 CFG=2
M  V30 12 C 6.506973 0.689118 -14.349612 0
M  V30 13 C 5.908076 7.585290 -15.359345 0 CFG=1
M  V30 14 O 8.922747 5.511258 -9.990349 0
M  V30 15 C 11.797636 7.625701 -7.543828 0 CFG=1
M  V30 16 C 5.572133 7.064751 -13.968311 0 CFG=1
M  V30 17 N 7.697414 6.034555 -14.219012 0 CFG=2 CHG=1
M  V30 18 C 9.384570 7.342995 -8.455907 0
M  V30 19 C 6.335275 1.427282 -13.004845 0
M  V30 20 C 6.659914 4.938865 -14.169775 0 CFG=2
M  V30 21 O 7.737226 -0.009633 -14.389858 0
M  V30 22 C 9.831625 8.123003 -6.032470 0
M  V30 23 N 6.768796 6.171081 -17.261083 0
M  V30 24 C 8.633497 6.093098 -13.045103 0
M  V30 25 N 4.564147 6.789837 -17.263051 0
M  V30 26 O 4.828033 6.076217 -18.440511 0
M  V30 27 C 6.123561 5.736181 -18.332375 0
M  V30 28 O 5.984540 2.802326 -13.185652 0
M  V30 29 N 6.603866 4.951594 -19.366298 0
M  V30 30 C 7.242617 4.147363 -10.985079 0
M  V30 31 C 11.980160 6.301520 -6.760202 0
M  V30 32 C 5.947131 4.414619 -20.544826 0
M  V30 33 C 5.413166 5.610272 -13.595408 0
M  V30 34 H 12.116221 7.281387 -4.807279 0
M  V30 35 H 11.769000 5.590106 -4.724274 0
M  V30 36 H 7.517533 8.201803 -13.885927 0
M  V30 37 H 7.284904 4.874050 -8.954841 0
M  V30 38 H 9.818670 4.703796 -11.807695 0
M  V30 39 H 9.551945 4.190447 -13.421463 0
M  V30 40 H 9.775411 6.790055 -4.303405 0
M  V30 41 H 9.526978 5.990264 -5.798149 0
M  V30 42 H 9.243028 5.202037 -7.943129 0
M  V30 43 H 10.575316 5.626803 -9.004994 0
M  V30 44 H 10.326724 9.120768 -7.823279 0
M  V30 45 H 7.773279 3.082835 -14.050886 0
M  V30 46 H 6.476944 1.383862 -15.189403 0
M  V30 47 H 5.690335 -0.019449 -14.495086 0
M  V30 48 H 5.654605 8.624550 -15.563170 0
M  V30 49 H 12.420393 8.396413 -7.089644 0
M  V30 50 H 5.053847 7.761035 -13.310866 0
M  V30 51 H 9.367153 7.893465 -9.397650 0
M  V30 52 H 8.425919 7.419716 -7.984972 0
M  V30 53 H 5.539652 0.937247 -12.444885 0
M  V30 54 H 7.226558 1.334439 -12.385029 0
M  V30 55 H 6.429206 4.626866 -15.186300 0
M  V30 56 H 7.600819 -0.859785 -14.791058 0
M  V30 57 H 10.353763 8.916521 -5.496963 0
M  V30 58 H 8.772914 8.382280 -5.988802 0
M  V30 59 H 8.107288 6.571561 -12.215651 0
M  V30 60 H 9.508583 6.719861 -13.185003 0
M  V30 61 H 7.577053 4.696580 -19.286682 0
M  V30 62 H 6.300564 3.621737 -10.908183 0
M  V30 63 H 12.975411 5.919813 -6.785011 0
M  V30 64 H 11.412710 5.470181 -7.152756 0
M  V30 65 H 6.653298 3.858016 -21.161604 0
M  V30 66 H 5.143594 3.739992 -20.250960 0
M  V30 67 H 5.518513 5.215439 -21.146463 0
M  V30 68 H 5.383967 5.537639 -12.508831 0
M  V30 69 H 4.490190 5.190609 -13.985570 0
M  V30 70 H 8.253660 5.881976 -15.048554 0
M  V30 END ATOM
M  V30 BEGIN BOND
M  V30 1 1 6 2
M  V30 2 1 7 1
M  V30 3 1 11 2
M  V30 4 1 13 3
M  V30 5 1 13 10
M  V30 6 1 14 4
M  V30 7 1 14 8
M  V30 8 1 15 5
M  V30 9 1 15 9
M  V30 10 1 16 3
M  V30 11 1 16 13
M  V30 12 1 17 3
M  V30 13 1 18 8
M  V30 14 1 18 9
M  V30 15 1 19 12
M  V30 16 1 20 11
M  V30 17 1 20 17
M  V30 18 1 21 12
M  V30 19 1 22 7
M  V30 20 1 22 9
M  V30 21 1 23 10
M  V30 22 1 24 6
M  V30 23 1 24 17
M  V30 24 2 25 10
M  V30 25 1 26 25
M  V30 26 2 27 23
M  V30 27 1 27 26
M  V30 28 1 28 11
M  V30 29 1 28 19
M  V30 30 1 29 27
M  V30 31 1 30 2
M  V30 32 2 30 4
M  V30 33 1 31 1
M  V30 34 1 31 15
M  V30 35 1 32 29
M  V30 36 1 33 16
M  V30 37 1 33 20
M  V30 38 1 34 1
M  V30 39 1 35 1
M  V30 40 1 3 36 CFG=1
M  V30 41 1 37 4
M  V30 42 1 38 6
M  V30 43 1 39 6
M  V30 44 1 40 7
M  V30 45 1 41 7
M  V30 46 1 42 8
M  V30 47 1 43 8
M  V30 48 1 9 44 CFG=3
M  V30 49 1 11 45 CFG=3
M  V30 50 1 46 12
M  V30 51 1 47 12
M  V30 52 1 13 48 CFG=3
M  V30 53 1 15 49 CFG=1
M  V30 54 1 16 50 CFG=1
M  V30 55 1 51 18
M  V30 56 1 52 18
M  V30 57 1 53 19
M  V30 58 1 54 19
M  V30 59 1 20 55 CFG=3
M  V30 60 1 56 21
M  V30 61 1 57 22
M  V30 62 1 58 22
M  V30 63 1 59 24
M  V30 64 1 60 24
M  V30 65 1 61 29
M  V30 66 1 62 30
M  V30 67 1 63 31
M  V30 68 1 64 31
M  V30 69 1 65 32
M  V30 70 1 66 32
M  V30 71 1 67 32
M  V30 72 1 68 33
M  V30 73 1 69 33
M  V30 74 1 17 70 CFG=3
M  V30 END BOND
M  V30 END CTAB
M  END
>  <i_epik_Tot_Q>  (1) 
1

>  <i_epik_Tot_abs_Q>  (1) 
1

>  <i_i_glide_confnum>  (1) 
699

>  <i_i_glide_lignum>  (1) 
11

>  <i_i_glide_posenum>  (1) 
179

>  <i_i_glide_rotatable_bonds>  (1) 
11

>  <i_lp_mmshare_version>  (1) 
72125

>  <i_m_source_file_index>  (1) 
1

>  <i_f3d_flags>  (1) 
0

>  <num_sample>  (1) 
50

>  <b_lp_Chiralities_Consistent>  (1) 
1

>  <r_epik_Charging_Adjusted_Penalty>  (1) 
0.41344222577729461

>  <r_epik_Ionization_Penalty>  (1) 
0.0027644559619576371

>  <r_epik_Ionization_Penalty_Charging>  (1) 
0.0027623868246906495

>  <r_epik_Ionization_Penalty_Neutral>  (1) 
2.0691372669875143e-06

>  <r_epik_State_Penalty>  (1) 
0.41067983895260396

>  <r_glide_ring_energy>  (1) 
1.6783687507504006

>  <r_i_docking_score>  (1) 
-4.8883745422623601

>  <r_i_glide_ecoul>  (1) 
-3.9955572639501891

>  <r_i_glide_eff_state_penalty>  (1) 
0.41067983895260396

>  <r_i_glide_einternal>  (1) 
7.5126334535167221

>  <r_i_glide_emodel>  (1) 
-29.082195190365994

>  <r_i_glide_emodel_strain>  (1) 
5.5919852909200927

>  <r_i_glide_energy>  (1) 
-29.5637844218918

>  <r_i_glide_erotb>  (1) 
0.74142510397790429

>  <r_i_glide_esite>  (1) 
0

>  <r_i_glide_evdw>  (1) 
-25.56822715794161

>  <r_i_glide_gscore>  (1) 
-5.2990543812149644

>  <r_i_glide_gscore_strain>  (1) 
0.39799632273002317

>  <r_i_glide_hbond>  (1) 
-0.23909137573622211

>  <r_i_glide_ligand_efficiency>  (1) 
-0.14813256188673818

>  <r_i_glide_ligand_efficiency_ln>  (1) 
-1.0871491875503658

>  <r_i_glide_ligand_efficiency_sa>  (1) 
-0.47514027764194411

>  <r_i_glide_lipo>  (1) 
-2.207334857197031

>  <r_i_glide_metal>  (1) 
-0

>  <r_i_glide_rewards>  (1) 
-2.1143046275000299

>  <r_lp_Energy>  (1) 
38.871550999999997

>  <r_lp_tautomer_probability>  (1) 
0.5

>  <s_epik_Chemistry_Notes>  (1) 
This compound has an imine and may undergo hydrolysis. This compound contains an acetal/aminal-like group ( X-CH(R)-Y where X, Y are N, S, or O) that may be acid/base labile, releasing an aldehyde.

>  <s_epik_cmdline>  (1) 
J2VwaWtfcHl0aG9uJywgJy1waHQnLCAnMS4wJywgJy1waCcsICc3LjQnLCAnLXRuJywgJzgnLCAnLW1hJywgJzUwMCcsICctaW1hZScsICc8aW5maWxlLm1hZT4nLCAnLW9tYWUnLCAnPG91dGZpbGUubWFlPic=

>  <s_epik_input>  (1) 
W0NIMl0xW0NIMl1bQ0gyXVtDSDJdW0NASF0oRilbQ0BIXTFbQ0gyXVtDSDJdTy9bQ0hdPVtDSF1cTihbQ0BIXTJPW0NIMl1bQ0gyXVtPSF0pW0NIMl1bQ0gyXU4zW0NAQEhdMltDSDJdW0NAQEhdKFtDQEBIXTM0KVtDQEBIXTRjNW5jKG9uNSlbTkhdW0NIM10=

>  <s_glide_docking_method>  (1) 
confgen

>  <s_i_glide_gridfile>  (1) 
gpcr_drd2_6luq_protein_autoprepared_prepared

>  <s_lp_Force_Field>  (1) 
S-OPLS

>  <s_lp_Variant>  (1) 
DiffSBDD_0-11

>  <s_m_source_file>  (1) 
generated_generic_title2_ligand_DiffSBDD_2026-06-23_prepared.sdf

>  <GenAI_Model>  (1) 
DiffSBDD

>  <Protein>  (1) 
generic_title2

$$$$
DiffSBDD_11
     RDKit          3D

  0  0  0  0  0  0  0  0  0  0999 V3000
M  V30 BEGIN CTAB
M  V30 COUNTS 46 47 0 0 1
M  V30 BEGIN ATOM
M  V30 1 N 7.282453 3.590957 -13.180270 0
M  V30 2 O 11.674320 8.657888 -9.505418 0
M  V30 3 C 6.646146 1.682061 -13.807572 0
M  V30 4 C 11.484053 7.479975 -6.835674 0
M  V30 5 O 6.954630 4.696236 -11.167020 0
M  V30 6 N 6.575425 2.505816 -12.785057 0
M  V30 7 C 7.631309 1.565011 -16.169338 0
M  V30 8 N 6.051144 0.421831 -13.795660 0
M  V30 9 C 7.775428 3.431767 -14.496392 0
M  V30 10 C 7.470705 4.755197 -12.283469 0
M  V30 11 C 7.375006 2.188912 -14.921399 0
M  V30 12 C 10.939470 8.881139 -6.659737 0
M  V30 13 C 10.371006 8.211858 -9.179105 0 CFG=1
M  V30 14 C 10.027641 6.957197 -10.008706 0
M  V30 15 C 8.875017 6.087632 -6.785202 0
M  V30 16 C 8.281558 5.989486 -12.722943 0
M  V30 17 C 10.295667 7.106760 -11.518397 0
M  V30 18 C 8.582598 4.461894 -15.227914 0
M  V30 19 N 8.975407 7.489784 -7.225994 0 CHG=1
M  V30 20 N 7.842484 1.058171 -17.187372 0
M  V30 21 C 10.307899 7.949634 -7.674644 0
M  V30 22 C 9.792440 5.928656 -12.372571 0
M  V30 23 H 11.683991 8.946005 -10.405235 0
M  V30 24 H 11.343773 6.796724 -6.001832 0
M  V30 25 H 12.439855 7.377056 -7.344268 0
M  V30 26 H 6.127972 -0.208768 -14.581252 0
M  V30 27 H 5.551040 0.081852 -12.986598 0
M  V30 28 H 11.567605 9.693250 -7.019633 0
M  V30 29 H 10.398974 9.093499 -5.739043 0
M  V30 30 H 9.670125 9.011611 -9.423700 0
M  V30 31 H 10.575427 6.106681 -9.605974 0
M  V30 32 H 8.975299 6.715427 -9.868156 0
M  V30 33 H 7.829291 5.786734 -6.718548 0
M  V30 34 H 9.380054 5.411401 -7.475894 0
M  V30 35 H 9.308104 5.990279 -5.791158 0
M  V30 36 H 7.853017 6.786482 -12.112793 0
M  V30 37 H 8.068386 6.367703 -13.714168 0
M  V30 38 H 9.861531 8.036405 -11.888719 0
M  V30 39 H 11.372192 7.190141 -11.671611 0
M  V30 40 H 8.918031 4.058705 -16.183238 0
M  V30 41 H 7.993137 5.338240 -15.491775 0
M  V30 42 H 9.498135 4.719574 -14.711737 0
M  V30 43 H 8.634295 8.080673 -6.483471 0
M  V30 44 H 10.376948 5.957282 -13.289563 0
M  V30 45 H 10.052975 4.984862 -11.890283 0
M  V30 46 H 8.327396 7.590202 -8.007098 0
M  V30 END ATOM
M  V30 BEGIN BOND
M  V30 1 1 6 1
M  V30 2 2 6 3
M  V30 3 1 8 3
M  V30 4 1 9 1
M  V30 5 1 10 1
M  V30 6 2 10 5
M  V30 7 1 11 3
M  V30 8 1 11 7
M  V30 9 2 11 9
M  V30 10 1 12 4
M  V30 11 1 13 2
M  V30 12 1 14 13
M  V30 13 1 16 10
M  V30 14 1 17 14
M  V30 15 1 18 9
M  V30 16 1 19 15
M  V30 17 3 20 7
M  V30 18 1 21 4
M  V30 19 1 21 12
M  V30 20 1 21 13
M  V30 21 1 21 19
M  V30 22 1 22 16
M  V30 23 1 22 17
M  V30 24 1 23 2
M  V30 25 1 24 4
M  V30 26 1 25 4
M  V30 27 1 26 8
M  V30 28 1 27 8
M  V30 29 1 28 12
M  V30 30 1 29 12
M  V30 31 1 13 30 CFG=1
M  V30 32 1 31 14
M  V30 33 1 32 14
M  V30 34 1 33 15
M  V30 35 1 34 15
M  V30 36 1 35 15
M  V30 37 1 36 16
M  V30 38 1 37 16
M  V30 39 1 38 17
M  V30 40 1 39 17
M  V30 41 1 40 18
M  V30 42 1 41 18
M  V30 43 1 42 18
M  V30 44 1 43 19
M  V30 45 1 44 22
M  V30 46 1 45 22
M  V30 47 1 46 19
M  V30 END BOND
M  V30 END CTAB
M  END
>  <i_epik_Tot_Q>  (1) 
1

>  <i_epik_Tot_abs_Q>  (1) 
1

>  <i_i_glide_confnum>  (1) 
173

>  <i_i_glide_lignum>  (1) 
46

>  <i_i_glide_posenum>  (1) 
271

>  <i_i_glide_rotatable_bonds>  (1) 
9

>  <i_lp_mmshare_version>  (1) 
72125

>  <i_m_source_file_index>  (1) 
12

>  <i_f3d_flags>  (1) 
0

>  <num_sample>  (1) 
50

>  <b_lp_Chiralities_Consistent>  (1) 
1

>  <r_epik_Charging_Adjusted_Penalty>  (1) 
0.78432572632575315

>  <r_epik_Ionization_Penalty>  (1) 
0.3972836053020487

>  <r_epik_Ionization_Penalty_Charging>  (1) 
0.39216286316287657

>  <r_epik_Ionization_Penalty_Neutral>  (1) 
0.0051207421391721471

>  <r_epik_State_Penalty>  (1) 
0.39216286316287657

>  <r_glide_ring_energy>  (1) 
0

>  <r_i_docking_score>  (1) 
-4.8881908946854224

>  <r_i_glide_ecoul>  (1) 
-4.3329120847850717

>  <r_i_glide_eff_state_penalty>  (1) 
0.39216286316287657

>  <r_i_glide_einternal>  (1) 
9.6313405837203341

>  <r_i_glide_emodel>  (1) 
-47.650422706771373

>  <r_i_glide_emodel_strain>  (1) 
0.37428474686520019

>  <r_i_glide_energy>  (1) 
-35.640270766500713

>  <r_i_glide_erotb>  (1) 
0.96414532890940241

>  <r_i_glide_esite>  (1) 
-0.086989772123261686

>  <r_i_glide_evdw>  (1) 
-31.307358681715641

>  <r_i_glide_gscore>  (1) 
-5.2803537578482986

>  <r_i_glide_gscore_strain>  (1) 
0

>  <r_i_glide_hbond>  (1) 
-0.22849499118635946

>  <r_i_glide_ligand_efficiency>  (1) 
-0.22219049521297374

>  <r_i_glide_ligand_efficiency_ln>  (1) 
-1.1948521557562257

>  <r_i_glide_ligand_efficiency_sa>  (1) 
-0.62258650648455005

>  <r_i_glide_lipo>  (1) 
-1.0628054103765219

>  <r_i_glide_metal>  (1) 
-0

>  <r_i_glide_rewards>  (1) 
-2.6509041662680142

>  <r_lp_Energy>  (1) 
18.601261000000001

>  <s_epik_cmdline>  (1) 
J2VwaWtfcHl0aG9uJywgJy1waHQnLCAnMS4wJywgJy1waCcsICc3LjQnLCAnLXRuJywgJzgnLCAnLW1hJywgJzUwMCcsICctaW1hZScsICc8aW5maWxlLm1hZT4nLCAnLW9tYWUnLCAnPG91dGZpbGUubWFlPic=

>  <s_epik_input>  (1) 
W0NIM11jMWMoQyNOKWMoW05IMl0pbm4xQyg9TylbQ0gyXVtDSDJdW0NIMl1bQ0gyXVtDQEhdKFtPSF0pQzIoW0NIMl1bQ0gyXTIpW05IXVtDSDNd

>  <s_glide_docking_method>  (1) 
confgen

>  <s_i_glide_gridfile>  (1) 
gpcr_drd2_6luq_protein_autoprepared_prepared

>  <s_lp_Force_Field>  (1) 
S-OPLS

>  <s_lp_Variant>  (1) 
DiffSBDD_11-1

>  <s_m_source_file>  (1) 
generated_generic_title2_ligand_DiffSBDD_2026-06-23_prepared.sdf

>  <GenAI_Model>  (1) 
DiffSBDD

>  <Protein>  (1) 
generic_title2

$$$$
DiffSBDD_7
     RDKit          3D

  0  0  0  0  0  0  0  0  0  0999 V3000
M  V30 BEGIN CTAB
M  V30 COUNTS 54 59 0 0 1
M  V30 BEGIN ATOM
M  V30 1 C 10.522142 7.370650 -7.067338 0
M  V30 2 C 4.753219 7.990050 -16.887830 0
M  V30 3 N 8.741534 5.426427 -9.381917 0
M  V30 4 C 8.820431 5.265056 -12.288161 0
M  V30 5 C 6.324636 6.353087 -18.034271 0 CFG=1
M  V30 6 F 8.585780 3.519682 -16.842444 0
M  V30 7 C 11.849336 8.730784 -8.604120 0
M  V30 8 N 10.300630 7.029375 -9.413258 0
M  V30 9 C 11.502294 8.408399 -7.337551 0
M  V30 10 C 6.387167 6.723058 -15.519636 0 CFG=1
M  V30 11 N 9.550665 6.181120 -11.538199 0
M  V30 12 C 5.499658 6.661532 -16.755306 0 CFG=1
M  V30 13 C 5.965398 7.158317 -14.173810 0 CFG=2
M  V30 14 C 8.205732 4.752724 -18.926716 0
M  V30 15 C 9.529873 6.207299 -10.246522 0
M  V30 16 N 9.051598 5.761287 -8.085310 0
M  V30 17 C 11.253865 8.046531 -9.835974 0
M  V30 18 C 7.787185 2.645400 -13.522154 0
M  V30 19 C 7.004000 4.990619 -18.034965 0 CFG=1
M  V30 20 C 6.914751 3.632715 -14.082668 0
M  V30 21 C 9.975772 6.740999 -8.120328 0
M  V30 22 C 6.905952 4.961667 -13.880518 0
M  V30 23 N 9.327881 3.986920 -12.153786 0
M  V30 24 S 7.375397 7.407487 -12.996175 0
M  V30 25 C 8.369904 4.753001 -17.429510 0 CFG=1
M  V30 26 N 10.175414 7.042712 -5.775815 0
M  V30 27 O 5.475371 6.366782 -19.164362 0
M  V30 28 C 7.778149 5.709788 -13.029501 0
M  V30 29 C 8.816736 2.834285 -12.699255 0
M  V30 30 N 5.979812 5.724886 -14.531487 0
M  V30 31 H 5.471855 8.790226 -17.031326 0
M  V30 32 H 4.063576 7.990223 -17.732176 0
M  V30 33 H 4.170503 8.222982 -15.996769 0
M  V30 34 H 7.081953 7.125048 -18.175529 0
M  V30 35 H 12.575412 9.502635 -8.785026 0
M  V30 36 H 11.961667 8.932821 -6.513159 0
M  V30 37 H 7.453895 6.657812 -15.694537 0
M  V30 38 H 4.750624 5.879668 -16.624302 0
M  V30 39 H 4.975410 7.479310 -13.875348 0
M  V30 40 H 8.268473 3.796022 -19.440892 0
M  V30 41 H 8.602726 5.604408 -19.475490 0
M  V30 42 H 8.416062 5.569484 -7.325227 0
M  V30 43 H 10.745713 8.788031 -10.450650 0
M  V30 44 H 12.046135 7.592097 -10.430494 0
M  V30 45 H 7.594127 1.622643 -13.812548 0
M  V30 46 H 6.308495 4.156278 -17.985027 0
M  V30 47 H 6.175414 3.257847 -14.765706 0
M  V30 48 H 8.937214 5.546848 -16.948304 0
M  V30 49 H 10.596396 7.496525 -4.980340 0
M  V30 50 H 9.504628 6.315978 -5.572425 0
M  V30 51 H 4.850356 5.663996 -19.078545 0
M  V30 52 H 9.381162 1.976727 -12.385027 0
M  V30 53 H 7.953621 4.830015 -9.589386 0
M  V30 54 H 10.136151 3.885959 -11.557454 0
M  V30 END ATOM
M  V30 BEGIN BOND
M  V30 1 1 9 1
M  V30 2 2 9 7
M  V30 3 1 11 4
M  V30 4 1 12 2
M  V30 5 1 12 5
M  V30 6 1 12 10
M  V30 7 1 13 10
M  V30 8 1 15 3
M  V30 9 1 15 8
M  V30 10 2 15 11
M  V30 11 1 16 3
M  V30 12 1 17 7
M  V30 13 1 17 8
M  V30 14 1 19 5
M  V30 15 1 19 14
M  V30 16 1 20 18
M  V30 17 2 21 1
M  V30 18 1 21 8
M  V30 19 1 21 16
M  V30 20 2 22 20
M  V30 21 1 23 4
M  V30 22 1 24 13
M  V30 23 1 25 6
M  V30 24 1 25 14
M  V30 25 1 25 19
M  V30 26 1 26 1
M  V30 27 1 27 5
M  V30 28 2 28 4
M  V30 29 1 28 22
M  V30 30 1 28 24
M  V30 31 2 29 18
M  V30 32 1 29 23
M  V30 33 1 30 10
M  V30 34 1 30 13
M  V30 35 1 30 22
M  V30 36 1 31 2
M  V30 37 1 32 2
M  V30 38 1 33 2
M  V30 39 1 5 34 CFG=3
M  V30 40 1 35 7
M  V30 41 1 36 9
M  V30 42 1 10 37 CFG=3
M  V30 43 1 12 38 CFG=1
M  V30 44 1 13 39 CFG=3
M  V30 45 1 40 14
M  V30 46 1 41 14
M  V30 47 1 42 16
M  V30 48 1 43 17
M  V30 49 1 44 17
M  V30 50 1 45 18
M  V30 51 1 19 46 CFG=1
M  V30 52 1 47 20
M  V30 53 1 25 48 CFG=3
M  V30 54 1 49 26
M  V30 55 1 50 26
M  V30 56 1 51 27
M  V30 57 1 52 29
M  V30 58 1 53 3
M  V30 59 1 54 23
M  V30 END BOND
M  V30 END CTAB
M  END
>  <i_epik_Tot_Q>  (1) 
0

>  <i_epik_Tot_abs_Q>  (1) 
0

>  <i_i_glide_confnum>  (1) 
26

>  <i_i_glide_lignum>  (1) 
31

>  <i_i_glide_posenum>  (1) 
132

>  <i_i_glide_rotatable_bonds>  (1) 
5

>  <i_lp_mmshare_version>  (1) 
72125

>  <i_m_source_file_index>  (1) 
8

>  <i_f3d_flags>  (1) 
0

>  <num_sample>  (1) 
50

>  <b_lp_Chiralities_Consistent>  (1) 
1

>  <r_epik_Charging_Adjusted_Penalty>  (1) 
6.333210498382379e-06

>  <r_epik_Ionization_Penalty>  (1) 
0.0013272624448344454

>  <r_epik_Ionization_Penalty_Charging>  (1) 
6.333210498382379e-06

>  <r_epik_Ionization_Penalty_Neutral>  (1) 
0.0013209292343360629

>  <r_epik_State_Penalty>  (1) 
-0

>  <r_glide_ring_energy>  (1) 
0

>  <r_i_docking_score>  (1) 
-4.8855761339809689

>  <r_i_glide_ecoul>  (1) 
-0.21308386937028523

>  <r_i_glide_eff_state_penalty>  (1) 
-0

>  <r_i_glide_einternal>  (1) 
1.3739018224862001

>  <r_i_glide_emodel>  (1) 
-45.480189555997228

>  <r_i_glide_emodel_strain>  (1) 
0.44679742613965345

>  <r_i_glide_energy>  (1) 
-37.655178515061905

>  <r_i_glide_erotb>  (1) 
0.43087853499794043

>  <r_i_glide_esite>  (1) 
-0.20840018672004451

>  <r_i_glide_evdw>  (1) 
-37.442094645691618

>  <r_i_glide_gscore>  (1) 
-4.8855761339809689

>  <r_i_glide_gscore_strain>  (1) 
0

>  <r_i_glide_hbond>  (1) 
0

>  <r_i_glide_ligand_efficiency>  (1) 
-0.16285253779936562

>  <r_i_glide_ligand_efficiency_ln>  (1) 
-1.1100561302560537

>  <r_i_glide_ligand_efficiency_sa>  (1) 
-0.50602069912726844

>  <r_i_glide_lipo>  (1) 
-2.4248341123418533

>  <r_i_glide_metal>  (1) 
-0

>  <r_i_glide_rewards>  (1) 
-0.77915305722688699

>  <r_lp_Energy>  (1) 
40.425478999999996

>  <r_lp_tautomer_probability>  (1) 
1

>  <s_epik_Chemistry_Notes>  (1) 
This compound has an imine and may undergo hydrolysis. This compound contains an acetal/aminal-like group ( X-CH(R)-Y where X, Y are N, S, or O) that may be acid/base labile, releasing an aldehyde.

>  <s_epik_cmdline>  (1) 
J2VwaWtfcHl0aG9uJywgJy1waHQnLCAnMS4wJywgJy1waCcsICc3LjQnLCAnLXRuJywgJzgnLCAnLW1hJywgJzUwMCcsICctaW1hZScsICc8aW5maWxlLm1hZT4nLCAnLW9tYWUnLCAnPG91dGZpbGUubWFlPic=

>  <s_epik_input>  (1) 
W0NIMl0xW0NIXT1bQ0hdQyhbTkgyXSk9QyhOMTIpW05IXU49QzJbTkhdQyg9TltDSF09W0NIXVtDSF09MylbQ0BASF0oUzQpQzNOKFtDQEBIXTQ1KVtDQEhdNVtDQEBIXShbQ0gzXSlbQ0BIXShbT0hdKVtDQEhdNltDSDJdW0NAQEhdNkY=

>  <s_glide_docking_method>  (1) 
confgen

>  <s_i_glide_gridfile>  (1) 
gpcr_drd2_6luq_protein_autoprepared_prepared

>  <s_lp_Force_Field>  (1) 
S-OPLS

>  <s_lp_Variant>  (1) 
DiffSBDD_7-1

>  <s_m_source_file>  (1) 
generated_generic_title2_ligand_DiffSBDD_2026-06-23_prepared.sdf

>  <GenAI_Model>  (1) 
DiffSBDD

>  <Protein>  (1) 
generic_title2

$$$$
DiffSBDD_20
     RDKit          3D

  0  0  0  0  0  0  0  0  0  0999 V3000
M  V30 BEGIN CTAB
M  V30 COUNTS 72 74 0 0 1
M  V30 BEGIN ATOM
M  V30 1 C 10.449236 5.254880 -22.152834 0
M  V30 2 C 5.094684 7.581948 -17.093136 0
M  V30 3 C 6.260791 4.854780 -20.230944 0 CFG=2
M  V30 4 C 9.260779 5.766253 -22.493132 0
M  V30 5 C 10.756747 4.547808 -20.893779 0 CFG=1
M  V30 6 C 8.295240 7.210258 -11.778663 0
M  V30 7 C 8.016705 4.194243 -13.035589 0 CFG=1
M  V30 8 F 10.925303 5.419259 -19.898634 0
M  V30 9 C 7.099571 4.500515 -15.502095 0
M  V30 10 O 7.254195 5.590225 -10.385103 0
M  V30 11 C 6.154310 4.500138 -18.728478 0
M  V30 12 C 7.945053 5.061557 -14.332830 0 CFG=2
M  V30 13 C 9.376363 7.340167 -8.830769 0
M  V30 14 C 8.007158 5.675097 -21.726282 0
M  V30 15 C 7.661415 4.726677 -20.814548 0
M  V30 16 C 8.492575 3.569044 -20.421736 0
M  V30 17 C 8.933392 4.713897 -11.867444 0 CFG=2
M  V30 18 C 5.756411 7.406377 -19.604129 0
M  V30 19 N 7.132424 5.261069 -17.925335 0 CHG=1
M  V30 20 C 4.627565 7.392424 -18.553728 0
M  V30 21 C 9.690401 4.892620 -8.836884 0
M  V30 22 C 6.786956 5.619806 -16.530265 0 CFG=1
M  V30 23 O 9.231472 5.190153 -14.903231 0
M  V30 24 C 8.506787 5.912976 -10.946898 0 CFG=1
M  V30 25 S 6.761654 6.840870 -22.054917 0
M  V30 26 C 9.826913 3.473805 -20.483861 0
M  V30 27 C 9.543998 6.122870 -9.762878 0
M  V30 28 C 5.398808 6.284510 -16.318966 0
M  V30 29 C 5.719775 6.278102 -20.665865 0 CFG=1
M  V30 30 O 10.175396 5.108202 -12.385013 0
M  V30 31 N 6.674754 3.881236 -12.506051 0 CHG=1
M  V30 32 H 11.287239 5.407510 -22.818839 0
M  V30 33 H 4.272215 8.062206 -16.561525 0
M  V30 34 H 5.915891 8.290296 -17.014327 0
M  V30 35 H 5.665140 4.118984 -20.772924 0
M  V30 36 H 9.220746 6.318695 -23.421314 0
M  V30 37 H 11.733390 4.082797 -21.030602 0
M  V30 38 H 9.131531 7.420541 -12.442961 0
M  V30 39 H 8.175354 8.107967 -11.185023 0
M  V30 40 H 7.383186 7.166011 -12.366928 0
M  V30 41 H 8.428487 3.233857 -13.349448 0
M  V30 42 H 7.622355 3.665931 -15.973935 0
M  V30 43 H 6.175290 4.077158 -15.125826 0
M  V30 44 H 6.975478 6.425829 -9.965993 0
M  V30 45 H 5.136119 4.671349 -18.402176 0
M  V30 46 H 6.329738 3.435824 -18.567045 0
M  V30 47 H 7.573871 6.051742 -14.095150 0
M  V30 48 H 8.575408 7.189204 -8.109860 0
M  V30 49 H 9.231196 8.281877 -9.353278 0
M  V30 50 H 10.277756 7.476101 -8.233987 0
M  V30 51 H 7.968256 2.709186 -20.032367 0
M  V30 52 H 9.105816 3.841785 -11.238940 0
M  V30 53 H 5.674621 8.363185 -20.121180 0
M  V30 54 H 6.742042 7.456028 -19.146349 0
M  V30 55 H 8.026126 4.788174 -17.940433 0
M  V30 56 H 3.998766 6.508738 -18.643463 0
M  V30 57 H 3.953919 8.215142 -18.798655 0
M  V30 58 H 8.741405 4.646125 -8.359276 0
M  V30 59 H 10.404215 5.092427 -8.037321 0
M  V30 60 H 10.043960 4.001588 -9.345941 0
M  V30 61 H 7.519059 6.390244 -16.343331 0
M  V30 62 H 9.837437 5.426617 -14.206094 0
M  V30 63 H 10.292563 2.556411 -20.156489 0
M  V30 64 H 10.504961 6.343783 -10.226899 0
M  V30 65 H 5.342142 6.540395 -15.260377 0
M  V30 66 H 4.580136 5.590230 -16.475429 0
M  V30 67 H 4.697351 6.187045 -21.036637 0
M  V30 68 H 10.705510 4.360854 -12.646957 0
M  V30 69 H 6.366525 4.675842 -11.952884 0
M  V30 70 H 6.739414 3.087529 -11.885260 0
M  V30 71 H 7.256632 6.138424 -18.410080 0
M  V30 72 H 6.022321 3.678614 -13.246949 0
M  V30 END ATOM
M  V30 BEGIN BOND
M  V30 1 2 4 1
M  V30 2 1 5 1
M  V30 3 1 8 5
M  V30 4 1 11 3
M  V30 5 1 12 7
M  V30 6 1 12 9
M  V30 7 1 14 4
M  V30 8 1 15 3
M  V30 9 2 15 14
M  V30 10 1 16 15
M  V30 11 1 17 7
M  V30 12 1 19 11
M  V30 13 1 20 2
M  V30 14 1 20 18
M  V30 15 1 22 9
M  V30 16 1 22 19
M  V30 17 1 23 12
M  V30 18 1 24 6
M  V30 19 1 24 10 CFG=1
M  V30 20 1 24 17
M  V30 21 1 25 14
M  V30 22 1 26 5
M  V30 23 2 26 16
M  V30 24 1 27 13
M  V30 25 1 27 21
M  V30 26 1 27 24
M  V30 27 1 28 2
M  V30 28 1 28 22
M  V30 29 1 29 3
M  V30 30 1 29 18
M  V30 31 1 29 25
M  V30 32 1 30 17
M  V30 33 1 31 7
M  V30 34 1 32 1
M  V30 35 1 33 2
M  V30 36 1 34 2
M  V30 37 1 3 35 CFG=3
M  V30 38 1 36 4
M  V30 39 1 5 37 CFG=3
M  V30 40 1 38 6
M  V30 41 1 39 6
M  V30 42 1 40 6
M  V30 43 1 7 41 CFG=3
M  V30 44 1 42 9
M  V30 45 1 43 9
M  V30 46 1 44 10
M  V30 47 1 45 11
M  V30 48 1 46 11
M  V30 49 1 12 47 CFG=1
M  V30 50 1 48 13
M  V30 51 1 49 13
M  V30 52 1 50 13
M  V30 53 1 51 16
M  V30 54 1 17 52 CFG=1
M  V30 55 1 53 18
M  V30 56 1 54 18
M  V30 57 1 55 19
M  V30 58 1 56 20
M  V30 59 1 57 20
M  V30 60 1 58 21
M  V30 61 1 59 21
M  V30 62 1 60 21
M  V30 63 1 22 61 CFG=1
M  V30 64 1 62 23
M  V30 65 1 63 26
M  V30 66 1 64 27
M  V30 67 1 65 28
M  V30 68 1 66 28
M  V30 69 1 29 67 CFG=3
M  V30 70 1 68 30
M  V30 71 1 69 31
M  V30 72 1 70 31
M  V30 73 1 71 19
M  V30 74 1 72 31
M  V30 END BOND
M  V30 END CTAB
M  END
>  <i_epik_Tot_Q>  (1) 
2

>  <i_epik_Tot_abs_Q>  (1) 
2

>  <i_i_glide_confnum>  (1) 
52

>  <i_i_glide_lignum>  (1) 
65

>  <i_i_glide_posenum>  (1) 
189

>  <i_i_glide_rotatable_bonds>  (1) 
9

>  <i_lp_mmshare_version>  (1) 
72125

>  <i_m_source_file_index>  (1) 
21

>  <i_f3d_flags>  (1) 
0

>  <num_sample>  (1) 
50

>  <b_lp_Chiralities_Consistent>  (1) 
1

>  <r_epik_Charging_Adjusted_Penalty>  (1) 
0.28425092081310654

>  <r_epik_Ionization_Penalty>  (1) 
0.14293687999153612

>  <r_epik_Ionization_Penalty_Charging>  (1) 
0.14293530953308087

>  <r_epik_Ionization_Penalty_Neutral>  (1) 
1.5704584552406844e-06

>  <r_epik_State_Penalty>  (1) 
0.14131561128002565

>  <r_glide_ring_energy>  (1) 
0

>  <r_i_docking_score>  (1) 
-4.8834909865387015

>  <r_i_glide_ecoul>  (1) 
-11.12226215839609

>  <r_i_glide_eff_state_penalty>  (1) 
0.14131561128002565

>  <r_i_glide_einternal>  (1) 
3.256278710586141

>  <r_i_glide_emodel>  (1) 
-40.061668653118986

>  <r_i_glide_emodel_strain>  (1) 
2.4846322042978102

>  <r_i_glide_energy>  (1) 
-28.002115016240378

>  <r_i_glide_erotb>  (1) 
0.38550374204318533

>  <r_i_glide_esite>  (1) 
0

>  <r_i_glide_evdw>  (1) 
-16.879852857844288

>  <r_i_glide_gscore>  (1) 
-5.0248065978187268

>  <r_i_glide_gscore_strain>  (1) 
0

>  <r_i_glide_hbond>  (1) 
-0.3731652410657082

>  <r_i_glide_ligand_efficiency>  (1) 
-0.15753196730770005

>  <r_i_glide_ligand_efficiency_ln>  (1) 
-1.1013768784896052

>  <r_i_glide_ligand_efficiency_sa>  (1) 
-0.49486787423356249

>  <r_i_glide_lipo>  (1) 
-1.8378684946636259

>  <r_i_glide_metal>  (1) 
-0

>  <r_i_glide_rewards>  (1) 
-0.68694463748094914

>  <r_lp_Energy>  (1) 
50.051933999999996

>  <s_epik_cmdline>  (1) 
J2VwaWtfcHl0aG9uJywgJy1waHQnLCAnMS4wJywgJy1waCcsICc3LjQnLCAnLXRuJywgJzgnLCAnLW1hJywgJzUwMCcsICctaW1hZScsICc8aW5maWxlLm1hZT4nLCAnLW9tYWUnLCAnPG91dGZpbGUubWFlPic=

>  <s_epik_input>  (1) 
W0NIXTE9W0NIXVtDQEhdKEYpW0NIXT1bQ0hdQyg9QzFbQ0BASF0yMylTW0NAQEhdM1tDSDJdW0NIMl1bQ0gyXVtDSDJdW0NASF0oW05IXVtDSDJdMilbQ0gyXVtDQEhdKFtPSF0pW0NASF0oW05IMl0pW0NAQEhdKFtPSF0pW0NAQF0oW0NIM10pKFtPSF0pW0NIXShbQ0gzXSlbQ0gzXQ==

>  <s_glide_docking_method>  (1) 
confgen

>  <s_i_glide_gridfile>  (1) 
gpcr_drd2_6luq_protein_autoprepared_prepared

>  <s_lp_Force_Field>  (1) 
S-OPLS

>  <s_lp_Variant>  (1) 
DiffSBDD_20-2

>  <s_m_source_file>  (1) 
generated_generic_title2_ligand_DiffSBDD_2026-06-23_prepared.sdf

>  <GenAI_Model>  (1) 
DiffSBDD

>  <Protein>  (1) 
generic_title2

$$$$
DiffSBDD_29
     RDKit          3D

  0  0  0  0  0  0  0  0  0  0999 V3000
M  V30 BEGIN CTAB
M  V30 COUNTS 70 74 0 0 1
M  V30 BEGIN ATOM
M  V30 1 C 6.937741 6.012830 -14.795194 0 CFG=2
M  V30 2 F 10.476077 4.445107 -21.444048 0
M  V30 3 C 10.592795 8.023510 -7.887363 0
M  V30 4 C 7.744968 4.283036 -17.800646 0
M  V30 5 C 9.173863 6.456441 -10.864343 0 CFG=1
M  V30 6 C 6.003201 7.099344 -15.410284 0
M  V30 7 F 11.178141 6.945413 -20.084514 0
M  V30 8 O 11.062991 6.423531 -12.325076 0
M  V30 9 C 6.396031 6.294273 -17.692090 0
M  V30 10 C 6.393997 6.611443 -19.196101 0 CFG=1
M  V30 11 C 9.544762 6.907045 -7.742026 0
M  V30 12 C 8.908609 6.802697 -19.688190 0
M  V30 13 C 10.645316 6.233600 -22.862603 0
M  V30 14 C 5.772589 7.211316 -16.746165 0
M  V30 15 C 9.867889 5.600978 -21.699717 0 CFG=1
M  V30 16 C 8.399984 5.234529 -22.115515 0
M  V30 17 N 6.991431 4.984017 -15.812461 0
M  V30 18 C 10.715288 8.616928 -9.296984 0
M  V30 19 C 7.585077 6.344532 -20.016278 0
M  V30 20 C 9.338103 5.304551 -9.839389 0
M  V30 21 C 9.970435 6.479006 -20.444266 0
M  V30 22 C 9.903038 5.576835 -8.423457 0
M  V30 23 C 6.455311 5.492365 -13.417639 0
M  V30 24 C 11.326096 7.645868 -10.328939 0
M  V30 25 N 10.354000 7.200303 -11.325420 0
M  V30 26 O 8.023917 3.866195 -15.575499 0
M  V30 27 C 7.370428 5.647778 -21.082215 0
M  V30 28 C 8.306663 3.523454 -16.909813 0
M  V30 29 C 6.862484 7.782334 -12.387198 0
M  V30 30 O 6.105103 5.244239 -21.303981 0
M  V30 31 C 7.017061 5.220232 -17.154478 0
M  V30 32 C 7.048834 6.272615 -12.215669 0 CFG=2
M  V30 33 N 8.474610 5.921881 -12.054773 0 CHG=1
M  V30 34 C 5.404775 5.758610 -20.107018 0
M  V30 35 H 7.945273 6.420944 -14.712681 0
M  V30 36 H 11.566601 7.674214 -7.543006 0
M  V30 37 H 10.313436 8.828932 -7.206900 0
M  V30 38 H 7.856854 4.179950 -18.864711 0
M  V30 39 H 8.575243 7.223960 -10.408472 0
M  V30 40 H 5.538856 7.793766 -14.728152 0
M  V30 41 H 11.226282 7.061342 -13.005649 0
M  V30 42 H 6.166916 7.669732 -19.320660 0
M  V30 43 H 9.434769 6.709718 -6.674595 0
M  V30 44 H 8.575606 7.255497 -8.072642 0
M  V30 45 H 9.050908 7.417919 -18.815284 0
M  V30 46 H 10.227880 7.202612 -23.129166 0
M  V30 47 H 11.692843 6.385917 -22.602818 0
M  V30 48 H 10.617063 5.601848 -23.749269 0
M  V30 49 H 5.134886 8.003019 -17.112753 0
M  V30 50 H 8.303955 4.167712 -22.309065 0
M  V30 51 H 8.133145 5.734839 -23.045161 0
M  V30 52 H 11.369789 9.486760 -9.222777 0
M  V30 53 H 9.751928 9.011279 -9.623344 0
M  V30 54 H 9.858125 4.461964 -10.292231 0
M  V30 55 H 8.329528 4.925048 -9.666891 0
M  V30 56 H 10.976527 5.437793 -8.385151 0
M  V30 57 H 9.514629 4.779005 -7.791732 0
M  V30 58 H 6.713458 4.437145 -13.309558 0
M  V30 59 H 5.365727 5.522751 -13.378460 0
M  V30 60 H 11.815643 6.804337 -9.841759 0
M  V30 61 H 12.122711 8.178236 -10.844671 0
M  V30 62 H 8.963420 2.676402 -17.044747 0
M  V30 63 H 5.797071 7.990641 -12.472460 0
M  V30 64 H 7.244734 8.386884 -11.576314 0
M  V30 65 H 7.375816 8.153669 -13.274498 0
M  V30 66 H 6.533109 5.961670 -11.304465 0
M  V30 67 H 8.996057 6.231754 -12.859496 0
M  V30 68 H 4.983200 4.935234 -19.537385 0
M  V30 69 H 4.567820 6.373895 -20.422446 0
M  V30 70 H 8.554502 4.916994 -12.014981 0
M  V30 END ATOM
M  V30 BEGIN BOND
M  V30 1 1 6 1
M  V30 2 1 10 9
M  V30 3 1 11 3
M  V30 4 2 14 6
M  V30 5 1 14 9
M  V30 6 1 15 2 CFG=1
M  V30 7 1 15 13
M  V30 8 1 16 15
M  V30 9 1 17 1
M  V30 10 1 18 3
M  V30 11 1 19 10
M  V30 12 1 19 12
M  V30 13 1 20 5
M  V30 14 1 21 7
M  V30 15 2 21 12
M  V30 16 1 21 15
M  V30 17 1 22 11
M  V30 18 1 22 20
M  V30 19 1 23 1
M  V30 20 1 24 18
M  V30 21 1 25 5
M  V30 22 1 25 8
M  V30 23 1 25 24
M  V30 24 1 26 17
M  V30 25 1 27 16
M  V30 26 2 27 19
M  V30 27 2 28 4
M  V30 28 1 28 26
M  V30 29 1 30 27
M  V30 30 1 31 4
M  V30 31 2 31 9
M  V30 32 1 31 17
M  V30 33 1 32 23
M  V30 34 1 32 29
M  V30 35 1 33 5
M  V30 36 1 33 32
M  V30 37 1 34 10
M  V30 38 1 34 30
M  V30 39 1 1 35 CFG=1
M  V30 40 1 36 3
M  V30 41 1 37 3
M  V30 42 1 38 4
M  V30 43 1 5 39 CFG=1
M  V30 44 1 40 6
M  V30 45 1 41 8
M  V30 46 1 10 42 CFG=1
M  V30 47 1 43 11
M  V30 48 1 44 11
M  V30 49 1 45 12
M  V30 50 1 46 13
M  V30 51 1 47 13
M  V30 52 1 48 13
M  V30 53 1 49 14
M  V30 54 1 50 16
M  V30 55 1 51 16
M  V30 56 1 52 18
M  V30 57 1 53 18
M  V30 58 1 54 20
M  V30 59 1 55 20
M  V30 60 1 56 22
M  V30 61 1 57 22
M  V30 62 1 58 23
M  V30 63 1 59 23
M  V30 64 1 60 24
M  V30 65 1 61 24
M  V30 66 1 62 28
M  V30 67 1 63 29
M  V30 68 1 64 29
M  V30 69 1 65 29
M  V30 70 1 32 66 CFG=1
M  V30 71 1 67 33
M  V30 72 1 68 34
M  V30 73 1 69 34
M  V30 74 1 70 33
M  V30 END BOND
M  V30 END CTAB
M  END
>  <i_epik_Tot_Q>  (1) 
1

>  <i_epik_Tot_abs_Q>  (1) 
1

>  <i_i_glide_confnum>  (1) 
267

>  <i_i_glide_lignum>  (1) 
88

>  <i_i_glide_posenum>  (1) 
174

>  <i_i_glide_rotatable_bonds>  (1) 
6

>  <i_lp_mmshare_version>  (1) 
72125

>  <i_m_source_file_index>  (1) 
30

>  <i_f3d_flags>  (1) 
0

>  <num_sample>  (1) 
50

>  <b_lp_Chiralities_Consistent>  (1) 
1

>  <r_epik_Charging_Adjusted_Penalty>  (1) 
0.00017158895476856407

>  <r_epik_Ionization_Penalty>  (1) 
0.00032717489199656771

>  <r_epik_Ionization_Penalty_Charging>  (1) 
0.00017158895476856407

>  <r_epik_Ionization_Penalty_Neutral>  (1) 
0.00015558593722800364

>  <r_epik_State_Penalty>  (1) 
-0

>  <r_glide_ring_energy>  (1) 
0.12064896419407886

>  <r_i_docking_score>  (1) 
-4.8809669951400689

>  <r_i_glide_ecoul>  (1) 
-2.6073024723914306

>  <r_i_glide_eff_state_penalty>  (1) 
-0

>  <r_i_glide_einternal>  (1) 
7.6216850910193692

>  <r_i_glide_emodel>  (1) 
-36.881875728279212

>  <r_i_glide_emodel_strain>  (1) 
1.5047949592470502

>  <r_i_glide_energy>  (1) 
-32.048686337854761

>  <r_i_glide_erotb>  (1) 
0.44578028893005395

>  <r_i_glide_esite>  (1) 
-0.12137850648643585

>  <r_i_glide_evdw>  (1) 
-29.44138386546333

>  <r_i_glide_gscore>  (1) 
-4.8809669951400689

>  <r_i_glide_gscore_strain>  (1) 
0

>  <r_i_glide_hbond>  (1) 
0

>  <r_i_glide_ligand_efficiency>  (1) 
-0.14355785279823732

>  <r_i_glide_ligand_efficiency_ln>  (1) 
-1.0783425157133231

>  <r_i_glide_ligand_efficiency_sa>  (1) 
-0.4650717140912255

>  <r_i_glide_lipo>  (1) 
-2.0278305408445476

>  <r_i_glide_metal>  (1) 
-0

>  <r_i_glide_rewards>  (1) 
-1.314373672607259

>  <r_lp_Energy>  (1) 
36.679803

>  <r_lp_tautomer_probability>  (1) 
1

>  <s_epik_Chemistry_Notes>  (1) 
This compound contains an acetal/aminal-like group ( X-CH(R)-Y where X, Y are N, S, or O) that may be acid/base labile, releasing an aldehyde. This compound has a N-S or N-O group and may undergo hydrolysis at high or low pH.

>  <s_epik_cmdline>  (1) 
J2VwaWtfcHl0aG9uJywgJy1waHQnLCAnMS4wJywgJy1waCcsICc3LjQnLCAnLXRuJywgJzgnLCAnLW1hJywgJzUwMCcsICctaW1hZScsICc8aW5maWxlLm1hZT4nLCAnLW9tYWUnLCAnPG91dGZpbGUubWFlPic=

>  <s_epik_input>  (1) 
RkMoPVtDSF0xKVtDQF0oRikoW0NIM10pW0NIMl1DKD1DMTIpT1tDSDJdW0NASF0yQyg9QyhOMzQpW0NIXT1bQ0hdTzQpW0NIXT1bQ0hdW0NASF0zW0NIMl1bQ0BIXShbQ0gzXSlbTkhdW0NASF01W0NIMl1bQ0gyXVtDSDJdW0NIMl1bQ0gyXVtDSDJdTjVbT0hd

>  <s_glide_docking_method>  (1) 
confgen

>  <s_i_glide_gridfile>  (1) 
gpcr_drd2_6luq_protein_autoprepared_prepared

>  <s_lp_Force_Field>  (1) 
S-OPLS

>  <s_lp_Variant>  (1) 
DiffSBDD_29-1

>  <s_m_source_file>  (1) 
generated_generic_title2_ligand_DiffSBDD_2026-06-23_prepared.sdf

>  <GenAI_Model>  (1) 
DiffSBDD

>  <Protein>  (1) 
generic_title2

$$$$
DiffSBDD_12
     RDKit          3D

  0  0  0  0  0  0  0  0  0  0999 V3000
M  V30 BEGIN CTAB
M  V30 COUNTS 55 56 0 0 1
M  V30 BEGIN ATOM
M  V30 1 C 6.863182 -0.097031 -14.860100 0 CFG=2
M  V30 2 C 10.566766 7.458687 -5.779251 0 CFG=2
M  V30 3 C 11.188549 8.863232 -5.830935 0
M  V30 4 C 10.761429 7.430475 -8.309194 0
M  V30 5 C 11.599831 8.688036 -8.380938 0
M  V30 6 C 8.120306 4.487332 -11.264150 0
M  V30 7 C 6.326492 0.277432 -17.367857 0
M  V30 8 C 6.170027 -0.625632 -16.135055 0
M  V30 9 C 11.375115 6.495438 -4.894433 0
M  V30 10 C 6.548255 3.215743 -12.841693 0
M  V30 11 C 9.488607 5.881365 -9.657958 0
M  V30 12 C 7.702822 4.206411 -12.725733 0 CFG=1
M  V30 13 C 8.823716 6.832711 -11.934833 0
M  V30 14 C 6.335877 1.261839 -14.398269 0
M  V30 15 C 7.294409 5.508496 -13.424276 0
M  V30 16 C 6.904120 1.745342 -13.055910 0
M  V30 17 C 8.457114 6.474758 -13.379281 0
M  V30 18 O 10.497980 6.880934 -9.546648 0
M  V30 19 F 8.175409 -0.009780 -15.071459 0
M  V30 20 C 10.299453 6.882889 -7.162277 0
M  V30 21 C 12.097842 9.188360 -7.011105 0
M  V30 22 O 5.377203 3.590235 -12.785036 0
M  V30 23 O 10.975410 9.690850 -4.946936 0
M  V30 24 C 9.209697 5.572621 -11.140740 0 CFG=2
M  V30 25 H 6.728977 -0.810847 -14.049014 0
M  V30 26 H 9.589322 7.590129 -5.320001 0
M  V30 27 H 12.453441 8.504589 -9.034243 0
M  V30 28 H 11.004949 9.456090 -8.872962 0
M  V30 29 H 8.537320 3.590229 -10.820489 0
M  V30 30 H 7.245457 4.766710 -10.672743 0
M  V30 31 H 5.875692 -0.188457 -18.244544 0
M  V30 32 H 5.839914 1.241928 -17.228493 0
M  V30 33 H 7.377915 0.457938 -17.593230 0
M  V30 34 H 6.570041 -1.608915 -16.385029 0
M  V30 35 H 5.108855 -0.779661 -15.933928 0
M  V30 36 H 12.175209 6.006474 -5.451658 0
M  V30 37 H 11.817983 7.002508 -4.036046 0
M  V30 38 H 10.728196 5.713168 -4.499486 0
M  V30 39 H 9.803580 4.966056 -9.154504 0
M  V30 40 H 8.575406 6.226209 -9.175976 0
M  V30 41 H 8.557001 3.783484 -13.255544 0
M  V30 42 H 7.980379 7.334256 -11.461129 0
M  V30 43 H 9.648033 7.546686 -11.931305 0
M  V30 44 H 5.254150 1.190228 -14.306016 0
M  V30 45 H 6.554754 2.003379 -15.168189 0
M  V30 46 H 6.426880 5.963488 -12.941794 0
M  V30 47 H 7.017256 5.317741 -14.462756 0
M  V30 48 H 7.988555 1.631615 -13.038752 0
M  V30 49 H 6.502665 1.147726 -12.236940 0
M  V30 50 H 8.175405 7.373049 -13.928149 0
M  V30 51 H 9.302091 5.990234 -13.878012 0
M  V30 52 H 9.705561 5.983453 -7.191598 0
M  V30 53 H 13.088802 8.790232 -6.805149 0
M  V30 54 H 12.175408 10.270702 -7.023211 0
M  V30 55 H 10.124058 5.174364 -11.585075 0
M  V30 END ATOM
M  V30 BEGIN BOND
M  V30 1 1 3 2
M  V30 2 1 5 4
M  V30 3 1 8 1
M  V30 4 1 8 7
M  V30 5 1 9 2
M  V30 6 1 12 6
M  V30 7 1 12 10
M  V30 8 1 14 1
M  V30 9 1 15 12
M  V30 10 1 16 10
M  V30 11 1 16 14
M  V30 12 1 17 13
M  V30 13 1 17 15
M  V30 14 1 18 4
M  V30 15 1 18 11
M  V30 16 1 19 1
M  V30 17 1 20 2
M  V30 18 2 20 4
M  V30 19 1 21 3
M  V30 20 1 21 5
M  V30 21 2 22 10
M  V30 22 2 23 3
M  V30 23 1 24 6
M  V30 24 1 24 11
M  V30 25 1 24 13
M  V30 26 1 1 25 CFG=1
M  V30 27 1 2 26 CFG=1
M  V30 28 1 27 5
M  V30 29 1 28 5
M  V30 30 1 29 6
M  V30 31 1 30 6
M  V30 32 1 31 7
M  V30 33 1 32 7
M  V30 34 1 33 7
M  V30 35 1 34 8
M  V30 36 1 35 8
M  V30 37 1 36 9
M  V30 38 1 37 9
M  V30 39 1 38 9
M  V30 40 1 39 11
M  V30 41 1 40 11
M  V30 42 1 12 41 CFG=3
M  V30 43 1 42 13
M  V30 44 1 43 13
M  V30 45 1 44 14
M  V30 46 1 45 14
M  V30 47 1 46 15
M  V30 48 1 47 15
M  V30 49 1 48 16
M  V30 50 1 49 16
M  V30 51 1 50 17
M  V30 52 1 51 17
M  V30 53 1 52 20
M  V30 54 1 53 21
M  V30 55 1 54 21
M  V30 56 1 24 55 CFG=3
M  V30 END BOND
M  V30 END CTAB
M  END
>  <i_epik_Tot_Q>  (1) 
0

>  <i_epik_Tot_abs_Q>  (1) 
0

>  <i_i_glide_confnum>  (1) 
136

>  <i_i_glide_lignum>  (1) 
49

>  <i_i_glide_posenum>  (1) 
154

>  <i_i_glide_rotatable_bonds>  (1) 
8

>  <i_lp_mmshare_version>  (1) 
72125

>  <i_m_source_file_index>  (1) 
13

>  <i_f3d_flags>  (1) 
0

>  <num_sample>  (1) 
50

>  <b_lp_Chiralities_Consistent>  (1) 
1

>  <r_epik_Charging_Adjusted_Penalty>  (1) 
0

>  <r_epik_Ionization_Penalty>  (1) 
4.1955247269604324e-12

>  <r_epik_Ionization_Penalty_Charging>  (1) 
0

>  <r_epik_Ionization_Penalty_Neutral>  (1) 
4.1955247269604324e-12

>  <r_epik_State_Penalty>  (1) 
-0

>  <r_glide_ring_energy>  (1) 
0

>  <r_i_docking_score>  (1) 
-4.8789340684391469

>  <r_i_glide_ecoul>  (1) 
-2.6340071348841754

>  <r_i_glide_eff_state_penalty>  (1) 
-0

>  <r_i_glide_einternal>  (1) 
3.6262588279824932

>  <r_i_glide_emodel>  (1) 
-39.687602075439642

>  <r_i_glide_emodel_strain>  (1) 
0.29709478984570126

>  <r_i_glide_energy>  (1) 
-31.753431859569144

>  <r_i_glide_erotb>  (1) 
1.1556109002290837

>  <r_i_glide_esite>  (1) 
-0.011400018592090175

>  <r_i_glide_evdw>  (1) 
-29.119424724684968

>  <r_i_glide_gscore>  (1) 
-4.8789340684391469

>  <r_i_glide_gscore_strain>  (1) 
0

>  <r_i_glide_hbond>  (1) 
0

>  <r_i_glide_ligand_efficiency>  (1) 
-0.20328891951829778

>  <r_i_glide_ligand_efficiency_ln>  (1) 
-1.1677528022736923

>  <r_i_glide_ligand_efficiency_sa>  (1) 
-0.58638671364704464

>  <r_i_glide_lipo>  (1) 
-1.7809521078361596

>  <r_i_glide_metal>  (1) 
-0

>  <r_i_glide_rewards>  (1) 
-2.3911205357731058

>  <r_lp_Energy>  (1) 
10.280693999999999

>  <r_lp_tautomer_probability>  (1) 
1

>  <s_epik_cmdline>  (1) 
J2VwaWtfcHl0aG9uJywgJy1waHQnLCAnMS4wJywgJy1waCcsICc3LjQnLCAnLXRuJywgJzgnLCAnLW1hJywgJzUwMCcsICctaW1hZScsICc8aW5maWxlLm1hZT4nLCAnLW9tYWUnLCAnPG91dGZpbGUubWFlPic=

>  <s_epik_input>  (1) 
W0NIM11bQ0gyXVtDQEBIXShGKVtDSDJdW0NIMl1DKD1PKVtDQEBIXTFbQ0gyXVtDQEBIXShbQ0gyXVtDSDJdW0NIMl0xKVtDSDJdT0MoPVtDSF0yKVtDSDJdW0NIMl1DKD1PKVtDQEhdMltDSDNd

>  <s_glide_docking_method>  (1) 
confgen

>  <s_i_glide_gridfile>  (1) 
gpcr_drd2_6luq_protein_autoprepared_prepared

>  <s_lp_Force_Field>  (1) 
S-OPLS

>  <s_lp_Variant>  (1) 
DiffSBDD_12-2

>  <s_m_source_file>  (1) 
generated_generic_title2_ligand_DiffSBDD_2026-06-23_prepared.sdf

>  <GenAI_Model>  (1) 
DiffSBDD

>  <Protein>  (1) 
generic_title2

$$$$
DiffSBDD_39
     RDKit          3D

  0  0  0  0  0  0  0  0  0  0999 V3000
M  V30 BEGIN CTAB
M  V30 COUNTS 68 71 0 0 1
M  V30 BEGIN ATOM
M  V30 1 C 8.169102 5.485075 -15.164928 0
M  V30 2 F 11.378036 6.337466 -21.695420 0
M  V30 3 F 10.432210 8.242799 -21.291024 0
M  V30 4 C 11.500847 8.629027 -9.622846 0
M  V30 5 C 7.677332 6.324298 -12.744258 0
M  V30 6 C 6.546829 4.763106 -11.174913 0 CFG=1
M  V30 7 O 12.738590 8.510160 -8.951365 0
M  V30 8 C 11.250076 5.768652 -18.616473 0 CFG=2
M  V30 9 C 7.657374 2.754368 -14.367243 0
M  V30 10 C 8.757586 5.856476 -10.462801 0 CFG=2
M  V30 11 O 13.453637 5.661015 -17.593951 0
M  V30 12 C 7.917268 3.144856 -15.833325 0
M  V30 13 N 8.780855 4.349747 -15.906837 0 CFG=1 CHG=1
M  V30 14 C 12.504734 7.825834 -20.279087 0
M  V30 15 C 8.108273 5.144748 -13.663156 0 CFG=1
M  V30 16 C 9.225189 4.678229 -17.283755 0
M  V30 17 O 13.211210 6.829778 -19.547936 0
M  V30 18 C 7.002402 3.590227 -12.066054 0
M  V30 19 N 7.493304 5.922820 -11.301375 0 CFG=1 CHG=1
M  V30 20 C 10.681887 7.338696 -9.464227 0 CFG=1
M  V30 21 C 10.094266 7.171393 -8.065248 0
M  V30 22 C 10.558394 5.459962 -17.256326 0
M  V30 23 C 7.149978 3.951434 -13.538021 0 CFG=2
M  V30 24 C 12.599469 6.493705 -18.342052 0 CFG=1
M  V30 25 C 10.415602 6.626571 -19.585021 0
M  V30 26 C 9.565213 5.745506 -7.947541 0
M  V30 27 C 11.159973 7.260017 -20.758014 0
M  V30 28 O 9.206540 6.790229 -19.427743 0
M  V30 29 C 8.461649 5.467960 -8.976081 0
M  V30 30 O 5.396359 5.195284 -11.625781 0 CHG=-1
M  V30 31 C 9.580536 7.186659 -10.537148 0
M  V30 32 H 7.172023 5.692630 -15.557816 0
M  V30 33 H 8.727708 6.390227 -15.325811 0
M  V30 34 H 10.955909 9.500975 -9.261701 0
M  V30 35 H 11.724612 8.790218 -10.673900 0
M  V30 36 H 6.730930 6.723651 -13.111880 0
M  V30 37 H 8.365589 7.159294 -12.846617 0
M  V30 38 H 6.554452 4.368698 -10.165395 0
M  V30 39 H 13.280695 9.254924 -9.185029 0
M  V30 40 H 11.477810 4.832856 -19.127850 0
M  V30 41 H 6.932427 1.939978 -14.328335 0
M  V30 42 H 8.572165 2.360927 -13.921545 0
M  V30 43 H 9.387893 5.067164 -10.873574 0
M  V30 44 H 14.246756 6.144929 -17.419160 0
M  V30 45 H 6.975412 3.339867 -16.346952 0
M  V30 46 H 8.391907 2.308277 -16.348304 0
M  V30 47 H 13.108705 8.129733 -21.134511 0
M  V30 48 H 12.364522 8.716484 -19.663403 0
M  V30 49 H 9.104911 4.837462 -13.340023 0
M  V30 50 H 9.386012 3.758014 -17.846890 0
M  V30 51 H 8.419142 5.211419 -17.784480 0
M  V30 52 H 6.304740 2.755469 -11.984715 0
M  V30 53 H 7.982304 3.247299 -11.731302 0
M  V30 54 H 11.375738 6.522432 -9.585025 0
M  V30 55 H 10.857095 7.341747 -7.304847 0
M  V30 56 H 9.297497 7.896083 -7.887773 0
M  V30 57 H 10.432763 6.390228 -16.711831 0
M  V30 58 H 11.249046 4.873834 -16.648838 0
M  V30 59 H 6.169009 4.236075 -13.924024 0
M  V30 60 H 12.454031 7.399955 -17.748405 0
M  V30 61 H 10.382035 5.034932 -8.075407 0
M  V30 62 H 9.173304 5.590225 -6.942239 0
M  V30 63 H 8.236649 4.405716 -8.895569 0
M  V30 64 H 7.574669 5.990223 -8.638172 0
M  V30 65 H 8.928955 8.054627 -10.464965 0
M  V30 66 H 10.062250 7.256141 -11.512079 0
M  V30 67 H 9.626627 4.111746 -15.408395 0
M  V30 68 H 6.975415 6.678914 -10.857352 0
M  V30 END ATOM
M  V30 BEGIN BOND
M  V30 1 1 7 4
M  V30 2 1 12 9
M  V30 3 1 13 1
M  V30 4 1 13 12
M  V30 5 1 15 1
M  V30 6 1 15 5
M  V30 7 1 16 13
M  V30 8 1 17 14
M  V30 9 1 18 6
M  V30 10 1 19 5
M  V30 11 1 19 6
M  V30 12 1 19 10
M  V30 13 1 20 4
M  V30 14 1 21 20
M  V30 15 1 22 8
M  V30 16 1 22 16
M  V30 17 1 23 9
M  V30 18 1 23 15
M  V30 19 1 23 18
M  V30 20 1 24 8
M  V30 21 1 24 11
M  V30 22 1 24 17
M  V30 23 1 25 8
M  V30 24 1 26 21
M  V30 25 1 27 2
M  V30 26 1 27 3
M  V30 27 1 27 14
M  V30 28 1 27 25
M  V30 29 2 28 25
M  V30 30 1 29 10
M  V30 31 1 29 26
M  V30 32 1 30 6
M  V30 33 1 31 10
M  V30 34 1 31 20
M  V30 35 1 32 1
M  V30 36 1 33 1
M  V30 37 1 34 4
M  V30 38 1 35 4
M  V30 39 1 36 5
M  V30 40 1 37 5
M  V30 41 1 6 38 CFG=1
M  V30 42 1 39 7
M  V30 43 1 8 40 CFG=3
M  V30 44 1 41 9
M  V30 45 1 42 9
M  V30 46 1 10 43 CFG=3
M  V30 47 1 44 11
M  V30 48 1 45 12
M  V30 49 1 46 12
M  V30 50 1 47 14
M  V30 51 1 48 14
M  V30 52 1 15 49 CFG=1
M  V30 53 1 50 16
M  V30 54 1 51 16
M  V30 55 1 52 18
M  V30 56 1 53 18
M  V30 57 1 20 54 CFG=3
M  V30 58 1 55 21
M  V30 59 1 56 21
M  V30 60 1 57 22
M  V30 61 1 58 22
M  V30 62 1 23 59 CFG=3
M  V30 63 1 24 60 CFG=1
M  V30 64 1 61 26
M  V30 65 1 62 26
M  V30 66 1 63 29
M  V30 67 1 64 29
M  V30 68 1 65 31
M  V30 69 1 66 31
M  V30 70 1 13 67 CFG=1
M  V30 71 1 19 68 CFG=1
M  V30 END BOND
M  V30 END CTAB
M  END
>  <i_epik_Tot_Q>  (1) 
1

>  <i_epik_Tot_abs_Q>  (1) 
3

>  <i_i_glide_confnum>  (1) 
249

>  <i_i_glide_lignum>  (1) 
105

>  <i_i_glide_posenum>  (1) 
105

>  <i_i_glide_rotatable_bonds>  (1) 
7

>  <i_lp_mmshare_version>  (1) 
72125

>  <i_m_source_file_index>  (1) 
40

>  <i_f3d_flags>  (1) 
0

>  <num_sample>  (1) 
50

>  <b_lp_Chiralities_Consistent>  (1) 
1

>  <r_epik_Charging_Adjusted_Penalty>  (1) 
0.43569023002306473

>  <r_epik_Ionization_Penalty>  (1) 
0.17475065349743213

>  <r_epik_Ionization_Penalty_Charging>  (1) 
0.17468327186895813

>  <r_epik_Ionization_Penalty_Neutral>  (1) 
6.7381628474014066e-05

>  <r_epik_State_Penalty>  (1) 
0.26100695815410663

>  <r_glide_ring_energy>  (1) 
0

>  <r_i_docking_score>  (1) 
-4.8635095997697091

>  <r_i_glide_ecoul>  (1) 
-7.9760420547744628

>  <r_i_glide_eff_state_penalty>  (1) 
0.26100695815410663

>  <r_i_glide_einternal>  (1) 
3.1034130808816034

>  <r_i_glide_emodel>  (1) 
-37.256711673064288

>  <r_i_glide_emodel_strain>  (1) 
0.27448143094170518

>  <r_i_glide_energy>  (1) 
-30.194831454914738

>  <r_i_glide_erotb>  (1) 
0.49989103335302049

>  <r_i_glide_esite>  (1) 
-0.10930151706256963

>  <r_i_glide_evdw>  (1) 
-22.218789400140274

>  <r_i_glide_gscore>  (1) 
-5.1245165579238154

>  <r_i_glide_gscore_strain>  (1) 
0

>  <r_i_glide_hbond>  (1) 
-0.44354123535161788

>  <r_i_glide_ligand_efficiency>  (1) 
-0.15688740644418417

>  <r_i_glide_ligand_efficiency_ln>  (1) 
-1.0968704634172342

>  <r_i_glide_ligand_efficiency_sa>  (1) 
-0.492843063207625

>  <r_i_glide_lipo>  (1) 
-1.2251994747273409

>  <r_i_glide_metal>  (1) 
-0

>  <r_i_glide_rewards>  (1) 
-1.5390195859121247

>  <r_lp_Energy>  (1) 
47.853707

>  <r_lp_tautomer_probability>  (1) 
0.99995000000000001

>  <s_epik_Chemistry_Notes>  (1) 
This compound contains an acetal/aminal-like group ( X-CH(R)-Y where X, Y are N, S, or O) that may be acid/base labile, releasing an aldehyde.

>  <s_epik_cmdline>  (1) 
J2VwaWtfcHl0aG9uJywgJy1waHQnLCAnMS4wJywgJy1waCcsICc3LjQnLCAnLXRuJywgJzgnLCAnLW1hJywgJzUwMCcsICctaW1hZScsICc8aW5maWxlLm1hZT4nLCAnLW9tYWUnLCAnPG91dGZpbGUubWFlPic=

>  <s_epik_input>  (1) 
RkMxKEYpW0NIMl1PW0NASF0oW09IXSlbQ0BIXShDMT1PKVtDSDJdW0NIMl1OKFtDSDJdMilbQ0gyXVtDSDJdW0NASF0oW0NAQEhdMjMpW0NIMl1bQ0BIXShbT0hdKU4oW0NIMl0zKVtDQEBIXTRbQ0gyXVtDSDJdW0NIMl1bQ0BASF0oW0NIMl00KVtDSDJdW09IXQ==

>  <s_glide_docking_method>  (1) 
confgen

>  <s_i_glide_gridfile>  (1) 
gpcr_drd2_6luq_protein_autoprepared_prepared

>  <s_lp_Force_Field>  (1) 
S-OPLS

>  <s_lp_Variant>  (1) 
DiffSBDD_39-1

>  <s_m_source_file>  (1) 
generated_generic_title2_ligand_DiffSBDD_2026-06-23_prepared.sdf

>  <GenAI_Model>  (1) 
DiffSBDD

>  <Protein>  (1) 
generic_title2

$$$$
DiffSBDD_2
     RDKit          3D

  0  0  0  0  0  0  0  0  0  0999 V3000
M  V30 BEGIN CTAB
M  V30 COUNTS 61 63 0 0 1
M  V30 BEGIN ATOM
M  V30 1 C 8.954888 5.737258 -10.530533 0 CFG=1
M  V30 2 C 5.687165 6.403093 -13.696348 0
M  V30 3 C 9.763216 4.816720 -11.465797 0
M  V30 4 C 3.439832 7.588340 -17.205664 0
M  V30 5 N 7.791349 3.684333 -18.564234 0
M  V30 6 C 6.119055 5.810046 -15.025050 0 CFG=2
M  V30 7 C 9.689042 7.990221 -11.243356 0
M  V30 8 C 7.423148 6.110691 -15.707260 0 CFG=2
M  V30 9 C 8.298933 1.326250 -18.873202 0
M  V30 10 C 7.615308 4.781894 -17.916700 0
M  V30 11 C 8.596554 2.632104 -18.144966 0
M  V30 12 C 5.625324 6.293638 -17.590706 0 CFG=1
M  V30 13 C 6.583210 6.100443 -12.480482 0
M  V30 14 C 7.903748 6.890916 -12.502352 0
M  V30 15 C 6.150672 6.731546 -16.233480 0 CFG=1
M  V30 16 C 6.399899 5.694585 -19.983580 0
M  V30 17 C 10.170702 8.356971 -9.835045 0
M  V30 18 C 10.675657 7.103324 -9.126150 0
M  V30 19 O 9.481784 2.673119 -17.288488 0
M  V30 20 C 4.619149 7.321392 -18.152566 0
M  V30 21 C 6.819133 5.954535 -18.517970 0 CFG=2
M  V30 22 C 9.601964 5.995901 -9.142998 0
M  V30 23 N 8.575412 7.017702 -11.185023 0 CFG=1 CHG=1
M  V30 24 C 8.157705 5.032934 -16.492868 0
M  V30 25 H 8.027544 5.204213 -10.315798 0
M  V30 26 H 5.544741 7.479676 -13.798565 0
M  V30 27 H 4.702026 5.990149 -13.507901 0
M  V30 28 H 10.175155 3.990230 -10.901763 0
M  V30 29 H 9.129220 4.373453 -12.233784 0
M  V30 30 H 10.575423 5.324695 -11.984854 0
M  V30 31 H 2.676410 8.192974 -17.694595 0
M  V30 32 H 2.975408 6.655338 -16.888206 0
M  V30 33 H 3.755516 8.126382 -16.312723 0
M  V30 34 H 5.775404 4.790217 -15.171588 0
M  V30 35 H 10.509942 7.590216 -11.839463 0
M  V30 36 H 9.338075 8.878498 -11.760376 0
M  V30 37 H 8.084793 6.790229 -15.185025 0
M  V30 38 H 8.571502 1.409180 -19.925521 0
M  V30 39 H 7.236915 1.086151 -18.809542 0
M  V30 40 H 8.861744 0.501261 -18.436076 0
M  V30 41 H 5.058864 5.376747 -17.455987 0
M  V30 42 H 6.026974 6.378190 -11.583517 0
M  V30 43 H 6.768120 5.028321 -12.406202 0
M  V30 44 H 8.607286 6.440621 -13.197583 0
M  V30 45 H 7.694497 7.894964 -12.874931 0
M  V30 46 H 6.097970 7.805531 -16.061131 0
M  V30 47 H 7.256247 5.418361 -20.599923 0
M  V30 48 H 5.665061 4.891847 -20.054145 0
M  V30 49 H 5.970293 6.584804 -20.442304 0
M  V30 50 H 10.971285 9.096213 -9.885238 0
M  V30 51 H 9.358361 8.808844 -9.263846 0
M  V30 52 H 11.596040 6.790227 -9.611803 0
M  V30 53 H 10.945048 7.339977 -8.096345 0
M  V30 54 H 5.124616 8.258467 -18.387567 0
M  V30 55 H 4.200225 6.952270 -19.087526 0
M  V30 56 H 7.489583 6.814671 -18.537254 0
M  V30 57 H 10.006325 5.070920 -8.729248 0
M  V30 58 H 8.808673 6.299636 -8.456581 0
M  V30 59 H 8.096872 4.127552 -15.889178 0
M  V30 60 H 9.210191 5.309966 -16.564091 0
M  V30 61 H 7.884006 7.433309 -10.544611 0
M  V30 END ATOM
M  V30 BEGIN BOND
M  V30 1 1 3 1
M  V30 2 1 6 2
M  V30 3 1 8 6
M  V30 4 2 10 5
M  V30 5 1 11 5
M  V30 6 1 11 9
M  V30 7 1 13 2
M  V30 8 1 14 13
M  V30 9 1 15 6
M  V30 10 1 15 8
M  V30 11 1 15 12
M  V30 12 1 17 7
M  V30 13 1 18 17
M  V30 14 2 19 11
M  V30 15 1 20 4
M  V30 16 1 20 12
M  V30 17 1 21 10
M  V30 18 1 21 12
M  V30 19 1 21 16
M  V30 20 1 22 1
M  V30 21 1 22 18
M  V30 22 1 23 1
M  V30 23 1 23 7
M  V30 24 1 23 14
M  V30 25 1 24 8
M  V30 26 1 24 10
M  V30 27 1 1 25 CFG=1
M  V30 28 1 26 2
M  V30 29 1 27 2
M  V30 30 1 28 3
M  V30 31 1 29 3
M  V30 32 1 30 3
M  V30 33 1 31 4
M  V30 34 1 32 4
M  V30 35 1 33 4
M  V30 36 1 6 34 CFG=3
M  V30 37 1 35 7
M  V30 38 1 36 7
M  V30 39 1 8 37 CFG=1
M  V30 40 1 38 9
M  V30 41 1 39 9
M  V30 42 1 40 9
M  V30 43 1 12 41 CFG=1
M  V30 44 1 42 13
M  V30 45 1 43 13
M  V30 46 1 44 14
M  V30 47 1 45 14
M  V30 48 1 15 46 CFG=1
M  V30 49 1 47 16
M  V30 50 1 48 16
M  V30 51 1 49 16
M  V30 52 1 50 17
M  V30 53 1 51 17
M  V30 54 1 52 18
M  V30 55 1 53 18
M  V30 56 1 54 20
M  V30 57 1 55 20
M  V30 58 1 21 56 CFG=3
M  V30 59 1 57 22
M  V30 60 1 58 22
M  V30 61 1 59 24
M  V30 62 1 60 24
M  V30 63 1 23 61 CFG=1
M  V30 END BOND
M  V30 END CTAB
M  END
>  <i_epik_Tot_Q>  (1) 
1

>  <i_epik_Tot_abs_Q>  (1) 
1

>  <i_i_glide_confnum>  (1) 
214

>  <i_i_glide_lignum>  (1) 
21

>  <i_i_glide_posenum>  (1) 
369

>  <i_i_glide_rotatable_bonds>  (1) 
6

>  <i_lp_mmshare_version>  (1) 
72125

>  <i_m_source_file_index>  (1) 
3

>  <i_f3d_flags>  (1) 
0

>  <num_sample>  (1) 
50

>  <b_lp_Chiralities_Consistent>  (1) 
1

>  <r_epik_Charging_Adjusted_Penalty>  (1) 
0.0011657924221308697

>  <r_epik_Ionization_Penalty>  (1) 
0.0011657924221308697

>  <r_epik_Ionization_Penalty_Charging>  (1) 
0.0011657924221308697

>  <r_epik_Ionization_Penalty_Neutral>  (1) 
0

>  <r_epik_State_Penalty>  (1) 
-0

>  <r_glide_ring_energy>  (1) 
0

>  <r_i_docking_score>  (1) 
-4.8623360588451252

>  <r_i_glide_ecoul>  (1) 
-5.7660019370136943

>  <r_i_glide_eff_state_penalty>  (1) 
-0

>  <r_i_glide_einternal>  (1) 
3.5741495889945547

>  <r_i_glide_emodel>  (1) 
-35.338500595410558

>  <r_i_glide_emodel_strain>  (1) 
0.44186547592802583

>  <r_i_glide_energy>  (1) 
-27.101322456940043

>  <r_i_glide_erotb>  (1) 
0.84713914833173298

>  <r_i_glide_esite>  (1) 
-0.10000000000000001

>  <r_i_glide_evdw>  (1) 
-21.335320519926348

>  <r_i_glide_gscore>  (1) 
-4.8623360588451252

>  <r_i_glide_gscore_strain>  (1) 
0

>  <r_i_glide_hbond>  (1) 
-0.20000000000000001

>  <r_i_glide_ligand_efficiency>  (1) 
-0.20259733578521355

>  <r_i_glide_ligand_efficiency_ln>  (1) 
-1.1637801369448113

>  <r_i_glide_ligand_efficiency_sa>  (1) 
-0.58439184096329999

>  <r_i_glide_lipo>  (1) 
-1.6927780253109974

>  <r_i_glide_metal>  (1) 
-0

>  <r_i_glide_rewards>  (1) 
-1.7850308653174898

>  <r_lp_Energy>  (1) 
45.776719999999997

>  <r_lp_tautomer_probability>  (1) 
1

>  <s_epik_Chemistry_Notes>  (1) 
This compound has an imine and may undergo hydrolysis.

>  <s_epik_cmdline>  (1) 
J2VwaWtfcHl0aG9uJywgJy1waHQnLCAnMS4wJywgJy1waCcsICc3LjQnLCAnLXRuJywgJzgnLCAnLW1hJywgJzUwMCcsICctaW1hZScsICc8aW5maWxlLm1hZT4nLCAnLW9tYWUnLCAnPG91dGZpbGUubWFlPic=

>  <s_epik_input>  (1) 
W0NIM11bQ0BIXTFbQ0gyXVtDSDJdW0NIMl1bQ0gyXU4xW0NIMl1bQ0gyXVtDSDJdW0NASF0yW0NAQEhdKFtDQEBIXTIzKVtDQEBIXShbQ0gyXVtDSDNdKVtDQEhdKFtDSDNdKVxDKFtDSDJdMyk9TlxDKD1PKVtDSDNd

>  <s_glide_docking_method>  (1) 
confgen

>  <s_i_glide_gridfile>  (1) 
gpcr_drd2_6luq_protein_autoprepared_prepared

>  <s_lp_Force_Field>  (1) 
S-OPLS

>  <s_lp_Variant>  (1) 
DiffSBDD_2-1

>  <s_m_source_file>  (1) 
generated_generic_title2_ligand_DiffSBDD_2026-06-23_prepared.sdf

>  <GenAI_Model>  (1) 
DiffSBDD

>  <Protein>  (1) 
generic_title2

$$$$
DiffSBDD_8
     RDKit          3D

  0  0  0  0  0  0  0  0  0  0999 V3000
M  V30 BEGIN CTAB
M  V30 COUNTS 69 72 0 0 1
M  V30 BEGIN ATOM
M  V30 1 N 6.387471 3.735270 -13.937948 0
M  V30 2 C 6.440816 7.402072 -14.665337 0
M  V30 3 C 6.898888 5.595904 -11.591507 0 CFG=1
M  V30 4 N 6.175320 7.299903 -16.940782 0
M  V30 5 O 9.593745 4.839465 -13.304642 0
M  V30 6 C 9.809048 6.987486 -9.169136 0
M  V30 7 F 6.852835 5.148549 -17.359633 0
M  V30 8 C 9.167914 6.152355 -8.040209 0
M  V30 9 N 9.211909 6.696001 -10.486995 0 CHG=1
M  V30 10 C 9.355860 5.305537 -10.990363 0 CFG=1
M  V30 11 C 6.117956 5.911648 -16.548354 0 CFG=1
M  V30 12 C 12.538533 9.613004 -5.813006 0
M  V30 13 C 8.077003 4.655087 -11.530780 0 CFG=2
M  V30 14 O 11.042940 6.391332 -12.385285 0
M  V30 15 O 5.445476 7.573412 -18.185816 0
M  V30 16 C 9.204707 6.822730 -6.663335 0
M  V30 17 C 8.461154 2.575880 -13.026817 0
M  V30 18 C 5.585140 2.656706 -13.367768 0
M  V30 19 C 7.769437 3.486729 -14.029554 0 CFG=2
M  V30 20 C 6.658091 5.929278 -15.096210 0 CFG=2
M  V30 21 C 5.820367 4.918569 -14.280133 0
M  V30 22 C 5.451092 5.265996 -11.225758 0
M  V30 23 C 10.302058 5.211256 -12.181415 0 CFG=2
M  V30 24 C 8.510056 4.079272 -12.854430 0 CFG=2
M  V30 25 O 11.775569 10.786302 -5.985069 0
M  V30 26 O 4.669182 5.190276 -13.984997 0
M  V30 27 C 11.814123 8.738040 -4.781141 0
M  V30 28 C 4.030516 7.414170 -18.109251 0
M  V30 29 C 5.685838 8.076240 -15.818682 0
M  V30 30 O 10.614246 8.228460 -5.350048 0
M  V30 31 C 10.606761 7.192734 -6.199064 0
M  V30 32 N 6.437919 5.590227 -10.250977 0
M  V30 33 O 11.602859 6.585367 -6.587013 0
M  V30 34 H 5.890347 7.507969 -13.730096 0
M  V30 35 H 7.402818 7.892101 -14.521213 0
M  V30 36 H 7.088968 6.562989 -12.050059 0
M  V30 37 H 9.655673 8.052251 -8.983628 0
M  V30 38 H 10.887317 6.831362 -9.208569 0
M  V30 39 H 9.648997 5.176348 -7.979895 0
M  V30 40 H 8.119742 5.958686 -8.259072 0
M  V30 41 H 8.224882 6.915968 -10.388866 0
M  V30 42 H 9.769993 4.669588 -10.209133 0
M  V30 43 H 5.081730 5.589458 -16.593504 0
M  V30 44 H 12.667587 9.103030 -6.770164 0
M  V30 45 H 13.532314 9.886366 -5.452756 0
M  V30 46 H 7.828999 3.824758 -10.879713 0
M  V30 47 H 11.590866 6.234608 -13.142475 0
M  V30 48 H 8.775306 6.134138 -5.940353 0
M  V30 49 H 8.575493 7.714265 -6.664737 0
M  V30 50 H 9.387051 2.075268 -13.185037 0
M  V30 51 H 7.832286 1.977663 -12.385043 0
M  V30 52 H 4.519150 2.776638 -13.577768 0
M  V30 53 H 5.864117 1.709039 -13.832480 0
M  V30 54 H 5.775533 2.557880 -12.299936 0
M  V30 55 H 8.229604 3.513545 -15.015607 0
M  V30 56 H 7.730063 5.737241 -15.088160 0
M  V30 57 H 4.681792 6.015630 -11.391966 0
M  V30 58 H 5.100711 4.240565 -11.216896 0
M  V30 59 H 10.975060 4.390541 -11.985021 0
M  V30 60 H 10.887242 10.532843 -6.185700 0
M  V30 61 H 12.442183 7.923892 -4.414048 0
M  V30 62 H 11.570954 9.336287 -3.902810 0
M  V30 63 H 3.638286 7.794403 -19.049607 0
M  V30 64 H 3.727312 6.375793 -18.036799 0
M  V30 65 H 3.526355 7.990091 -17.338459 0
M  V30 66 H 4.619170 7.966911 -15.636588 0
M  V30 67 H 5.919953 9.129793 -15.961929 0
M  V30 68 H 6.433439 6.529675 -9.805862 0
M  V30 69 H 9.622741 7.297930 -11.187763 0
M  V30 END ATOM
M  V30 BEGIN BOND
M  V30 1 1 8 6
M  V30 2 1 9 6
M  V30 3 1 10 9
M  V30 4 1 11 4
M  V30 5 1 11 7
M  V30 6 1 13 3
M  V30 7 1 13 10
M  V30 8 1 15 4
M  V30 9 1 16 8
M  V30 10 1 18 1
M  V30 11 1 19 1
M  V30 12 1 19 17
M  V30 13 1 20 2
M  V30 14 1 20 11
M  V30 15 1 21 1
M  V30 16 1 21 20
M  V30 17 1 22 3
M  V30 18 1 23 5
M  V30 19 1 23 10
M  V30 20 1 23 14
M  V30 21 1 24 5 CFG=3
M  V30 22 1 24 13
M  V30 23 1 24 17
M  V30 24 1 24 19
M  V30 25 1 25 12
M  V30 26 2 26 21
M  V30 27 1 27 12
M  V30 28 1 28 15
M  V30 29 1 29 2
M  V30 30 1 29 4
M  V30 31 1 30 27
M  V30 32 1 31 16
M  V30 33 1 31 30
M  V30 34 1 32 3
M  V30 35 1 32 22
M  V30 36 2 33 31
M  V30 37 1 34 2
M  V30 38 1 35 2
M  V30 39 1 3 36 CFG=3
M  V30 40 1 37 6
M  V30 41 1 38 6
M  V30 42 1 39 8
M  V30 43 1 40 8
M  V30 44 1 41 9
M  V30 45 1 10 42 CFG=1
M  V30 46 1 11 43 CFG=1
M  V30 47 1 44 12
M  V30 48 1 45 12
M  V30 49 1 13 46 CFG=1
M  V30 50 1 47 14
M  V30 51 1 48 16
M  V30 52 1 49 16
M  V30 53 1 50 17
M  V30 54 1 51 17
M  V30 55 1 52 18
M  V30 56 1 53 18
M  V30 57 1 54 18
M  V30 58 1 19 55 CFG=3
M  V30 59 1 20 56 CFG=3
M  V30 60 1 57 22
M  V30 61 1 58 22
M  V30 62 1 23 59 CFG=1
M  V30 63 1 60 25
M  V30 64 1 61 27
M  V30 65 1 62 27
M  V30 66 1 63 28
M  V30 67 1 64 28
M  V30 68 1 65 28
M  V30 69 1 66 29
M  V30 70 1 67 29
M  V30 71 1 68 32
M  V30 72 1 69 9
M  V30 END BOND
M  V30 END CTAB
M  END
>  <i_epik_Tot_Q>  (1) 
1

>  <i_epik_Tot_abs_Q>  (1) 
1

>  <i_i_glide_confnum>  (1) 
3992

>  <i_i_glide_lignum>  (1) 
35

>  <i_i_glide_posenum>  (1) 
34

>  <i_i_glide_rotatable_bonds>  (1) 
15

>  <i_lp_mmshare_version>  (1) 
72125

>  <i_m_source_file_index>  (1) 
9

>  <i_f3d_flags>  (1) 
0

>  <num_sample>  (1) 
50

>  <b_lp_Chiralities_Consistent>  (1) 
1

>  <r_epik_Charging_Adjusted_Penalty>  (1) 
0.31458683345696248

>  <r_epik_Ionization_Penalty>  (1) 
0.14300301403106822

>  <r_epik_Ionization_Penalty_Charging>  (1) 
0.065080964065447874

>  <r_epik_Ionization_Penalty_Neutral>  (1) 
0.077922049965620341

>  <r_epik_State_Penalty>  (1) 
0.24950586939151459

>  <r_glide_ring_energy>  (1) 
1.6776107834789336

>  <r_i_docking_score>  (1) 
-4.8615088691190262

>  <r_i_glide_ecoul>  (1) 
-10.502808865176036

>  <r_i_glide_eff_state_penalty>  (1) 
0.24950586939151459

>  <r_i_glide_einternal>  (1) 
32.755556643246337

>  <r_i_glide_emodel>  (1) 
-8.7254448318069855

>  <r_i_glide_emodel_strain>  (1) 
3.8137158023863549

>  <r_i_glide_energy>  (1) 
-15.22114905285096

>  <r_i_glide_erotb>  (1) 
1.0741905119875848

>  <r_i_glide_esite>  (1) 
-0.10000000000000001

>  <r_i_glide_evdw>  (1) 
-4.718340187674924

>  <r_i_glide_gscore>  (1) 
-5.1110147385105407

>  <r_i_glide_gscore_strain>  (1) 
0

>  <r_i_glide_hbond>  (1) 
-0.35972272889022855

>  <r_i_glide_ligand_efficiency>  (1) 
-0.14731845057936443

>  <r_i_glide_ligand_efficiency_ln>  (1) 
-1.0811744009462994

>  <r_i_glide_ligand_efficiency_sa>  (1) 
-0.47252898767510498

>  <r_i_glide_lipo>  (1) 
-2.0963029653341811

>  <r_i_glide_metal>  (1) 
-0

>  <r_i_glide_rewards>  (1) 
-1.8178412171135643

>  <r_lp_Energy>  (1) 
35.996015

>  <s_epik_Chemistry_Notes>  (1) 
This compound has an ester and may undergo hydrolysis at high or low pH. This compound contains an acetal/aminal-like group ( X-CH(R)-Y where X, Y are N, S, or O) that may be acid/base labile, releasing an aldehyde. This compound has a N-S or N-O group and may undergo hydrolysis at high or low pH.

>  <s_epik_cmdline>  (1) 
J2VwaWtfcHl0aG9uJywgJy1waHQnLCAnMS4wJywgJy1waCcsICc3LjQnLCAnLXRuJywgJzgnLCAnLW1hJywgJzUwMCcsICctaW1hZScsICc8aW5maWxlLm1hZT4nLCAnLW9tYWUnLCAnPG91dGZpbGUubWFlPic=

>  <s_epik_input>  (1) 
W0NIM11PTjFbQ0BIXShGKVtDQEBIXShbQ0gyXVtDSDJdMSlDKD1PKU4oW0NIM10pW0NASF0yW0NIMl1DMjNPW0NAQEhdKFtPSF0pW0NASF0oW0NASF0zW0NASF00W0NIMl1bTkhdNClbTkhdW0NIMl1bQ0gyXVtDSDJdQyg9TylPW0NIMl1bQ0gyXVtPSF0=

>  <s_glide_docking_method>  (1) 
confgen

>  <s_i_glide_gridfile>  (1) 
gpcr_drd2_6luq_protein_autoprepared_prepared

>  <s_lp_Force_Field>  (1) 
S-OPLS

>  <s_lp_Variant>  (1) 
DiffSBDD_8-4

>  <s_m_source_file>  (1) 
generated_generic_title2_ligand_DiffSBDD_2026-06-23_prepared.sdf

>  <GenAI_Model>  (1) 
DiffSBDD

>  <Protein>  (1) 
generic_title2

$$$$
DiffSBDD_39
     RDKit          3D

  0  0  0  0  0  0  0  0  0  0999 V3000
M  V30 BEGIN CTAB
M  V30 COUNTS 68 71 0 0 1
M  V30 BEGIN ATOM
M  V30 1 C 8.845383 3.688170 -12.479159 0
M  V30 2 F 6.231884 -2.000193 -16.785052 0
M  V30 3 F 6.719148 -0.829216 -18.531292 0
M  V30 4 C 13.345911 8.763566 -8.475462 0
M  V30 5 C 9.351918 5.302734 -10.673608 0
M  V30 6 C 8.975403 7.746959 -11.015554 0 CFG=1
M  V30 7 O 14.174568 7.990443 -9.319240 0
M  V30 8 C 6.675932 0.471020 -15.007269 0 CFG=2
M  V30 9 C 7.182889 5.695333 -13.846729 0
M  V30 10 C 10.016221 6.850448 -8.831591 0 CFG=2
M  V30 11 O 8.575401 0.390386 -13.584934 0
M  V30 12 C 7.763649 4.466816 -14.563206 0
M  V30 13 N 7.993020 3.318313 -13.626551 0 CFG=2 CHG=1
M  V30 14 C 8.382697 -0.983486 -16.894286 0
M  V30 15 C 8.321052 4.936979 -11.738732 0 CFG=1
M  V30 16 C 6.794443 2.556515 -13.207499 0
M  V30 17 O 8.575419 -0.809778 -15.497171 0
M  V30 18 C 7.869849 7.415831 -12.049326 0
M  V30 19 N 9.129243 6.620470 -10.027482 0 CFG=2 CHG=1
M  V30 20 C 12.181441 7.927624 -7.954653 0 CFG=1
M  V30 21 C 11.398220 8.598935 -6.815506 0
M  V30 22 C 6.175412 1.801396 -14.385110 0
M  V30 23 C 8.167226 6.084257 -12.753908 0 CFG=2
M  V30 24 C 8.184615 0.378088 -14.928806 0 CFG=1
M  V30 25 C 6.367542 0.324997 -16.522995 0
M  V30 26 C 10.183811 7.736876 -6.434418 0
M  V30 27 C 6.886784 -0.922368 -17.211678 0
M  V30 28 O 5.775400 1.190276 -17.149960 0
M  V30 29 C 9.267454 7.489267 -7.647207 0
M  V30 30 O 10.080504 7.795710 -11.714831 0 CHG=-1
M  V30 31 C 11.265028 7.675421 -9.147226 0
M  V30 32 H 9.838929 3.891565 -12.877724 0
M  V30 33 H 8.975869 2.843918 -11.799380 0
M  V30 34 H 13.930732 9.190236 -7.662578 0
M  V30 35 H 12.941915 9.567583 -9.093282 0
M  V30 36 H 10.273151 5.375077 -11.219911 0
M  V30 37 H 9.448064 4.499621 -9.943739 0
M  V30 38 H 8.635742 8.626373 -10.466138 0
M  V30 39 H 14.640796 8.605847 -9.869645 0
M  V30 40 H 6.260773 -0.377281 -14.461105 0
M  V30 41 H 7.067344 6.518950 -14.554152 0
M  V30 42 H 6.195610 5.495780 -13.430343 0
M  V30 43 H 10.359535 5.879995 -8.475563 0
M  V30 44 H 9.479380 0.114488 -13.538578 0
M  V30 45 H 8.732424 4.732489 -14.990047 0
M  V30 46 H 7.154058 4.237017 -15.432010 0
M  V30 47 H 8.799430 -1.946465 -17.192179 0
M  V30 48 H 8.935857 -0.212811 -17.434031 0
M  V30 49 H 7.363261 4.733604 -11.256722 0
M  V30 50 H 6.996771 1.869701 -12.385247 0
M  V30 51 H 6.060961 3.259646 -12.807622 0
M  V30 52 H 7.803766 8.220004 -12.784168 0
M  V30 53 H 6.886212 7.367855 -11.585101 0
M  V30 54 H 12.559413 6.990837 -7.559285 0
M  V30 55 H 12.036891 8.747711 -5.944347 0
M  V30 56 H 11.066956 9.590228 -7.119568 0
M  V30 57 H 5.177701 1.590203 -13.985013 0
M  V30 58 H 6.175416 2.512730 -15.195442 0
M  V30 59 H 9.122126 6.197724 -13.267270 0
M  V30 60 H 8.687454 1.201445 -15.438654 0
M  V30 61 H 10.525917 6.780054 -6.036469 0
M  V30 62 H 9.619638 8.218152 -5.635567 0
M  V30 63 H 8.458334 6.829402 -7.341433 0
M  V30 64 H 8.820287 8.435073 -7.953671 0
M  V30 65 H 10.958901 8.651578 -9.522149 0
M  V30 66 H 11.827261 7.190296 -9.945850 0
M  V30 67 H 8.539435 2.638397 -14.133687 0
M  V30 68 H 8.195495 6.598833 -9.623917 0
M  V30 END ATOM
M  V30 BEGIN BOND
M  V30 1 1 7 4
M  V30 2 1 12 9
M  V30 3 1 13 1
M  V30 4 1 13 12
M  V30 5 1 15 1
M  V30 6 1 15 5
M  V30 7 1 16 13
M  V30 8 1 17 14
M  V30 9 1 18 6
M  V30 10 1 19 5
M  V30 11 1 19 6
M  V30 12 1 19 10
M  V30 13 1 20 4
M  V30 14 1 21 20
M  V30 15 1 22 8
M  V30 16 1 22 16
M  V30 17 1 23 9
M  V30 18 1 23 15
M  V30 19 1 23 18
M  V30 20 1 24 8
M  V30 21 1 24 11
M  V30 22 1 24 17
M  V30 23 1 25 8
M  V30 24 1 26 21
M  V30 25 1 27 2
M  V30 26 1 27 3
M  V30 27 1 27 14
M  V30 28 1 27 25
M  V30 29 2 28 25
M  V30 30 1 29 10
M  V30 31 1 29 26
M  V30 32 1 30 6
M  V30 33 1 31 10
M  V30 34 1 31 20
M  V30 35 1 32 1
M  V30 36 1 33 1
M  V30 37 1 34 4
M  V30 38 1 35 4
M  V30 39 1 36 5
M  V30 40 1 37 5
M  V30 41 1 6 38 CFG=1
M  V30 42 1 39 7
M  V30 43 1 8 40 CFG=1
M  V30 44 1 41 9
M  V30 45 1 42 9
M  V30 46 1 10 43 CFG=1
M  V30 47 1 44 11
M  V30 48 1 45 12
M  V30 49 1 46 12
M  V30 50 1 47 14
M  V30 51 1 48 14
M  V30 52 1 15 49 CFG=1
M  V30 53 1 50 16
M  V30 54 1 51 16
M  V30 55 1 52 18
M  V30 56 1 53 18
M  V30 57 1 20 54 CFG=1
M  V30 58 1 55 21
M  V30 59 1 56 21
M  V30 60 1 57 22
M  V30 61 1 58 22
M  V30 62 1 23 59 CFG=3
M  V30 63 1 24 60 CFG=3
M  V30 64 1 61 26
M  V30 65 1 62 26
M  V30 66 1 63 29
M  V30 67 1 64 29
M  V30 68 1 65 31
M  V30 69 1 66 31
M  V30 70 1 13 67 CFG=3
M  V30 71 1 19 68 CFG=1
M  V30 END BOND
M  V30 END CTAB
M  END
>  <i_epik_Tot_Q>  (1) 
1

>  <i_epik_Tot_abs_Q>  (1) 
3

>  <i_i_glide_confnum>  (1) 
375

>  <i_i_glide_lignum>  (1) 
108

>  <i_i_glide_posenum>  (1) 
349

>  <i_i_glide_rotatable_bonds>  (1) 
7

>  <i_lp_mmshare_version>  (1) 
72125

>  <i_m_source_file_index>  (1) 
40

>  <i_f3d_flags>  (1) 
0

>  <num_sample>  (1) 
50

>  <b_lp_Chiralities_Consistent>  (1) 
1

>  <r_epik_Charging_Adjusted_Penalty>  (1) 
0.43569023002306473

>  <r_epik_Ionization_Penalty>  (1) 
0.17475065349743213

>  <r_epik_Ionization_Penalty_Charging>  (1) 
0.17468327186895813

>  <r_epik_Ionization_Penalty_Neutral>  (1) 
6.7381628474014066e-05

>  <r_epik_State_Penalty>  (1) 
0.26100695815410663

>  <r_glide_ring_energy>  (1) 
0

>  <r_i_docking_score>  (1) 
-4.8606939354507652

>  <r_i_glide_ecoul>  (1) 
-9.2012605729099093

>  <r_i_glide_eff_state_penalty>  (1) 
0.26100695815410663

>  <r_i_glide_einternal>  (1) 
15.976196064348997

>  <r_i_glide_emodel>  (1) 
-19.481415469976945

>  <r_i_glide_emodel_strain>  (1) 
5.2822532391069075

>  <r_i_glide_energy>  (1) 
-24.176297162478477

>  <r_i_glide_erotb>  (1) 
0.49989103335302049

>  <r_i_glide_esite>  (1) 
-0.21029230635825119

>  <r_i_glide_evdw>  (1) 
-14.975036589568568

>  <r_i_glide_gscore>  (1) 
-5.1217008936048716

>  <r_i_glide_gscore_strain>  (1) 
0.32056330977672687

>  <r_i_glide_hbond>  (1) 
-0.19886811528708714

>  <r_i_glide_ligand_efficiency>  (1) 
-0.15679657856292792

>  <r_i_glide_ligand_efficiency_ln>  (1) 
-1.0962354448235641

>  <r_i_glide_ligand_efficiency_sa>  (1) 
-0.49255773825874888

>  <r_i_glide_lipo>  (1) 
-1.8205390528238214

>  <r_i_glide_metal>  (1) 
-0

>  <r_i_glide_rewards>  (1) 
-1.5835148468505453

>  <r_lp_Energy>  (1) 
51.063981999999996

>  <r_lp_tautomer_probability>  (1) 
0.99995000000000001

>  <s_epik_Chemistry_Notes>  (1) 
This compound contains an acetal/aminal-like group ( X-CH(R)-Y where X, Y are N, S, or O) that may be acid/base labile, releasing an aldehyde.

>  <s_epik_cmdline>  (1) 
J2VwaWtfcHl0aG9uJywgJy1waHQnLCAnMS4wJywgJy1waCcsICc3LjQnLCAnLXRuJywgJzgnLCAnLW1hJywgJzUwMCcsICctaW1hZScsICc8aW5maWxlLm1hZT4nLCAnLW9tYWUnLCAnPG91dGZpbGUubWFlPic=

>  <s_epik_input>  (1) 
RkMxKEYpW0NIMl1PW0NASF0oW09IXSlbQ0BIXShDMT1PKVtDSDJdW0NIMl1OKFtDSDJdMilbQ0gyXVtDSDJdW0NASF0oW0NAQEhdMjMpW0NIMl1bQ0BIXShbT0hdKU4oW0NIMl0zKVtDQEBIXTRbQ0gyXVtDSDJdW0NIMl1bQ0BASF0oW0NIMl00KVtDSDJdW09IXQ==

>  <s_glide_docking_method>  (1) 
confgen

>  <s_i_glide_gridfile>  (1) 
gpcr_drd2_6luq_protein_autoprepared_prepared

>  <s_lp_Force_Field>  (1) 
S-OPLS

>  <s_lp_Variant>  (1) 
DiffSBDD_39-4

>  <s_m_source_file>  (1) 
generated_generic_title2_ligand_DiffSBDD_2026-06-23_prepared.sdf

>  <GenAI_Model>  (1) 
DiffSBDD

>  <Protein>  (1) 
generic_title2

$$$$
DiffSBDD_23
     RDKit          3D

  0  0  0  0  0  0  0  0  0  0999 V3000
M  V30 BEGIN CTAB
M  V30 COUNTS 57 60 0 0 1
M  V30 BEGIN ATOM
M  V30 1 C 11.661995 9.052206 -5.644220 0
M  V30 2 C 11.877724 6.059960 -2.529516 0
M  V30 3 F 6.544923 6.684425 -15.676562 0
M  V30 4 S 8.555351 5.472440 -12.488584 0 CHG=1
M  V30 5 C 7.633516 6.281333 -15.017498 0 CFG=1
M  V30 6 C 8.804744 7.114946 -11.717607 0
M  V30 7 C 6.959579 1.941489 -14.850400 0
M  V30 8 C 6.535213 4.260295 -14.003500 0
M  V30 9 C 8.632243 4.630189 -9.895631 0
M  V30 10 O 10.090332 5.846771 -8.420284 0
M  V30 11 O 9.102416 8.769371 -7.187085 0
M  V30 12 C 12.491803 9.246040 -4.524820 0
M  V30 13 C 9.497831 6.946631 -10.358374 0
M  V30 14 C 7.677389 4.768227 -11.075003 0
M  V30 15 C 10.891032 7.875141 -5.756128 0
M  V30 16 C 7.807054 3.971180 -16.159967 0 CFG=2
M  V30 17 C 7.186865 5.627957 -13.695776 0 CFG=1
M  V30 18 F 11.607635 9.993205 -6.608611 0
M  V30 19 C 12.559030 8.275589 -3.516435 0
M  V30 20 C 9.409247 5.872710 -9.597734 0
M  V30 21 S 10.463473 8.223560 -9.745496 0
M  V30 22 C 11.804627 7.095696 -3.624686 0
M  V30 23 C 10.661605 7.160241 -8.225458 0 CFG=1
M  V30 24 C 8.629333 3.084898 -17.120964 0
M  V30 25 C 8.460376 5.357390 -15.955536 0 CFG=2
M  V30 26 C 9.956156 7.673060 -6.945015 0 CFG=2
M  V30 27 O 9.774616 5.190257 -15.461441 0
M  V30 28 C 7.479298 3.322788 -14.788097 0 CFG=2
M  V30 29 C 6.544263 0.792627 -14.856396 0
M  V30 30 C 10.975374 6.887642 -4.750823 0
M  V30 31 H 12.192630 6.513365 -1.589350 0
M  V30 32 H 10.910689 5.590229 -2.364259 0
M  V30 33 H 12.606455 5.299152 -2.785767 0
M  V30 34 H 8.174993 7.190244 -14.784903 0
M  V30 35 H 9.388421 7.753777 -12.382000 0
M  V30 36 H 7.832217 7.590538 -11.584649 0
M  V30 37 H 5.643357 4.438086 -14.600046 0
M  V30 38 H 6.162458 3.779696 -13.102421 0
M  V30 39 H 9.375057 3.859847 -10.097236 0
M  V30 40 H 8.071508 4.388864 -8.993928 0
M  V30 41 H 8.440788 8.483615 -7.806952 0
M  V30 42 H 13.076525 10.139412 -4.440039 0
M  V30 43 H 6.830437 5.404469 -10.813153 0
M  V30 44 H 7.285037 3.787117 -11.321659 0
M  V30 45 H 6.862064 4.154097 -16.669322 0
M  V30 46 H 6.439723 6.268045 -13.225787 0
M  V30 47 H 13.193754 8.435800 -2.656759 0
M  V30 48 H 11.728731 7.032868 -8.039891 0
M  V30 49 H 9.585580 2.798377 -16.685811 0
M  V30 50 H 8.097362 2.171215 -17.384063 0
M  V30 51 H 8.840488 3.608603 -18.052848 0
M  V30 52 H 8.560843 5.836194 -16.930679 0
M  V30 53 H 9.253910 6.901948 -6.620402 0
M  V30 54 H 10.305265 5.928259 -15.721704 0
M  V30 55 H 8.408581 3.209981 -14.230490 0
M  V30 56 H 6.178660 -0.211336 -14.840698 0
M  V30 57 H 10.387178 5.986092 -4.828990 0
M  V30 END ATOM
M  V30 BEGIN BOND
M  V30 1 1 5 3
M  V30 2 1 4 6 CFG=1
M  V30 3 1 12 1
M  V30 4 1 13 6
M  V30 5 1 14 4
M  V30 6 1 14 9
M  V30 7 2 15 1
M  V30 8 1 17 4
M  V30 9 1 17 5
M  V30 10 1 17 8
M  V30 11 1 18 1
M  V30 12 2 19 12
M  V30 13 1 20 9
M  V30 14 1 20 10
M  V30 15 2 20 13
M  V30 16 1 21 13
M  V30 17 1 22 2
M  V30 18 1 22 19
M  V30 19 1 23 10
M  V30 20 1 23 21
M  V30 21 1 24 16
M  V30 22 1 25 5
M  V30 23 1 25 16
M  V30 24 1 26 11
M  V30 25 1 26 15
M  V30 26 1 26 23
M  V30 27 1 27 25
M  V30 28 1 28 7
M  V30 29 1 28 8
M  V30 30 1 28 16
M  V30 31 3 29 7
M  V30 32 1 30 15
M  V30 33 2 30 22
M  V30 34 1 31 2
M  V30 35 1 32 2
M  V30 36 1 33 2
M  V30 37 1 5 34 CFG=1
M  V30 38 1 35 6
M  V30 39 1 36 6
M  V30 40 1 37 8
M  V30 41 1 38 8
M  V30 42 1 39 9
M  V30 43 1 40 9
M  V30 44 1 41 11
M  V30 45 1 42 12
M  V30 46 1 43 14
M  V30 47 1 44 14
M  V30 48 1 16 45 CFG=3
M  V30 49 1 17 46 CFG=1
M  V30 50 1 47 19
M  V30 51 1 23 48 CFG=1
M  V30 52 1 49 24
M  V30 53 1 50 24
M  V30 54 1 51 24
M  V30 55 1 25 52 CFG=3
M  V30 56 1 26 53 CFG=1
M  V30 57 1 54 27
M  V30 58 1 28 55 CFG=1
M  V30 59 1 56 29
M  V30 60 1 57 30
M  V30 END BOND
M  V30 END CTAB
M  END
>  <i_epik_Tot_Q>  (1) 
1

>  <i_epik_Tot_abs_Q>  (1) 
1

>  <i_i_glide_confnum>  (1) 
36

>  <i_i_glide_lignum>  (1) 
70

>  <i_i_glide_posenum>  (1) 
127

>  <i_i_glide_rotatable_bonds>  (1) 
6

>  <i_lp_mmshare_version>  (1) 
72125

>  <i_m_source_file_index>  (1) 
24

>  <i_f3d_flags>  (1) 
0

>  <num_sample>  (1) 
50

>  <b_lp_Chiralities_Consistent>  (1) 
1

>  <r_epik_Charging_Adjusted_Penalty>  (1) 
0

>  <r_epik_Ionization_Penalty>  (1) 
0.0001931723336569867

>  <r_epik_Ionization_Penalty_Charging>  (1) 
0

>  <r_epik_Ionization_Penalty_Neutral>  (1) 
0.0001931723336569867

>  <r_epik_State_Penalty>  (1) 
-0

>  <r_glide_ring_energy>  (1) 
0

>  <r_i_docking_score>  (1) 
-4.840315255735268

>  <r_i_glide_ecoul>  (1) 
-4.4694732201909719

>  <r_i_glide_eff_state_penalty>  (1) 
-0

>  <r_i_glide_einternal>  (1) 
11.677460275583879

>  <r_i_glide_emodel>  (1) 
-35.246960446085694

>  <r_i_glide_emodel_strain>  (1) 
0.34213797406921742

>  <r_i_glide_energy>  (1) 
-35.338392121100121

>  <r_i_glide_erotb>  (1) 
0.39027100354639338

>  <r_i_glide_esite>  (1) 
0

>  <r_i_glide_evdw>  (1) 
-30.868918900909151

>  <r_i_glide_gscore>  (1) 
-4.840315255735268

>  <r_i_glide_gscore_strain>  (1) 
0

>  <r_i_glide_hbond>  (1) 
-0.081629545160126007

>  <r_i_glide_ligand_efficiency>  (1) 
-0.16134384185784226

>  <r_i_glide_ligand_efficiency_ln>  (1) 
-1.0997723655618632

>  <r_i_glide_ligand_efficiency_sa>  (1) 
-0.50133283005616636

>  <r_i_glide_lipo>  (1) 
-2.8074425688468172

>  <r_i_glide_metal>  (1) 
-0

>  <r_i_glide_rewards>  (1) 
-0.12764721720061395

>  <r_lp_Energy>  (1) 
9.4869079999999997

>  <r_lp_tautomer_probability>  (1) 
1

>  <s_epik_Chemistry_Notes>  (1) 
This compound contains an acetal/aminal-like group ( X-CH(R)-Y where X, Y are N, S, or O) that may be acid/base labile, releasing an aldehyde.

>  <s_epik_cmdline>  (1) 
J2VwaWtfcHl0aG9uJywgJy1waHQnLCAnMS4wJywgJy1waCcsICc3LjQnLCAnLXRuJywgJzgnLCAnLW1hJywgJzUwMCcsICctaW1hZScsICc8aW5maWxlLm1hZT4nLCAnLW9tYWUnLCAnPG91dGZpbGUubWFlPic=

>  <s_epik_input>  (1) 
RmMxW2NIXVtjSF1jKFtDSDNdKVtjSF1jMVtDQEBIXShbT0hdKVtDQEhdKFMyKU9DKD1DMjMpW0NIMl1bQ0gyXVtTK10oW0NIMl0zKVtDQEBIXShbQ0BASF00RilbQ0gyXVtDQEBIXShDI1tDSF0pW0NASF0oW0NIM10pW0NAQEhdNFtPSF0=

>  <s_glide_docking_method>  (1) 
confgen

>  <s_i_glide_gridfile>  (1) 
gpcr_drd2_6luq_protein_autoprepared_prepared

>  <s_lp_Force_Field>  (1) 
S-OPLS

>  <s_lp_Variant>  (1) 
DiffSBDD_23-1

>  <s_m_source_file>  (1) 
generated_generic_title2_ligand_DiffSBDD_2026-06-23_prepared.sdf

>  <GenAI_Model>  (1) 
DiffSBDD

>  <Protein>  (1) 
generic_title2

$$$$
DiffSBDD_25
     RDKit          3D

  0  0  0  0  0  0  0  0  0  0999 V3000
M  V30 BEGIN CTAB
M  V30 COUNTS 43 45 0 0 1
M  V30 BEGIN ATOM
M  V30 1 C 10.861749 7.959565 -6.781944 0 CFG=2
M  V30 2 C 11.811032 6.689803 -3.287794 0
M  V30 3 C 12.230338 7.873534 -2.662954 0
M  V30 4 C 11.347134 7.926478 -5.352368 0
M  V30 5 N 7.976711 6.783846 -12.701191 0 CHG=1
M  V30 6 N 10.177190 6.692001 -8.920135 0
M  V30 7 C 11.774370 9.114109 -4.714785 0
M  V30 8 C 9.375399 8.061872 -7.005548 0
M  V30 9 C 10.145747 7.590234 -11.989576 0
M  V30 10 C 8.909547 6.843855 -11.558144 0 CFG=2
M  V30 11 C 9.533845 5.478724 -9.439362 0 CFG=1
M  V30 12 C 10.106568 6.823590 -7.470651 0 CFG=2
M  V30 13 C 12.214571 9.084089 -3.374395 0
M  V30 14 C 7.254220 4.760552 -9.985048 0
M  V30 15 C 8.190012 4.441437 -11.139758 0
M  V30 16 C 8.175433 5.154668 -8.821744 0
M  V30 17 C 11.375135 6.712660 -4.627145 0
M  V30 18 C 9.301129 5.468522 -10.983753 0 CFG=1
M  V30 19 H 11.500105 8.596010 -7.392454 0
M  V30 20 H 11.823967 5.758564 -2.741513 0
M  V30 21 H 12.565206 7.853899 -1.636060 0
M  V30 22 H 8.393259 6.262259 -13.458486 0
M  V30 23 H 7.126651 6.328979 -12.400199 0
M  V30 24 H 11.143765 6.688351 -9.210045 0
M  V30 25 H 11.760536 10.049187 -5.254566 0
M  V30 26 H 8.711891 7.944622 -6.151487 0
M  V30 27 H 9.016360 8.747327 -7.772376 0
M  V30 28 H 10.840680 7.782529 -11.173934 0
M  V30 29 H 10.683994 7.073618 -12.784811 0
M  V30 30 H 9.810217 8.553964 -12.374931 0
M  V30 31 H 8.421324 7.425683 -10.785026 0
M  V30 32 H 10.175395 4.635215 -9.184741 0
M  V30 33 H 9.955814 5.925870 -6.876558 0
M  V30 34 H 12.538594 9.990255 -2.891807 0
M  V30 35 H 6.601114 3.925669 -9.731094 0
M  V30 36 H 6.599806 5.590296 -10.241422 0
M  V30 37 H 8.665029 3.476512 -11.017257 0
M  V30 38 H 7.688722 4.395324 -12.104575 0
M  V30 39 H 8.277858 4.342913 -8.103063 0
M  V30 40 H 7.774554 5.990231 -8.268381 0
M  V30 41 H 11.055408 5.797023 -5.096315 0
M  V30 42 H 10.175364 5.092384 -11.514466 0
M  V30 43 H 7.759178 7.722080 -13.004233 0
M  V30 END ATOM
M  V30 BEGIN BOND
M  V30 1 2 3 2
M  V30 2 1 4 1
M  V30 3 1 7 4
M  V30 4 1 8 1
M  V30 5 1 10 5
M  V30 6 1 10 9
M  V30 7 1 11 6
M  V30 8 1 12 1
M  V30 9 1 12 6
M  V30 10 1 12 8
M  V30 11 1 13 3
M  V30 12 2 13 7
M  V30 13 1 15 14
M  V30 14 1 16 11
M  V30 15 1 16 14
M  V30 16 1 17 2
M  V30 17 2 17 4
M  V30 18 1 18 10
M  V30 19 1 18 11
M  V30 20 1 18 15
M  V30 21 1 1 19 CFG=3
M  V30 22 1 20 2
M  V30 23 1 21 3
M  V30 24 1 22 5
M  V30 25 1 23 5
M  V30 26 1 24 6
M  V30 27 1 25 7
M  V30 28 1 26 8
M  V30 29 1 27 8
M  V30 30 1 28 9
M  V30 31 1 29 9
M  V30 32 1 30 9
M  V30 33 1 10 31 CFG=1
M  V30 34 1 11 32 CFG=3
M  V30 35 1 12 33 CFG=1
M  V30 36 1 34 13
M  V30 37 1 35 14
M  V30 38 1 36 14
M  V30 39 1 37 15
M  V30 40 1 38 15
M  V30 41 1 39 16
M  V30 42 1 40 16
M  V30 43 1 41 17
M  V30 44 1 18 42 CFG=3
M  V30 45 1 43 5
M  V30 END BOND
M  V30 END CTAB
M  END
>  <i_epik_Tot_Q>  (1) 
1

>  <i_epik_Tot_abs_Q>  (1) 
1

>  <i_i_glide_confnum>  (1) 
117

>  <i_i_glide_lignum>  (1) 
75

>  <i_i_glide_posenum>  (1) 
91

>  <i_i_glide_rotatable_bonds>  (1) 
4

>  <i_lp_mmshare_version>  (1) 
72125

>  <i_m_source_file_index>  (1) 
26

>  <i_f3d_flags>  (1) 
0

>  <num_sample>  (1) 
50

>  <b_lp_Chiralities_Consistent>  (1) 
1

>  <r_epik_Charging_Adjusted_Penalty>  (1) 
0.70247939945427629

>  <r_epik_Ionization_Penalty>  (1) 
0.7024793994542764

>  <r_epik_Ionization_Penalty_Charging>  (1) 
0.00054833754919439773

>  <r_epik_Ionization_Penalty_Neutral>  (1) 
0.70193106190508203

>  <r_epik_State_Penalty>  (1) 
0.70193106190508192

>  <r_glide_ring_energy>  (1) 
0.83239578710708628

>  <r_i_docking_score>  (1) 
-4.8397873062697885

>  <r_i_glide_ecoul>  (1) 
-3.2110671242635842

>  <r_i_glide_eff_state_penalty>  (1) 
0.70193106190508192

>  <r_i_glide_einternal>  (1) 
4.3506552816255031

>  <r_i_glide_emodel>  (1) 
-34.606716737428258

>  <r_i_glide_emodel_strain>  (1) 
1.6024625860684267

>  <r_i_glide_energy>  (1) 
-28.920634647890708

>  <r_i_glide_erotb>  (1) 
0.86719654817177239

>  <r_i_glide_esite>  (1) 
-0.028603461227534828

>  <r_i_glide_evdw>  (1) 
-25.709567523627122

>  <r_i_glide_gscore>  (1) 
-5.5417183681748705

>  <r_i_glide_gscore_strain>  (1) 
0

>  <r_i_glide_hbond>  (1) 
0

>  <r_i_glide_ligand_efficiency>  (1) 
-0.26887707257054383

>  <r_i_glide_ligand_efficiency_ln>  (1) 
-1.2440423711298605

>  <r_i_glide_ligand_efficiency_sa>  (1) 
-0.70465727403933365

>  <r_i_glide_lipo>  (1) 
-2.212352567897784

>  <r_i_glide_metal>  (1) 
-0

>  <r_i_glide_rewards>  (1) 
-2.4008204424004309

>  <r_lp_Energy>  (1) 
26.397838999999998

>  <s_epik_cmdline>  (1) 
J2VwaWtfcHl0aG9uJywgJy1waHQnLCAnMS4wJywgJy1waCcsICc3LjQnLCAnLXRuJywgJzgnLCAnLW1hJywgJzUwMCcsICctaW1hZScsICc8aW5maWxlLm1hZT4nLCAnLW9tYWUnLCAnPG91dGZpbGUubWFlPic=

>  <s_epik_input>  (1) 
W2NIXTFbY0hdW2NIXVtjSF1bY0hdYzFbQ0BIXTJbQ0gyXVtDQEhdMltOSF1bQ0BIXTNbQ0gyXVtDSDJdW0NIMl1bQ0BIXTNbQ0BIXShbTkgyXSlbQ0gzXQ==

>  <s_glide_docking_method>  (1) 
confgen

>  <s_i_glide_gridfile>  (1) 
gpcr_drd2_6luq_protein_autoprepared_prepared

>  <s_lp_Force_Field>  (1) 
S-OPLS

>  <s_lp_Variant>  (1) 
DiffSBDD_25-4

>  <s_m_source_file>  (1) 
generated_generic_title2_ligand_DiffSBDD_2026-06-23_prepared.sdf

>  <GenAI_Model>  (1) 
DiffSBDD

>  <Protein>  (1) 
generic_title2

$$$$
DiffSBDD_30
     RDKit          3D

  0  0  0  0  0  0  0  0  0  0999 V3000
M  V30 BEGIN CTAB
M  V30 COUNTS 44 44 0 0 1
M  V30 BEGIN ATOM
M  V30 1 C 9.601489 6.734333 -10.343589 0
M  V30 2 N 12.175340 9.384528 -3.460737 0 CHG=-1
M  V30 3 C 7.685644 2.189470 -13.432713 0
M  V30 4 O 10.494042 7.859545 -6.314457 0
M  V30 5 C 12.516414 8.645931 -2.278927 0
M  V30 6 C 7.171215 3.582563 -13.013196 0
M  V30 7 O 9.002491 3.948140 -11.455766 0
M  V30 8 F 6.240299 3.425040 -12.068574 0
M  V30 9 N 6.591173 1.347390 -13.874680 0
M  V30 10 C 11.775378 8.424113 -4.336797 0
M  V30 11 C 10.642814 7.793374 -9.970429 0 CFG=2
M  V30 12 C 12.228075 7.230325 -2.732541 0
M  V30 13 C 8.985348 6.950307 -11.744308 0
M  V30 14 C 8.297530 4.535701 -12.525878 0 CFG=2
M  V30 15 F 11.775251 8.993952 -1.236860 0
M  V30 16 F 13.790258 8.790212 -1.984563 0
M  V30 17 C 11.301116 8.863313 -5.708524 0
M  V30 18 O 12.405166 6.272480 -1.985015 0
M  V30 19 N 10.129177 8.308848 -7.628854 0
M  V30 20 F 6.596433 4.136077 -14.082992 0
M  V30 21 O 11.775375 7.590225 -10.784753 0
M  V30 22 C 11.094988 7.674283 -8.510337 0
M  V30 23 O 6.818215 5.990224 -11.184985 0
M  V30 24 N 11.775410 7.192130 -4.023211 0
M  V30 25 C 7.849896 5.979239 -12.152608 0 CFG=1
M  V30 26 H 10.069232 5.758516 -10.255542 0
M  V30 27 H 8.816563 6.736599 -9.593465 0
M  V30 28 H 8.405639 2.278379 -14.244601 0
M  V30 29 H 8.190595 1.689430 -12.606219 0
M  V30 30 H 9.265934 3.070564 -11.688412 0
M  V30 31 H 5.923922 1.253912 -13.121501 0
M  V30 32 H 6.101364 1.809890 -14.626816 0
M  V30 33 H 10.251948 8.790232 -10.159534 0
M  V30 34 H 8.591947 7.967039 -11.785773 0
M  V30 35 H 9.775413 6.909605 -12.494224 0
M  V30 36 H 9.021481 4.622208 -13.337626 0
M  V30 37 H 12.176306 9.092146 -6.316451 0
M  V30 38 H 10.723249 9.784234 -5.606950 0
M  V30 39 H 9.206851 7.916309 -7.788352 0
M  V30 40 H 12.396186 8.279717 -10.601578 0
M  V30 41 H 11.230583 6.626077 -8.237366 0
M  V30 42 H 12.057567 8.167864 -8.374150 0
M  V30 43 H 6.975381 6.696018 -10.549465 0
M  V30 44 H 7.400673 6.401810 -13.051893 0
M  V30 END ATOM
M  V30 BEGIN BOND
M  V30 1 1 5 2
M  V30 2 1 6 3
M  V30 3 1 8 6
M  V30 4 1 9 3
M  V30 5 1 10 2
M  V30 6 1 11 1
M  V30 7 1 12 5
M  V30 8 1 13 1
M  V30 9 1 14 6
M  V30 10 1 14 7
M  V30 11 1 15 5
M  V30 12 1 16 5
M  V30 13 1 17 4
M  V30 14 1 17 10
M  V30 15 2 18 12
M  V30 16 1 19 4
M  V30 17 1 20 6
M  V30 18 1 21 11
M  V30 19 1 22 11
M  V30 20 1 22 19
M  V30 21 2 24 10
M  V30 22 1 24 12
M  V30 23 1 25 13
M  V30 24 1 25 14
M  V30 25 1 25 23
M  V30 26 1 26 1
M  V30 27 1 27 1
M  V30 28 1 28 3
M  V30 29 1 29 3
M  V30 30 1 30 7
M  V30 31 1 31 9
M  V30 32 1 32 9
M  V30 33 1 11 33 CFG=1
M  V30 34 1 34 13
M  V30 35 1 35 13
M  V30 36 1 14 36 CFG=3
M  V30 37 1 37 17
M  V30 38 1 38 17
M  V30 39 1 39 19
M  V30 40 1 40 21
M  V30 41 1 41 22
M  V30 42 1 42 22
M  V30 43 1 43 23
M  V30 44 1 25 44 CFG=3
M  V30 END BOND
M  V30 END CTAB
M  END
>  <i_epik_Tot_Q>  (1) 
-1

>  <i_epik_Tot_abs_Q>  (1) 
1

>  <i_i_glide_confnum>  (1) 
1578

>  <i_i_glide_lignum>  (1) 
90

>  <i_i_glide_posenum>  (1) 
347

>  <i_i_glide_rotatable_bonds>  (1) 
14

>  <i_lp_mmshare_version>  (1) 
72125

>  <i_m_source_file_index>  (1) 
31

>  <i_f3d_flags>  (1) 
0

>  <num_sample>  (1) 
50

>  <b_lp_Chiralities_Consistent>  (1) 
1

>  <r_epik_Charging_Adjusted_Penalty>  (1) 
0.29689953438897132

>  <r_epik_Ionization_Penalty>  (1) 
0.29704553669164502

>  <r_epik_Ionization_Penalty_Charging>  (1) 
1.7526919545429853e-05

>  <r_epik_Ionization_Penalty_Neutral>  (1) 
0.29702800977209959

>  <r_epik_State_Penalty>  (1) 
0.29688200746942589

>  <r_glide_ring_energy>  (1) 
0

>  <r_i_docking_score>  (1) 
-4.8300815287239116

>  <r_i_glide_ecoul>  (1) 
-7.1194863428126336

>  <r_i_glide_eff_state_penalty>  (1) 
0.29688200746942589

>  <r_i_glide_einternal>  (1) 
11.031491343752137

>  <r_i_glide_emodel>  (1) 
-44.141219031842319

>  <r_i_glide_emodel_strain>  (1) 
1.277323880462049

>  <r_i_glide_energy>  (1) 
-37.811421807224157

>  <r_i_glide_erotb>  (1) 
1.2361090002768802

>  <r_i_glide_esite>  (1) 
-0.00099674854495554466

>  <r_i_glide_evdw>  (1) 
-30.691935464411525

>  <r_i_glide_gscore>  (1) 
-5.1269635361933377

>  <r_i_glide_gscore_strain>  (1) 
0

>  <r_i_glide_hbond>  (1) 
-0.16

>  <r_i_glide_ligand_efficiency>  (1) 
-0.19320326114895647

>  <r_i_glide_ligand_efficiency_ln>  (1) 
-1.1448740681707086

>  <r_i_glide_ligand_efficiency_sa>  (1) 
-0.56492976268012141

>  <r_i_glide_lipo>  (1) 
-1.2811272722061691

>  <r_i_glide_metal>  (1) 
-0

>  <r_i_glide_rewards>  (1) 
-2.3184287910766215

>  <r_lp_Energy>  (1) 
20.216013999999998

>  <s_epik_Chemistry_Notes>  (1) 
This compound has an imine and may undergo hydrolysis. This compound has a N-S or N-O group and may undergo hydrolysis at high or low pH.

>  <s_epik_cmdline>  (1) 
J2VwaWtfcHl0aG9uJywgJy1waHQnLCAnMS4wJywgJy1waCcsICc3LjQnLCAnLXRuJywgJzgnLCAnLW1hJywgJzUwMCcsICctaW1hZScsICc8aW5maWxlLm1hZT4nLCAnLW9tYWUnLCAnPG91dGZpbGUubWFlPic=

>  <s_epik_input>  (1) 
W05IMl1bQ0gyXUMoRikoRilbQ0BASF0oW09IXSlbQ0BASF0oW09IXSlbQ0gyXVtDSDJdW0NASF0oW09IXSlbQ0gyXVtOSF1PW0NIMl1DKD1OQzEoRilGKVtOSF1DMT1P

>  <s_glide_docking_method>  (1) 
confgen

>  <s_i_glide_gridfile>  (1) 
gpcr_drd2_6luq_protein_autoprepared_prepared

>  <s_lp_Force_Field>  (1) 
S-OPLS

>  <s_lp_Variant>  (1) 
DiffSBDD_30-2

>  <s_m_source_file>  (1) 
generated_generic_title2_ligand_DiffSBDD_2026-06-23_prepared.sdf

>  <GenAI_Model>  (1) 
DiffSBDD

>  <Protein>  (1) 
generic_title2

$$$$
DiffSBDD_39
     RDKit          3D

  0  0  0  0  0  0  0  0  0  0999 V3000
M  V30 BEGIN CTAB
M  V30 COUNTS 68 71 0 0 1
M  V30 BEGIN ATOM
M  V30 1 C 9.461000 6.390060 -12.861986 0
M  V30 2 F 8.753886 8.632815 -5.985040 0
M  V30 3 F 9.775560 6.958308 -4.986283 0
M  V30 4 C 7.240141 5.849408 -20.398934 0
M  V30 5 C 7.775308 6.637379 -14.730025 0
M  V30 6 C 6.175133 4.782832 -15.019103 0 CFG=1
M  V30 7 O 6.843579 4.498408 -20.527487 0
M  V30 8 C 10.350397 7.845147 -8.479006 0 CFG=2
M  V30 9 C 8.091859 3.998187 -11.842708 0
M  V30 10 C 6.171725 6.731228 -16.671348 0 CFG=2
M  V30 11 O 12.175542 9.190344 -9.196882 0
M  V30 12 C 9.523215 4.323008 -11.476674 0
M  V30 13 N 9.775928 5.774472 -11.575340 0 CFG=2 CHG=1
M  V30 14 C 11.101448 8.679645 -5.801224 0
M  V30 15 C 8.025973 6.120505 -13.288409 0 CFG=1
M  V30 16 C 9.322368 6.567696 -10.424309 0
M  V30 17 O 11.495315 9.336003 -7.001010 0
M  V30 18 C 6.363388 4.336991 -13.582994 0
M  V30 19 N 6.482070 6.208821 -15.289031 0 CFG=2 CHG=1
M  V30 20 C 6.505857 6.566532 -19.243768 0 CFG=1
M  V30 21 C 4.975604 6.591390 -19.422432 0
M  V30 22 C 10.575065 6.893464 -9.640527 0
M  V30 23 C 7.790899 4.608796 -13.189933 0 CFG=2
M  V30 24 C 11.692817 8.481920 -8.083477 0 CFG=1
M  V30 25 C 9.808416 7.101537 -7.276960 0
M  V30 26 C 4.313037 7.377034 -18.285184 0
M  V30 27 C 9.822549 7.842542 -5.982174 0
M  V30 28 O 9.371136 5.954665 -7.360933 0
M  V30 29 C 4.649788 6.816073 -16.904262 0
M  V30 30 O 6.975482 4.040625 -15.748202 0 CHG=-1
M  V30 31 C 6.859568 5.991508 -17.859956 0
M  V30 32 H 10.160914 5.989981 -13.593358 0
M  V30 33 H 9.656212 7.460293 -12.785132 0
M  V30 34 H 8.317824 5.878173 -20.232745 0
M  V30 35 H 7.054476 6.363038 -21.344501 0
M  V30 36 H 8.562925 6.282599 -15.399540 0
M  V30 37 H 7.775555 7.725012 -14.729633 0
M  V30 38 H 5.116041 4.832159 -15.027604 0
M  V30 39 H 5.920036 4.472269 -20.724239 0
M  V30 40 H 9.653483 8.641392 -8.745376 0
M  V30 41 H 7.997793 2.921967 -11.985269 0
M  V30 42 H 7.389926 4.335860 -11.079013 0
M  V30 43 H 6.530072 7.761098 -16.693221 0
M  V30 44 H 13.061491 9.487013 -9.026332 0
M  V30 45 H 10.175477 3.815059 -12.184845 0
M  V30 46 H 9.772634 3.952834 -10.483666 0
M  V30 47 H 10.946565 9.435775 -5.030376 0
M  V30 48 H 11.907769 8.047010 -5.439869 0
M  V30 49 H 7.350105 6.632981 -12.602330 0
M  V30 50 H 8.853935 7.501216 -10.746331 0
M  V30 51 H 8.569508 6.038771 -9.839416 0
M  V30 52 H 6.119933 3.276250 -13.489221 0
M  V30 53 H 5.681869 4.874326 -12.919666 0
M  V30 54 H 6.856994 7.590408 -19.264363 0
M  V30 55 H 4.715609 7.039277 -20.381531 0
M  V30 56 H 4.574992 5.579242 -19.436197 0
M  V30 57 H 10.974903 5.990096 -9.201257 0
M  V30 58 H 11.329064 7.266168 -10.334998 0
M  V30 59 H 8.481174 4.110924 -13.870557 0
M  V30 60 H 12.443700 7.729976 -7.828043 0
M  V30 61 H 4.681354 8.390257 -18.344226 0
M  V30 62 H 3.229268 7.419919 -18.386874 0
M  V30 63 H 4.200241 7.458677 -16.147602 0
M  V30 64 H 4.184979 5.837139 -16.805449 0
M  V30 65 H 6.531627 4.955185 -17.907789 0
M  V30 66 H 7.940558 5.971468 -17.724488 0
M  V30 67 H 10.783462 5.841335 -11.584899 0
M  V30 68 H 5.818327 6.694838 -14.706140 0
M  V30 END ATOM
M  V30 BEGIN BOND
M  V30 1 1 7 4
M  V30 2 1 12 9
M  V30 3 1 13 1
M  V30 4 1 13 12
M  V30 5 1 15 1
M  V30 6 1 15 5
M  V30 7 1 16 13
M  V30 8 1 17 14
M  V30 9 1 18 6
M  V30 10 1 19 5
M  V30 11 1 19 6
M  V30 12 1 19 10
M  V30 13 1 20 4
M  V30 14 1 21 20
M  V30 15 1 22 8
M  V30 16 1 22 16
M  V30 17 1 23 9
M  V30 18 1 23 15
M  V30 19 1 23 18
M  V30 20 1 24 8
M  V30 21 1 24 11
M  V30 22 1 24 17
M  V30 23 1 25 8
M  V30 24 1 26 21
M  V30 25 1 27 2
M  V30 26 1 27 3
M  V30 27 1 27 14
M  V30 28 1 27 25
M  V30 29 2 28 25
M  V30 30 1 29 10
M  V30 31 1 29 26
M  V30 32 1 30 6
M  V30 33 1 31 10
M  V30 34 1 31 20
M  V30 35 1 32 1
M  V30 36 1 33 1
M  V30 37 1 34 4
M  V30 38 1 35 4
M  V30 39 1 36 5
M  V30 40 1 37 5
M  V30 41 1 6 38 CFG=3
M  V30 42 1 39 7
M  V30 43 1 8 40 CFG=3
M  V30 44 1 41 9
M  V30 45 1 42 9
M  V30 46 1 10 43 CFG=1
M  V30 47 1 44 11
M  V30 48 1 45 12
M  V30 49 1 46 12
M  V30 50 1 47 14
M  V30 51 1 48 14
M  V30 52 1 15 49 CFG=1
M  V30 53 1 50 16
M  V30 54 1 51 16
M  V30 55 1 52 18
M  V30 56 1 53 18
M  V30 57 1 20 54 CFG=1
M  V30 58 1 55 21
M  V30 59 1 56 21
M  V30 60 1 57 22
M  V30 61 1 58 22
M  V30 62 1 23 59 CFG=3
M  V30 63 1 24 60 CFG=1
M  V30 64 1 61 26
M  V30 65 1 62 26
M  V30 66 1 63 29
M  V30 67 1 64 29
M  V30 68 1 65 31
M  V30 69 1 66 31
M  V30 70 1 13 67 CFG=1
M  V30 71 1 19 68 CFG=1
M  V30 END BOND
M  V30 END CTAB
M  END
>  <i_epik_Tot_Q>  (1) 
1

>  <i_epik_Tot_abs_Q>  (1) 
3

>  <i_i_glide_confnum>  (1) 
312

>  <i_i_glide_lignum>  (1) 
108

>  <i_i_glide_posenum>  (1) 
211

>  <i_i_glide_rotatable_bonds>  (1) 
7

>  <i_lp_mmshare_version>  (1) 
72125

>  <i_m_source_file_index>  (1) 
40

>  <i_f3d_flags>  (1) 
0

>  <num_sample>  (1) 
50

>  <b_lp_Chiralities_Consistent>  (1) 
1

>  <r_epik_Charging_Adjusted_Penalty>  (1) 
0.43569023002306473

>  <r_epik_Ionization_Penalty>  (1) 
0.17475065349743213

>  <r_epik_Ionization_Penalty_Charging>  (1) 
0.17468327186895813

>  <r_epik_Ionization_Penalty_Neutral>  (1) 
6.7381628474014066e-05

>  <r_epik_State_Penalty>  (1) 
0.26100695815410663

>  <r_glide_ring_energy>  (1) 
0

>  <r_i_docking_score>  (1) 
-4.8246322101815329

>  <r_i_glide_ecoul>  (1) 
-3.3026487215339051

>  <r_i_glide_eff_state_penalty>  (1) 
0.26100695815410663

>  <r_i_glide_einternal>  (1) 
6.0921913079056669

>  <r_i_glide_emodel>  (1) 
-25.108347571999296

>  <r_i_glide_emodel_strain>  (1) 
0.28473499255557044

>  <r_i_glide_energy>  (1) 
-19.924088235184236

>  <r_i_glide_erotb>  (1) 
0.49989103335302049

>  <r_i_glide_esite>  (1) 
-0.070756283320851335

>  <r_i_glide_evdw>  (1) 
-16.62143951365033

>  <r_i_glide_gscore>  (1) 
-5.0856391683356392

>  <r_i_glide_gscore_strain>  (1) 
0

>  <r_i_glide_hbond>  (1) 
-0.18628031147084495

>  <r_i_glide_ligand_efficiency>  (1) 
-0.1556332971026301

>  <r_i_glide_ligand_efficiency_ln>  (1) 
-1.0881024206161971

>  <r_i_glide_ligand_efficiency_sa>  (1) 
-0.48890342838608369

>  <r_i_glide_lipo>  (1) 
-2.2287496319853717

>  <r_i_glide_metal>  (1) 
-0

>  <r_i_glide_rewards>  (1) 
-1.7732746909989898

>  <r_lp_Energy>  (1) 
51.063981999999996

>  <r_lp_tautomer_probability>  (1) 
0.99995000000000001

>  <s_epik_Chemistry_Notes>  (1) 
This compound contains an acetal/aminal-like group ( X-CH(R)-Y where X, Y are N, S, or O) that may be acid/base labile, releasing an aldehyde.

>  <s_epik_cmdline>  (1) 
J2VwaWtfcHl0aG9uJywgJy1waHQnLCAnMS4wJywgJy1waCcsICc3LjQnLCAnLXRuJywgJzgnLCAnLW1hJywgJzUwMCcsICctaW1hZScsICc8aW5maWxlLm1hZT4nLCAnLW9tYWUnLCAnPG91dGZpbGUubWFlPic=

>  <s_epik_input>  (1) 
RkMxKEYpW0NIMl1PW0NASF0oW09IXSlbQ0BIXShDMT1PKVtDSDJdW0NIMl1OKFtDSDJdMilbQ0gyXVtDSDJdW0NASF0oW0NAQEhdMjMpW0NIMl1bQ0BIXShbT0hdKU4oW0NIMl0zKVtDQEBIXTRbQ0gyXVtDSDJdW0NIMl1bQ0BASF0oW0NIMl00KVtDSDJdW09IXQ==

>  <s_glide_docking_method>  (1) 
confgen

>  <s_i_glide_gridfile>  (1) 
gpcr_drd2_6luq_protein_autoprepared_prepared

>  <s_lp_Force_Field>  (1) 
S-OPLS

>  <s_lp_Variant>  (1) 
DiffSBDD_39-4

>  <s_m_source_file>  (1) 
generated_generic_title2_ligand_DiffSBDD_2026-06-23_prepared.sdf

>  <GenAI_Model>  (1) 
DiffSBDD

>  <Protein>  (1) 
generic_title2

$$$$
DiffSBDD_30
     RDKit          3D

  0  0  0  0  0  0  0  0  0  0999 V3000
M  V30 BEGIN CTAB
M  V30 COUNTS 44 44 0 0 1
M  V30 BEGIN ATOM
M  V30 1 C 10.091705 6.892058 -8.782089 0
M  V30 2 N 6.169821 6.705356 -13.937081 0 CHG=-1
M  V30 3 C 11.894676 7.569992 -3.865536 0
M  V30 4 O 8.320977 4.298864 -12.459433 0
M  V30 5 C 6.201123 7.183179 -15.287628 0
M  V30 6 C 11.981310 8.988116 -4.471117 0
M  V30 7 O 11.775337 10.390148 -6.385127 0
M  V30 8 F 13.134125 9.540789 -4.083361 0
M  V30 9 N 12.175342 7.612846 -2.441116 0
M  V30 10 C 6.771530 5.482961 -14.006918 0
M  V30 11 C 9.998596 6.826612 -10.313959 0 CFG=2
M  V30 12 C 6.821462 5.990061 -15.993509 0
M  V30 13 C 10.985080 8.027824 -8.235453 0
M  V30 14 C 11.938073 9.043221 -6.023144 0 CFG=2
M  V30 15 F 6.975342 8.262722 -15.382948 0
M  V30 16 F 4.975427 7.422562 -15.746782 0
M  V30 17 C 6.969421 4.704873 -12.709109 0
M  V30 18 O 6.975112 5.979330 -17.215047 0
M  V30 19 N 9.131909 5.467352 -12.192713 0
M  V30 20 F 10.975417 9.702984 -3.961695 0
M  V30 21 O 9.375369 8.010732 -10.745852 0
M  V30 22 C 9.135625 5.625298 -10.746420 0
M  V30 23 O 9.580154 8.580064 -6.385026 0
M  V30 24 N 7.158709 4.992928 -15.112284 0
M  V30 25 C 10.878255 8.133656 -6.704285 0 CFG=1
M  V30 26 H 9.077209 6.983975 -8.386067 0
M  V30 27 H 10.469777 5.939970 -8.406899 0
M  V30 28 H 10.915056 7.130089 -4.024552 0
M  V30 29 H 12.575423 6.882380 -4.351272 0
M  V30 30 H 10.881925 10.617036 -6.171323 0
M  V30 31 H 13.050612 8.100001 -2.308696 0
M  V30 32 H 11.479072 8.189202 -1.989703 0
M  V30 33 H 10.992503 6.790204 -10.756630 0
M  V30 34 H 12.018645 7.834313 -8.524506 0
M  V30 35 H 10.716472 8.982416 -8.689231 0
M  V30 36 H 12.911155 8.790238 -6.433079 0
M  V30 37 H 6.365301 3.799919 -12.770110 0
M  V30 38 H 6.565935 5.270609 -11.867993 0
M  V30 39 H 10.053674 5.227561 -12.531430 0
M  V30 40 H 8.467985 7.990324 -10.434919 0
M  V30 41 H 9.523423 4.706920 -10.304120 0
M  V30 42 H 8.118706 5.751076 -10.373341 0
M  V30 43 H 8.942493 8.017377 -6.805920 0
M  V30 44 H 10.988223 7.122960 -6.312227 0
M  V30 END ATOM
M  V30 BEGIN BOND
M  V30 1 1 5 2
M  V30 2 1 6 3
M  V30 3 1 8 6
M  V30 4 1 9 3
M  V30 5 1 10 2
M  V30 6 1 11 1
M  V30 7 1 12 5
M  V30 8 1 13 1
M  V30 9 1 14 6
M  V30 10 1 14 7
M  V30 11 1 15 5
M  V30 12 1 16 5
M  V30 13 1 17 4
M  V30 14 1 17 10
M  V30 15 2 18 12
M  V30 16 1 19 4
M  V30 17 1 20 6
M  V30 18 1 21 11
M  V30 19 1 22 11
M  V30 20 1 22 19
M  V30 21 2 24 10
M  V30 22 1 24 12
M  V30 23 1 25 13
M  V30 24 1 25 14
M  V30 25 1 25 23
M  V30 26 1 26 1
M  V30 27 1 27 1
M  V30 28 1 28 3
M  V30 29 1 29 3
M  V30 30 1 30 7
M  V30 31 1 31 9
M  V30 32 1 32 9
M  V30 33 1 11 33 CFG=3
M  V30 34 1 34 13
M  V30 35 1 35 13
M  V30 36 1 14 36 CFG=3
M  V30 37 1 37 17
M  V30 38 1 38 17
M  V30 39 1 39 19
M  V30 40 1 40 21
M  V30 41 1 41 22
M  V30 42 1 42 22
M  V30 43 1 43 23
M  V30 44 1 25 44 CFG=1
M  V30 END BOND
M  V30 END CTAB
M  END
>  <i_epik_Tot_Q>  (1) 
-1

>  <i_epik_Tot_abs_Q>  (1) 
1

>  <i_i_glide_confnum>  (1) 
982

>  <i_i_glide_lignum>  (1) 
90

>  <i_i_glide_posenum>  (1) 
212

>  <i_i_glide_rotatable_bonds>  (1) 
14

>  <i_lp_mmshare_version>  (1) 
72125

>  <i_m_source_file_index>  (1) 
31

>  <i_f3d_flags>  (1) 
0

>  <num_sample>  (1) 
50

>  <b_lp_Chiralities_Consistent>  (1) 
1

>  <r_epik_Charging_Adjusted_Penalty>  (1) 
0.29689953438897132

>  <r_epik_Ionization_Penalty>  (1) 
0.29704553669164502

>  <r_epik_Ionization_Penalty_Charging>  (1) 
1.7526919545429853e-05

>  <r_epik_Ionization_Penalty_Neutral>  (1) 
0.29702800977209959

>  <r_epik_State_Penalty>  (1) 
0.29688200746942589

>  <r_glide_ring_energy>  (1) 
0

>  <r_i_docking_score>  (1) 
-4.824277537806088

>  <r_i_glide_ecoul>  (1) 
-5.4932822873925753

>  <r_i_glide_eff_state_penalty>  (1) 
0.29688200746942589

>  <r_i_glide_einternal>  (1) 
15.420550337914168

>  <r_i_glide_emodel>  (1) 
-39.929285188423144

>  <r_i_glide_emodel_strain>  (1) 
0.17387815887622793

>  <r_i_glide_energy>  (1) 
-34.705427510957534

>  <r_i_glide_erotb>  (1) 
1.2361090002768802

>  <r_i_glide_esite>  (1) 
0

>  <r_i_glide_evdw>  (1) 
-29.21214522356496

>  <r_i_glide_gscore>  (1) 
-5.1211595452755141

>  <r_i_glide_gscore_strain>  (1) 
0

>  <r_i_glide_hbond>  (1) 
-0.16

>  <r_i_glide_ligand_efficiency>  (1) 
-0.19297110151224353

>  <r_i_glide_ligand_efficiency_ln>  (1) 
-1.1434983483916121

>  <r_i_glide_ligand_efficiency_sa>  (1) 
-0.56425092378427577

>  <r_i_glide_lipo>  (1) 
-1.465439264111654

>  <r_i_glide_metal>  (1) 
-0

>  <r_i_glide_rewards>  (1) 
-2.4472296771536062

>  <r_lp_Energy>  (1) 
20.216013999999998

>  <s_epik_Chemistry_Notes>  (1) 
This compound has an imine and may undergo hydrolysis. This compound has a N-S or N-O group and may undergo hydrolysis at high or low pH.

>  <s_epik_cmdline>  (1) 
J2VwaWtfcHl0aG9uJywgJy1waHQnLCAnMS4wJywgJy1waCcsICc3LjQnLCAnLXRuJywgJzgnLCAnLW1hJywgJzUwMCcsICctaW1hZScsICc8aW5maWxlLm1hZT4nLCAnLW9tYWUnLCAnPG91dGZpbGUubWFlPic=

>  <s_epik_input>  (1) 
W05IMl1bQ0gyXUMoRikoRilbQ0BASF0oW09IXSlbQ0BASF0oW09IXSlbQ0gyXVtDSDJdW0NASF0oW09IXSlbQ0gyXVtOSF1PW0NIMl1DKD1OQzEoRilGKVtOSF1DMT1P

>  <s_glide_docking_method>  (1) 
confgen

>  <s_i_glide_gridfile>  (1) 
gpcr_drd2_6luq_protein_autoprepared_prepared

>  <s_lp_Force_Field>  (1) 
S-OPLS

>  <s_lp_Variant>  (1) 
DiffSBDD_30-2

>  <s_m_source_file>  (1) 
generated_generic_title2_ligand_DiffSBDD_2026-06-23_prepared.sdf

>  <GenAI_Model>  (1) 
DiffSBDD

>  <Protein>  (1) 
generic_title2

$$$$
DiffSBDD_8
     RDKit          3D

  0  0  0  0  0  0  0  0  0  0999 V3000
M  V30 BEGIN CTAB
M  V30 COUNTS 69 72 0 0 1
M  V30 BEGIN ATOM
M  V30 1 N 11.491030 7.554191 -7.421655 0
M  V30 2 C 11.343851 9.701156 -4.264810 0
M  V30 3 C 9.199364 5.777278 -9.650412 0 CFG=1
M  V30 4 N 11.877842 7.918510 -2.946076 0
M  V30 5 O 11.636364 7.190355 -11.253702 0
M  V30 6 C 7.080319 7.623505 -12.528500 0
M  V30 7 F 10.716360 6.345444 -4.087683 0
M  V30 8 C 5.843214 6.806888 -12.941701 0
M  V30 9 N 8.201460 6.775309 -12.174167 0
M  V30 10 C 9.345089 7.492373 -11.591292 0 CFG=1
M  V30 11 C 11.599928 7.319922 -4.243467 0 CFG=1
M  V30 12 C 9.415211 4.679757 -16.475473 0
M  V30 13 C 9.551442 7.209262 -10.094917 0 CFG=2
M  V30 14 O 10.510459 5.590179 -12.448307 0
M  V30 15 O 12.975402 7.219939 -2.376508 0
M  V30 16 C 5.811434 6.380096 -14.422841 0
M  V30 17 C 11.547868 8.856568 -9.645606 0
M  V30 18 C 11.190881 6.202326 -6.952464 0
M  V30 19 C 11.937784 7.651944 -8.797181 0 CFG=2
M  V30 20 C 10.996286 8.447182 -5.118795 0 CFG=2
M  V30 21 C 11.460114 8.639135 -6.588607 0
M  V30 22 C 8.547822 5.427986 -8.322211 0
M  V30 23 C 10.655821 6.958912 -12.212681 0 CFG=2
M  V30 24 C 11.030188 7.488454 -9.998256 0 CFG=2
M  V30 25 O 10.244041 3.787139 -17.185330 0
M  V30 26 O 11.775468 9.756960 -6.969250 0
M  V30 27 C 7.941753 4.293733 -16.674912 0
M  V30 28 C 12.523007 5.989961 -1.845396 0
M  V30 29 C 12.393969 9.227578 -3.280000 0
M  V30 30 O 7.076648 5.277846 -16.125129 0
M  V30 31 C 6.805012 5.287167 -14.811283 0
M  V30 32 N 7.775798 5.589876 -9.524265 0 CHG=1
M  V30 33 O 7.282221 4.509715 -13.982252 0
M  V30 34 H 11.678711 10.588496 -4.796633 0
M  V30 35 H 10.502604 10.053972 -3.682256 0
M  V30 36 H 9.642067 4.950093 -10.198610 0
M  V30 37 H 7.385303 8.299926 -13.327165 0
M  V30 38 H 6.817221 8.247216 -11.673422 0
M  V30 39 H 4.976311 7.441095 -12.763993 0
M  V30 40 H 5.704483 5.949720 -12.281309 0
M  V30 41 H 8.512798 6.214512 -12.965775 0
M  V30 42 H 9.296159 8.565578 -11.777685 0
M  V30 43 H 12.504058 6.864251 -4.627088 0
M  V30 44 H 9.690803 4.663122 -15.420358 0
M  V30 45 H 9.589875 5.688178 -16.848338 0
M  V30 46 H 9.007433 7.920369 -9.472765 0
M  V30 47 H 11.265606 5.270112 -12.934703 0
M  V30 48 H 5.969378 7.248523 -15.061704 0
M  V30 49 H 4.823579 5.992447 -14.668485 0
M  V30 50 H 12.331516 9.296096 -10.261425 0
M  V30 51 H 10.808593 9.561620 -9.275476 0
M  V30 52 H 10.248604 6.151264 -6.408743 0
M  V30 53 H 11.103803 5.512446 -7.787759 0
M  V30 54 H 11.998209 5.792670 -6.347589 0
M  V30 55 H 12.930156 7.261820 -8.986112 0
M  V30 56 H 9.916990 8.331211 -5.185069 0
M  V30 57 H 8.480471 4.394908 -7.989251 0
M  V30 58 H 8.243778 6.203503 -7.621519 0
M  V30 59 H 10.960139 7.413101 -13.167305 0
M  V30 60 H 10.159961 2.922298 -16.812494 0
M  V30 61 H 7.725375 4.233667 -17.741704 0
M  V30 62 H 7.729439 3.308223 -16.257166 0
M  V30 63 H 13.246618 5.595365 -1.135058 0
M  V30 64 H 11.558930 6.062971 -1.344362 0
M  V30 65 H 12.448040 5.267290 -2.651172 0
M  V30 66 H 13.373917 9.159656 -3.752683 0
M  V30 67 H 12.471646 9.875394 -2.409694 0
M  V30 68 H 7.295674 6.508535 -9.585492 0
M  V30 69 H 7.400867 4.772242 -9.978328 0
M  V30 END ATOM
M  V30 BEGIN BOND
M  V30 1 1 8 6
M  V30 2 1 9 6
M  V30 3 1 10 9
M  V30 4 1 11 4
M  V30 5 1 11 7
M  V30 6 1 13 3
M  V30 7 1 13 10
M  V30 8 1 15 4
M  V30 9 1 16 8
M  V30 10 1 18 1
M  V30 11 1 19 1
M  V30 12 1 19 17
M  V30 13 1 20 2
M  V30 14 1 20 11
M  V30 15 1 21 1
M  V30 16 1 21 20
M  V30 17 1 22 3
M  V30 18 1 23 5
M  V30 19 1 23 10
M  V30 20 1 23 14
M  V30 21 1 24 5 CFG=3
M  V30 22 1 24 13
M  V30 23 1 24 17
M  V30 24 1 24 19
M  V30 25 1 25 12
M  V30 26 2 26 21
M  V30 27 1 27 12
M  V30 28 1 28 15
M  V30 29 1 29 2
M  V30 30 1 29 4
M  V30 31 1 30 27
M  V30 32 1 31 16
M  V30 33 1 31 30
M  V30 34 1 32 3
M  V30 35 1 32 22
M  V30 36 2 33 31
M  V30 37 1 34 2
M  V30 38 1 35 2
M  V30 39 1 3 36 CFG=3
M  V30 40 1 37 6
M  V30 41 1 38 6
M  V30 42 1 39 8
M  V30 43 1 40 8
M  V30 44 1 41 9
M  V30 45 1 10 42 CFG=1
M  V30 46 1 11 43 CFG=3
M  V30 47 1 44 12
M  V30 48 1 45 12
M  V30 49 1 13 46 CFG=1
M  V30 50 1 47 14
M  V30 51 1 48 16
M  V30 52 1 49 16
M  V30 53 1 50 17
M  V30 54 1 51 17
M  V30 55 1 52 18
M  V30 56 1 53 18
M  V30 57 1 54 18
M  V30 58 1 19 55 CFG=3
M  V30 59 1 20 56 CFG=3
M  V30 60 1 57 22
M  V30 61 1 58 22
M  V30 62 1 23 59 CFG=3
M  V30 63 1 60 25
M  V30 64 1 61 27
M  V30 65 1 62 27
M  V30 66 1 63 28
M  V30 67 1 64 28
M  V30 68 1 65 28
M  V30 69 1 66 29
M  V30 70 1 67 29
M  V30 71 1 68 32
M  V30 72 1 69 32
M  V30 END BOND
M  V30 END CTAB
M  END
>  <i_epik_Tot_Q>  (1) 
1

>  <i_epik_Tot_abs_Q>  (1) 
1

>  <i_i_glide_confnum>  (1) 
6782

>  <i_i_glide_lignum>  (1) 
39

>  <i_i_glide_posenum>  (1) 
4

>  <i_i_glide_rotatable_bonds>  (1) 
15

>  <i_lp_mmshare_version>  (1) 
72125

>  <i_m_source_file_index>  (1) 
9

>  <i_f3d_flags>  (1) 
0

>  <num_sample>  (1) 
50

>  <b_lp_Chiralities_Consistent>  (1) 
1

>  <r_epik_Charging_Adjusted_Penalty>  (1) 
1.2103720943885907

>  <r_epik_Ionization_Penalty>  (1) 
0.55446808147534954

>  <r_epik_Ionization_Penalty_Charging>  (1) 
0.13553905892425583

>  <r_epik_Ionization_Penalty_Neutral>  (1) 
0.41892902255109377

>  <r_epik_State_Penalty>  (1) 
1.074833035464335

>  <r_glide_ring_energy>  (1) 
0

>  <r_i_docking_score>  (1) 
-4.8165314869316891

>  <r_i_glide_ecoul>  (1) 
-13.693641678178494

>  <r_i_glide_eff_state_penalty>  (1) 
1.074833035464335

>  <r_i_glide_einternal>  (1) 
23.892629153024458

>  <r_i_glide_emodel>  (1) 
-33.149664216784075

>  <r_i_glide_emodel_strain>  (1) 
7.5900212474274298

>  <r_i_glide_energy>  (1) 
-38.812170756619011

>  <r_i_glide_erotb>  (1) 
0.75193335839130926

>  <r_i_glide_esite>  (1) 
-0.10000000000000001

>  <r_i_glide_evdw>  (1) 
-25.11852907844052

>  <r_i_glide_gscore>  (1) 
-5.8913645223960245

>  <r_i_glide_gscore_strain>  (1) 
0.89750531185685745

>  <r_i_glide_hbond>  (1) 
-0.44701383548738505

>  <r_i_glide_ligand_efficiency>  (1) 
-0.14595549960399057

>  <r_i_glide_ligand_efficiency_ln>  (1) 
-1.0711716640282569

>  <r_i_glide_ligand_efficiency_sa>  (1) 
-0.46815727563149206

>  <r_i_glide_lipo>  (1) 
-1.9368686363561578

>  <r_i_glide_metal>  (1) 
-0

>  <r_i_glide_rewards>  (1) 
-1.7469480151518488

>  <r_lp_Energy>  (1) 
38.778824999999998

>  <s_epik_Chemistry_Notes>  (1) 
This compound has an ester and may undergo hydrolysis at high or low pH. This compound contains an acetal/aminal-like group ( X-CH(R)-Y where X, Y are N, S, or O) that may be acid/base labile, releasing an aldehyde. This compound has a N-S or N-O group and may undergo hydrolysis at high or low pH.

>  <s_epik_cmdline>  (1) 
J2VwaWtfcHl0aG9uJywgJy1waHQnLCAnMS4wJywgJy1waCcsICc3LjQnLCAnLXRuJywgJzgnLCAnLW1hJywgJzUwMCcsICctaW1hZScsICc8aW5maWxlLm1hZT4nLCAnLW9tYWUnLCAnPG91dGZpbGUubWFlPic=

>  <s_epik_input>  (1) 
W0NIM11PTjFbQ0BIXShGKVtDQEBIXShbQ0gyXVtDSDJdMSlDKD1PKU4oW0NIM10pW0NASF0yW0NIMl1DMjNPW0NAQEhdKFtPSF0pW0NASF0oW0NASF0zW0NASF00W0NIMl1bTkhdNClbTkhdW0NIMl1bQ0gyXVtDSDJdQyg9TylPW0NIMl1bQ0gyXVtPSF0=

>  <s_glide_docking_method>  (1) 
confgen

>  <s_i_glide_gridfile>  (1) 
gpcr_drd2_6luq_protein_autoprepared_prepared

>  <s_lp_Force_Field>  (1) 
S-OPLS

>  <s_lp_Variant>  (1) 
DiffSBDD_8-8

>  <s_m_source_file>  (1) 
generated_generic_title2_ligand_DiffSBDD_2026-06-23_prepared.sdf

>  <GenAI_Model>  (1) 
DiffSBDD

>  <Protein>  (1) 
generic_title2

$$$$
DiffSBDD_0
     RDKit          3D

  0  0  0  0  0  0  0  0  0  0999 V3000
M  V30 BEGIN CTAB
M  V30 COUNTS 70 74 0 0 1
M  V30 BEGIN ATOM
M  V30 1 C 11.071862 9.037998 -6.349189 0
M  V30 2 N 7.678901 4.192806 -13.215811 0
M  V30 3 C 7.319090 5.240564 -17.337562 0 CFG=1
M  V30 4 C 9.002052 4.726975 -11.183670 0
M  V30 5 F 11.721015 6.121173 -5.932271 0
M  V30 6 C 7.110710 5.528406 -13.477197 0
M  V30 7 C 11.158897 9.052252 -7.877862 0
M  V30 8 C 9.438519 6.821283 -10.264590 0
M  V30 9 C 10.738138 6.570157 -8.010616 0 CFG=1
M  V30 10 C 9.904018 4.600732 -17.697508 0
M  V30 11 C 7.312862 3.174576 -14.218593 0 CFG=1
M  V30 12 C 6.271338 0.169398 -13.421286 0
M  V30 13 C 8.500371 4.774849 -18.208872 0 CFG=1
M  V30 14 O 8.555483 6.005784 -11.027785 0
M  V30 15 C 10.574715 6.521996 -6.481608 0 CFG=2
M  V30 16 C 7.369683 3.824084 -17.884339 0 CFG=1
M  V30 17 N 7.232122 4.965128 -15.878245 0 CFG=1 CHG=1
M  V30 18 C 9.371534 6.587738 -8.733355 0
M  V30 19 C 7.246853 1.218331 -12.946819 0
M  V30 20 C 7.839251 3.667436 -15.561514 0 CFG=2
M  V30 21 O 5.756797 -0.409377 -12.257340 0
M  V30 22 C 11.695351 7.724211 -8.400907 0
M  V30 23 N 10.654999 5.634793 -17.223425 0
M  V30 24 C 7.522505 6.023965 -14.889765 0
M  V30 25 N 10.500009 3.407079 -17.714496 0
M  V30 26 O 11.776352 3.655367 -17.186583 0
M  V30 27 C 11.776044 4.984228 -16.957933 0
M  V30 28 O 7.851446 1.912947 -14.019012 0
M  V30 29 N 12.977373 5.485180 -16.488128 0
M  V30 30 C 8.598975 3.909210 -12.177211 0
M  V30 31 C 10.187005 7.879984 -5.874423 0
M  V30 32 C 13.394527 6.832174 -16.162910 0
M  V30 33 C 7.462563 2.801806 -16.762981 0
M  V30 34 H 12.070652 8.926130 -5.927626 0
M  V30 35 H 10.677406 9.984610 -5.977110 0
M  V30 36 H 6.550395 5.907657 -17.725646 0
M  V30 37 H 9.714631 4.440523 -10.420864 0
M  V30 38 H 6.024547 5.425932 -13.461217 0
M  V30 39 H 7.328311 6.302190 -12.754040 0
M  V30 40 H 11.775140 9.882908 -8.209862 0
M  V30 41 H 10.167908 9.189833 -8.309734 0
M  V30 42 H 10.443358 6.663906 -10.653019 0
M  V30 43 H 9.218360 7.866991 -10.481467 0
M  V30 44 H 11.195248 5.635617 -8.299027 0
M  V30 45 H 6.221769 3.090379 -14.237403 0
M  V30 46 H 6.761210 -0.591768 -14.029879 0
M  V30 47 H 5.455230 0.610158 -13.991021 0
M  V30 48 H 8.534820 5.171692 -19.222025 0
M  V30 49 H 9.835746 5.776546 -6.196212 0
M  V30 50 H 6.720112 3.555709 -18.715214 0
M  V30 51 H 8.733276 7.343458 -8.277672 0
M  V30 52 H 8.863226 5.644047 -8.528666 0
M  V30 53 H 6.710084 1.893561 -12.283484 0
M  V30 54 H 8.036056 0.729077 -12.380558 0
M  V30 55 H 8.919425 3.766383 -15.474349 0
M  V30 56 H 5.375412 -1.241496 -12.543917 0
M  V30 57 H 12.686658 7.569744 -7.971990 0
M  V30 58 H 11.858514 7.778764 -9.475826 0
M  V30 59 H 6.999650 6.943152 -15.151246 0
M  V30 60 H 8.576576 6.243085 -14.913188 0
M  V30 61 H 13.697226 4.789314 -16.352589 0
M  V30 62 H 8.999710 2.909565 -12.229726 0
M  V30 63 H 10.272103 7.807371 -4.798832 0
M  V30 64 H 9.139802 8.103765 -6.099813 0
M  V30 65 H 14.432919 6.812549 -15.831909 0
M  V30 66 H 13.325976 7.477140 -17.038515 0
M  V30 67 H 12.780203 7.250476 -15.367491 0
M  V30 68 H 6.499321 2.315777 -16.626123 0
M  V30 69 H 8.191903 2.021764 -16.982266 0
M  V30 70 H 6.248635 4.792180 -15.741537 0
M  V30 END ATOM
M  V30 BEGIN BOND
M  V30 1 1 6 2
M  V30 2 1 7 1
M  V30 3 1 11 2
M  V30 4 1 13 3
M  V30 5 1 13 10
M  V30 6 1 14 4
M  V30 7 1 14 8
M  V30 8 1 15 5
M  V30 9 1 15 9
M  V30 10 1 16 3
M  V30 11 1 16 13
M  V30 12 1 17 3
M  V30 13 1 18 8
M  V30 14 1 18 9
M  V30 15 1 19 12
M  V30 16 1 20 11
M  V30 17 1 20 17
M  V30 18 1 21 12
M  V30 19 1 22 7
M  V30 20 1 22 9
M  V30 21 1 23 10
M  V30 22 1 24 6
M  V30 23 1 24 17
M  V30 24 2 25 10
M  V30 25 1 26 25
M  V30 26 2 27 23
M  V30 27 1 27 26
M  V30 28 1 28 11
M  V30 29 1 28 19
M  V30 30 1 29 27
M  V30 31 1 30 2
M  V30 32 2 30 4
M  V30 33 1 31 1
M  V30 34 1 31 15
M  V30 35 1 32 29
M  V30 36 1 33 16
M  V30 37 1 33 20
M  V30 38 1 34 1
M  V30 39 1 35 1
M  V30 40 1 3 36 CFG=3
M  V30 41 1 37 4
M  V30 42 1 38 6
M  V30 43 1 39 6
M  V30 44 1 40 7
M  V30 45 1 41 7
M  V30 46 1 42 8
M  V30 47 1 43 8
M  V30 48 1 9 44 CFG=3
M  V30 49 1 11 45 CFG=3
M  V30 50 1 46 12
M  V30 51 1 47 12
M  V30 52 1 13 48 CFG=3
M  V30 53 1 15 49 CFG=3
M  V30 54 1 16 50 CFG=3
M  V30 55 1 51 18
M  V30 56 1 52 18
M  V30 57 1 53 19
M  V30 58 1 54 19
M  V30 59 1 20 55 CFG=1
M  V30 60 1 56 21
M  V30 61 1 57 22
M  V30 62 1 58 22
M  V30 63 1 59 24
M  V30 64 1 60 24
M  V30 65 1 61 29
M  V30 66 1 62 30
M  V30 67 1 63 31
M  V30 68 1 64 31
M  V30 69 1 65 32
M  V30 70 1 66 32
M  V30 71 1 67 32
M  V30 72 1 68 33
M  V30 73 1 69 33
M  V30 74 1 17 70 CFG=3
M  V30 END BOND
M  V30 END CTAB
M  END
>  <i_epik_Tot_Q>  (1) 
1

>  <i_epik_Tot_abs_Q>  (1) 
1

>  <i_i_glide_confnum>  (1) 
664

>  <i_i_glide_lignum>  (1) 
8

>  <i_i_glide_posenum>  (1) 
31

>  <i_i_glide_rotatable_bonds>  (1) 
11

>  <i_lp_mmshare_version>  (1) 
72125

>  <i_m_source_file_index>  (1) 
1

>  <i_f3d_flags>  (1) 
0

>  <num_sample>  (1) 
50

>  <b_lp_Chiralities_Consistent>  (1) 
1

>  <r_epik_Charging_Adjusted_Penalty>  (1) 
0.41344222577729461

>  <r_epik_Ionization_Penalty>  (1) 
0.0027644559619576371

>  <r_epik_Ionization_Penalty_Charging>  (1) 
0.0027623868246906495

>  <r_epik_Ionization_Penalty_Neutral>  (1) 
2.0691372669875143e-06

>  <r_epik_State_Penalty>  (1) 
0.41067983895260396

>  <r_glide_ring_energy>  (1) 
1.2880141380397463

>  <r_i_docking_score>  (1) 
-4.8151345439970319

>  <r_i_glide_ecoul>  (1) 
-3.3374148172719522

>  <r_i_glide_eff_state_penalty>  (1) 
0.41067983895260396

>  <r_i_glide_einternal>  (1) 
8.7329248928669898

>  <r_i_glide_emodel>  (1) 
-39.075592146249967

>  <r_i_glide_emodel_strain>  (1) 
1.4136765625819692

>  <r_i_glide_energy>  (1) 
-33.425510149729092

>  <r_i_glide_erotb>  (1) 
0.74142510397790429

>  <r_i_glide_esite>  (1) 
0

>  <r_i_glide_evdw>  (1) 
-30.08809533245714

>  <r_i_glide_gscore>  (1) 
-5.2258143829496362

>  <r_i_glide_gscore_strain>  (1) 
0

>  <r_i_glide_hbond>  (1) 
-0.16

>  <r_i_glide_ligand_efficiency>  (1) 
-0.14591316799991005

>  <r_i_glide_ligand_efficiency_ln>  (1) 
-1.0708609911525726

>  <r_i_glide_ligand_efficiency_sa>  (1) 
-0.46802149555816003

>  <r_i_glide_lipo>  (1) 
-2.4083246409450538

>  <r_i_glide_metal>  (1) 
-0

>  <r_i_glide_rewards>  (1) 
-1.3938978567688369

>  <r_lp_Energy>  (1) 
51.448637999999995

>  <r_lp_tautomer_probability>  (1) 
0.5

>  <s_epik_Chemistry_Notes>  (1) 
This compound has an imine and may undergo hydrolysis. This compound contains an acetal/aminal-like group ( X-CH(R)-Y where X, Y are N, S, or O) that may be acid/base labile, releasing an aldehyde.

>  <s_epik_cmdline>  (1) 
J2VwaWtfcHl0aG9uJywgJy1waHQnLCAnMS4wJywgJy1waCcsICc3LjQnLCAnLXRuJywgJzgnLCAnLW1hJywgJzUwMCcsICctaW1hZScsICc8aW5maWxlLm1hZT4nLCAnLW9tYWUnLCAnPG91dGZpbGUubWFlPic=

>  <s_epik_input>  (1) 
W0NIMl0xW0NIMl1bQ0gyXVtDSDJdW0NASF0oRilbQ0BIXTFbQ0gyXVtDSDJdTy9bQ0hdPVtDSF1cTihbQ0BIXTJPW0NIMl1bQ0gyXVtPSF0pW0NIMl1bQ0gyXU4zW0NAQEhdMltDSDJdW0NAQEhdKFtDQEBIXTM0KVtDQEBIXTRjNW5jKG9uNSlbTkhdW0NIM10=

>  <s_glide_docking_method>  (1) 
confgen

>  <s_i_glide_gridfile>  (1) 
gpcr_drd2_6luq_protein_autoprepared_prepared

>  <s_lp_Force_Field>  (1) 
S-OPLS

>  <s_lp_Variant>  (1) 
DiffSBDD_0-8

>  <s_m_source_file>  (1) 
generated_generic_title2_ligand_DiffSBDD_2026-06-23_prepared.sdf

>  <GenAI_Model>  (1) 
DiffSBDD

>  <Protein>  (1) 
generic_title2

$$$$
DiffSBDD_0
     RDKit          3D

  0  0  0  0  0  0  0  0  0  0999 V3000
M  V30 BEGIN CTAB
M  V30 COUNTS 70 74 0 0 1
M  V30 BEGIN ATOM
M  V30 1 C 11.762387 8.919681 -6.619024 0
M  V30 2 N 7.866238 3.800808 -12.974736 0
M  V30 3 C 7.292481 5.289757 -16.949608 0 CFG=1
M  V30 4 C 9.055549 4.032404 -10.818004 0
M  V30 5 F 11.643910 8.032228 -10.194273 0
M  V30 6 C 7.308583 5.162079 -13.074080 0
M  V30 7 C 10.522507 8.141726 -6.164360 0
M  V30 8 C 8.629927 5.453075 -9.009255 0
M  V30 9 C 9.859727 7.743842 -8.633186 0 CFG=1
M  V30 10 C 9.876284 4.746412 -17.499441 0
M  V30 11 C 7.485003 2.889821 -14.075084 0 CFG=1
M  V30 12 C 6.617902 -0.286337 -13.940561 0
M  V30 13 C 8.444909 4.947908 -17.911449 0 CFG=1
M  V30 14 O 8.439052 5.184266 -10.406119 0
M  V30 15 C 11.177134 8.467732 -9.022532 0 CFG=1
M  V30 16 C 7.348137 3.944367 -17.651985 0 CFG=1
M  V30 17 N 7.264019 4.860138 -15.524595 0 CFG=1 CHG=1
M  V30 18 C 9.951514 6.207323 -8.754364 0
M  V30 19 C 7.496689 0.701000 -13.172474 0
M  V30 20 C 7.902804 3.550654 -15.383300 0 CFG=2
M  V30 21 O 5.297403 0.194502 -14.048337 0
M  V30 22 C 9.399020 8.183025 -7.221576 0
M  V30 23 N 10.575665 5.668045 -16.783060 0
M  V30 24 C 7.649599 5.797368 -14.450374 0
M  V30 25 N 10.553008 3.655059 -17.862086 0
M  V30 26 O 11.853856 3.887877 -17.382931 0
M  V30 27 C 11.766422 5.096568 -16.794688 0
M  V30 28 O 8.098886 1.640048 -14.048749 0
M  V30 29 N 12.960337 5.588698 -16.292126 0
M  V30 30 C 8.782182 3.406061 -11.985174 0
M  V30 31 C 12.270821 8.352332 -7.948517 0
M  V30 32 C 14.294903 5.020287 -16.264528 0
M  V30 33 C 7.511659 2.809841 -16.657671 0
M  V30 34 H 11.519459 9.977176 -6.730633 0
M  V30 35 H 12.535978 8.869285 -5.853940 0
M  V30 36 H 6.508246 5.988662 -17.233888 0
M  V30 37 H 9.775678 3.672762 -10.102178 0
M  V30 38 H 6.227620 5.104661 -12.939452 0
M  V30 39 H 7.670679 5.853469 -12.323087 0
M  V30 40 H 10.174899 8.553995 -5.219154 0
M  V30 41 H 10.795331 7.106584 -5.957402 0
M  V30 42 H 7.775484 5.990163 -8.613246 0
M  V30 43 H 8.631179 4.522941 -8.437974 0
M  V30 44 H 9.111663 8.072016 -9.354727 0
M  V30 45 H 6.401457 2.755702 -14.038611 0
M  V30 46 H 6.575382 -1.209612 -13.366418 0
M  V30 47 H 7.029266 -0.525604 -14.921751 0
M  V30 48 H 8.428580 5.451992 -18.876592 0
M  V30 49 H 10.967236 9.524769 -9.184867 0
M  V30 50 H 6.665012 3.757127 -18.478632 0
M  V30 51 H 10.460935 5.789273 -7.885893 0
M  V30 52 H 10.575488 5.987080 -9.602797 0
M  V30 53 H 6.951609 1.168671 -12.353823 0
M  V30 54 H 8.318350 0.146313 -12.722243 0
M  V30 55 H 8.975295 3.689363 -15.346883 0
M  V30 56 H 4.739337 -0.572997 -13.990223 0
M  V30 57 H 8.995533 9.190750 -7.279532 0
M  V30 58 H 8.575382 7.557195 -6.885707 0
M  V30 59 H 7.133548 6.750405 -14.573485 0
M  V30 60 H 8.720106 5.988176 -14.517234 0
M  V30 61 H 12.892381 6.496637 -15.856438 0
M  V30 62 H 9.293827 2.487680 -12.230747 0
M  V30 63 H 13.171660 8.874936 -8.268148 0
M  V30 64 H 12.553809 7.309968 -7.811148 0
M  V30 65 H 14.950328 5.625055 -15.636910 0
M  V30 66 H 14.273467 4.005899 -15.863674 0
M  V30 67 H 14.709833 4.986036 -17.272246 0
M  V30 68 H 6.571943 2.272432 -16.545608 0
M  V30 69 H 8.274645 2.100657 -16.979718 0
M  V30 70 H 6.285540 4.677377 -15.352919 0
M  V30 END ATOM
M  V30 BEGIN BOND
M  V30 1 1 6 2
M  V30 2 1 7 1
M  V30 3 1 11 2
M  V30 4 1 13 3
M  V30 5 1 13 10
M  V30 6 1 14 4
M  V30 7 1 14 8
M  V30 8 1 15 5
M  V30 9 1 15 9
M  V30 10 1 16 3
M  V30 11 1 16 13
M  V30 12 1 17 3
M  V30 13 1 18 8
M  V30 14 1 18 9
M  V30 15 1 19 12
M  V30 16 1 20 11
M  V30 17 1 20 17
M  V30 18 1 21 12
M  V30 19 1 22 7
M  V30 20 1 22 9
M  V30 21 1 23 10
M  V30 22 1 24 6
M  V30 23 1 24 17
M  V30 24 2 25 10
M  V30 25 1 26 25
M  V30 26 2 27 23
M  V30 27 1 27 26
M  V30 28 1 28 11
M  V30 29 1 28 19
M  V30 30 1 29 27
M  V30 31 1 30 2
M  V30 32 2 30 4
M  V30 33 1 31 1
M  V30 34 1 31 15
M  V30 35 1 32 29
M  V30 36 1 33 16
M  V30 37 1 33 20
M  V30 38 1 34 1
M  V30 39 1 35 1
M  V30 40 1 3 36 CFG=3
M  V30 41 1 37 4
M  V30 42 1 38 6
M  V30 43 1 39 6
M  V30 44 1 40 7
M  V30 45 1 41 7
M  V30 46 1 42 8
M  V30 47 1 43 8
M  V30 48 1 9 44 CFG=3
M  V30 49 1 11 45 CFG=3
M  V30 50 1 46 12
M  V30 51 1 47 12
M  V30 52 1 13 48 CFG=3
M  V30 53 1 15 49 CFG=3
M  V30 54 1 16 50 CFG=3
M  V30 55 1 51 18
M  V30 56 1 52 18
M  V30 57 1 53 19
M  V30 58 1 54 19
M  V30 59 1 20 55 CFG=1
M  V30 60 1 56 21
M  V30 61 1 57 22
M  V30 62 1 58 22
M  V30 63 1 59 24
M  V30 64 1 60 24
M  V30 65 1 61 29
M  V30 66 1 62 30
M  V30 67 1 63 31
M  V30 68 1 64 31
M  V30 69 1 65 32
M  V30 70 1 66 32
M  V30 71 1 67 32
M  V30 72 1 68 33
M  V30 73 1 69 33
M  V30 74 1 17 70 CFG=1
M  V30 END BOND
M  V30 END CTAB
M  END
>  <i_epik_Tot_Q>  (1) 
1

>  <i_epik_Tot_abs_Q>  (1) 
1

>  <i_i_glide_confnum>  (1) 
617

>  <i_i_glide_lignum>  (1) 
16

>  <i_i_glide_posenum>  (1) 
120

>  <i_i_glide_rotatable_bonds>  (1) 
11

>  <i_lp_mmshare_version>  (1) 
72125

>  <i_m_source_file_index>  (1) 
1

>  <i_f3d_flags>  (1) 
0

>  <num_sample>  (1) 
50

>  <b_lp_Chiralities_Consistent>  (1) 
1

>  <r_epik_Charging_Adjusted_Penalty>  (1) 
0.41344222577729461

>  <r_epik_Ionization_Penalty>  (1) 
0.0027644559619576371

>  <r_epik_Ionization_Penalty_Charging>  (1) 
0.0027623868246906495

>  <r_epik_Ionization_Penalty_Neutral>  (1) 
2.0691372669875143e-06

>  <r_epik_State_Penalty>  (1) 
0.41067983895260396

>  <r_glide_ring_energy>  (1) 
1.6783687507503939

>  <r_i_docking_score>  (1) 
-4.8139640081830715

>  <r_i_glide_ecoul>  (1) 
-2.4646195864347922

>  <r_i_glide_eff_state_penalty>  (1) 
0.41067983895260396

>  <r_i_glide_einternal>  (1) 
16.289180140392801

>  <r_i_glide_emodel>  (1) 
-41.518227365572145

>  <r_i_glide_emodel_strain>  (1) 
0.70971142587168856

>  <r_i_glide_energy>  (1) 
-37.669233177024836

>  <r_i_glide_erotb>  (1) 
0.74142510397790429

>  <r_i_glide_esite>  (1) 
0

>  <r_i_glide_evdw>  (1) 
-35.204613590590043

>  <r_i_glide_gscore>  (1) 
-5.2246438471356758

>  <r_i_glide_gscore_strain>  (1) 
0

>  <r_i_glide_hbond>  (1) 
-0.11939084939116301

>  <r_i_glide_ligand_efficiency>  (1) 
-0.14587769721766883

>  <r_i_glide_ligand_efficiency_ln>  (1) 
-1.070600670048258

>  <r_i_glide_ligand_efficiency_sa>  (1) 
-0.46790772180640949

>  <r_i_glide_lipo>  (1) 
-2.2195300429173179

>  <r_i_glide_metal>  (1) 
-0

>  <r_i_glide_rewards>  (1) 
-1.497224441310377

>  <r_lp_Energy>  (1) 
50.173428000000001

>  <r_lp_tautomer_probability>  (1) 
0.5

>  <s_epik_Chemistry_Notes>  (1) 
This compound has an imine and may undergo hydrolysis. This compound contains an acetal/aminal-like group ( X-CH(R)-Y where X, Y are N, S, or O) that may be acid/base labile, releasing an aldehyde.

>  <s_epik_cmdline>  (1) 
J2VwaWtfcHl0aG9uJywgJy1waHQnLCAnMS4wJywgJy1waCcsICc3LjQnLCAnLXRuJywgJzgnLCAnLW1hJywgJzUwMCcsICctaW1hZScsICc8aW5maWxlLm1hZT4nLCAnLW9tYWUnLCAnPG91dGZpbGUubWFlPic=

>  <s_epik_input>  (1) 
W0NIMl0xW0NIMl1bQ0gyXVtDSDJdW0NASF0oRilbQ0BIXTFbQ0gyXVtDSDJdTy9bQ0hdPVtDSF1cTihbQ0BIXTJPW0NIMl1bQ0gyXVtPSF0pW0NIMl1bQ0gyXU4zW0NAQEhdMltDSDJdW0NAQEhdKFtDQEBIXTM0KVtDQEBIXTRjNW5jKG9uNSlbTkhdW0NIM10=

>  <s_glide_docking_method>  (1) 
confgen

>  <s_i_glide_gridfile>  (1) 
gpcr_drd2_6luq_protein_autoprepared_prepared

>  <s_lp_Force_Field>  (1) 
S-OPLS

>  <s_lp_Variant>  (1) 
DiffSBDD_0-16

>  <s_m_source_file>  (1) 
generated_generic_title2_ligand_DiffSBDD_2026-06-23_prepared.sdf

>  <GenAI_Model>  (1) 
DiffSBDD

>  <Protein>  (1) 
generic_title2

$$$$
DiffSBDD_39
     RDKit          3D

  0  0  0  0  0  0  0  0  0  0999 V3000
M  V30 BEGIN CTAB
M  V30 COUNTS 69 72 0 0 1
M  V30 BEGIN ATOM
M  V30 1 C 7.720427 5.820788 -15.047941 0
M  V30 2 F 6.137506 3.333165 -21.639245 0
M  V30 3 F 5.732990 3.342508 -19.515638 0
M  V30 4 C 11.596837 8.819395 -9.602369 0
M  V30 5 C 7.585551 6.475754 -12.579891 0
M  V30 6 C 6.743172 4.767798 -10.987444 0 CFG=1
M  V30 7 O 12.832657 8.751589 -8.917048 0
M  V30 8 C 6.980940 6.219556 -19.439158 0 CFG=2
M  V30 9 C 7.576817 3.008001 -14.374134 0
M  V30 10 C 8.921748 5.964547 -10.442416 0 CFG=2
M  V30 11 O 5.789306 7.641429 -21.017220 0
M  V30 12 C 7.597083 3.476284 -15.837776 0
M  V30 13 N 8.251651 4.803608 -15.998645 0 CFG=1 CHG=1
M  V30 14 C 4.704422 4.999615 -20.814640 0
M  V30 15 C 7.933245 5.366405 -13.600777 0 CFG=1
M  V30 16 C 8.305329 5.253798 -17.415595 0
M  V30 17 O 4.603329 6.018130 -19.817252 0
M  V30 18 C 7.094801 3.648736 -11.985079 0
M  V30 19 N 7.592142 5.990263 -11.165024 0 CFG=1 CHG=1
M  V30 20 C 10.877074 7.473828 -9.535830 0 CFG=1
M  V30 21 C 10.446491 7.152444 -8.100412 0
M  V30 22 C 6.975819 5.854351 -17.938170 0
M  V30 23 C 7.068351 4.110310 -13.429496 0 CFG=2
M  V30 24 C 5.657458 6.938819 -19.801974 0 CFG=1
M  V30 25 C 7.173041 4.993355 -20.335567 0
M  V30 26 C 9.903972 5.733008 -8.016088 0
M  V30 27 C 5.943408 4.118941 -20.579498 0
M  V30 28 O 8.268856 4.719884 -20.823804 0
M  V30 29 C 8.723299 5.505835 -8.961836 0
M  V30 30 O 5.440511 5.277681 -11.184983 0
M  V30 31 C 9.666505 7.345050 -10.496321 0
M  V30 32 H 6.655163 5.976002 -15.227119 0
M  V30 33 H 8.175434 6.790268 -15.185040 0
M  V30 34 H 10.963038 9.591167 -9.184758 0
M  V30 35 H 11.825081 9.070557 -10.631435 0
M  V30 36 H 6.586905 6.855554 -12.800957 0
M  V30 37 H 8.235145 7.338106 -12.713980 0
M  V30 38 H 6.724327 4.367729 -9.978340 0
M  V30 39 H 13.384013 9.478620 -9.191193 0
M  V30 40 H 7.797474 6.918903 -19.625255 0
M  V30 41 H 6.949729 2.119142 -14.286724 0
M  V30 42 H 8.575102 2.698511 -14.068082 0
M  V30 43 H 9.560049 5.226846 -10.931394 0
M  V30 44 H 5.011567 8.165126 -21.139309 0
M  V30 45 H 6.575434 3.526207 -16.196044 0
M  V30 46 H 8.106280 2.731783 -16.451967 0
M  V30 47 H 4.724548 5.440867 -21.811994 0
M  V30 48 H 3.801664 4.390404 -20.775617 0
M  V30 49 H 8.984074 5.106742 -13.455924 0
M  V30 50 H 9.102001 5.990247 -17.512646 0
M  V30 51 H 8.618936 4.408942 -18.030126 0
M  V30 52 H 6.396726 2.816776 -11.884245 0
M  V30 53 H 8.100025 3.280558 -11.769852 0
M  V30 54 H 11.643708 6.790222 -9.857395 0
M  V30 55 H 11.286412 7.252976 -7.412199 0
M  V30 56 H 9.686156 7.861469 -7.767682 0
M  V30 57 H 6.149004 5.173731 -17.737406 0
M  V30 58 H 6.751918 6.762856 -17.379281 0
M  V30 59 H 6.032434 4.341977 -13.686632 0
M  V30 60 H 5.410895 7.689125 -19.049046 0
M  V30 61 H 10.690576 5.017045 -8.236107 0
M  V30 62 H 9.588598 5.543478 -6.990445 0
M  V30 63 H 8.521241 4.436946 -8.920248 0
M  V30 64 H 7.849932 5.990117 -8.528890 0
M  V30 65 H 4.974620 5.207185 -10.360398 0
M  V30 66 H 8.975517 8.154821 -10.269677 0
M  V30 67 H 10.026611 7.529909 -11.507971 0
M  V30 68 H 9.216254 4.656263 -15.734199 0
M  V30 69 H 7.109649 6.712437 -10.622412 0
M  V30 END ATOM
M  V30 BEGIN BOND
M  V30 1 1 7 4
M  V30 2 1 12 9
M  V30 3 1 13 1
M  V30 4 1 13 12
M  V30 5 1 15 1
M  V30 6 1 15 5
M  V30 7 1 16 13
M  V30 8 1 17 14
M  V30 9 1 18 6
M  V30 10 1 19 5
M  V30 11 1 19 6
M  V30 12 1 19 10
M  V30 13 1 20 4
M  V30 14 1 21 20
M  V30 15 1 22 8
M  V30 16 1 22 16
M  V30 17 1 23 9
M  V30 18 1 23 15
M  V30 19 1 23 18
M  V30 20 1 24 8
M  V30 21 1 24 11
M  V30 22 1 24 17
M  V30 23 1 25 8
M  V30 24 1 26 21
M  V30 25 1 27 2
M  V30 26 1 27 3
M  V30 27 1 27 14
M  V30 28 1 27 25
M  V30 29 2 28 25
M  V30 30 1 29 10
M  V30 31 1 29 26
M  V30 32 1 30 6
M  V30 33 1 31 10
M  V30 34 1 31 20
M  V30 35 1 32 1
M  V30 36 1 33 1
M  V30 37 1 34 4
M  V30 38 1 35 4
M  V30 39 1 36 5
M  V30 40 1 37 5
M  V30 41 1 6 38 CFG=1
M  V30 42 1 39 7
M  V30 43 1 8 40 CFG=1
M  V30 44 1 41 9
M  V30 45 1 42 9
M  V30 46 1 10 43 CFG=3
M  V30 47 1 44 11
M  V30 48 1 45 12
M  V30 49 1 46 12
M  V30 50 1 47 14
M  V30 51 1 48 14
M  V30 52 1 15 49 CFG=3
M  V30 53 1 50 16
M  V30 54 1 51 16
M  V30 55 1 52 18
M  V30 56 1 53 18
M  V30 57 1 20 54 CFG=3
M  V30 58 1 55 21
M  V30 59 1 56 21
M  V30 60 1 57 22
M  V30 61 1 58 22
M  V30 62 1 23 59 CFG=3
M  V30 63 1 24 60 CFG=1
M  V30 64 1 61 26
M  V30 65 1 62 26
M  V30 66 1 63 29
M  V30 67 1 64 29
M  V30 68 1 65 30
M  V30 69 1 66 31
M  V30 70 1 67 31
M  V30 71 1 13 68 CFG=1
M  V30 72 1 19 69 CFG=1
M  V30 END BOND
M  V30 END CTAB
M  END
>  <i_epik_Tot_Q>  (1) 
2

>  <i_epik_Tot_abs_Q>  (1) 
2

>  <i_i_glide_confnum>  (1) 
94

>  <i_i_glide_lignum>  (1) 
111

>  <i_i_glide_posenum>  (1) 
16

>  <i_i_glide_rotatable_bonds>  (1) 
8

>  <i_lp_mmshare_version>  (1) 
72125

>  <i_m_source_file_index>  (1) 
40

>  <i_f3d_flags>  (1) 
0

>  <num_sample>  (1) 
50

>  <b_lp_Chiralities_Consistent>  (1) 
1

>  <r_epik_Charging_Adjusted_Penalty>  (1) 
1.743801429740254

>  <r_epik_Ionization_Penalty>  (1) 
1.6051069046209219

>  <r_epik_Ionization_Penalty_Charging>  (1) 
0.6098477401054202

>  <r_epik_Ionization_Penalty_Neutral>  (1) 
0.99525916451550167

>  <r_epik_State_Penalty>  (1) 
1.1339536896348337

>  <r_glide_ring_energy>  (1) 
1.2534239858202134

>  <r_i_docking_score>  (1) 
-4.8118055146462053

>  <r_i_glide_ecoul>  (1) 
-11.025511372227669

>  <r_i_glide_eff_state_penalty>  (1) 
1.1339536896348337

>  <r_i_glide_einternal>  (1) 
6.4771736822124293

>  <r_i_glide_emodel>  (1) 
-44.193520604869541

>  <r_i_glide_emodel_strain>  (1) 
0.77010038311204454

>  <r_i_glide_energy>  (1) 
-35.183884805065262

>  <r_i_glide_erotb>  (1) 
0.49785121930328097

>  <r_i_glide_esite>  (1) 
-0.13149431337215808

>  <r_i_glide_evdw>  (1) 
-24.158373432837593

>  <r_i_glide_gscore>  (1) 
-5.945759204281039

>  <r_i_glide_gscore_strain>  (1) 
0

>  <r_i_glide_hbond>  (1) 
-0.56579788595843195

>  <r_i_glide_ligand_efficiency>  (1) 
-0.15521953273052275

>  <r_i_glide_ligand_efficiency_ln>  (1) 
-1.0852096076819711

>  <r_i_glide_ligand_efficiency_sa>  (1) 
-0.48760363699289683

>  <r_i_glide_lipo>  (1) 
-1.361559187599541

>  <r_i_glide_metal>  (1) 
-0

>  <r_i_glide_rewards>  (1) 
-1.5230136591781587

>  <r_lp_Energy>  (1) 
49.421470999999997

>  <r_lp_tautomer_probability>  (1) 
0.99995000000000001

>  <s_epik_Chemistry_Notes>  (1) 
This compound contains an acetal/aminal-like group ( X-CH(R)-Y where X, Y are N, S, or O) that may be acid/base labile, releasing an aldehyde.

>  <s_epik_cmdline>  (1) 
J2VwaWtfcHl0aG9uJywgJy1waHQnLCAnMS4wJywgJy1waCcsICc3LjQnLCAnLXRuJywgJzgnLCAnLW1hJywgJzUwMCcsICctaW1hZScsICc8aW5maWxlLm1hZT4nLCAnLW9tYWUnLCAnPG91dGZpbGUubWFlPic=

>  <s_epik_input>  (1) 
RkMxKEYpW0NIMl1PW0NASF0oW09IXSlbQ0BIXShDMT1PKVtDSDJdW0NIMl1OKFtDSDJdMilbQ0gyXVtDSDJdW0NASF0oW0NAQEhdMjMpW0NIMl1bQ0BIXShbT0hdKU4oW0NIMl0zKVtDQEBIXTRbQ0gyXVtDSDJdW0NIMl1bQ0BASF0oW0NIMl00KVtDSDJdW09IXQ==

>  <s_glide_docking_method>  (1) 
confgen

>  <s_i_glide_gridfile>  (1) 
gpcr_drd2_6luq_protein_autoprepared_prepared

>  <s_lp_Force_Field>  (1) 
S-OPLS

>  <s_lp_Variant>  (1) 
DiffSBDD_39-7

>  <s_m_source_file>  (1) 
generated_generic_title2_ligand_DiffSBDD_2026-06-23_prepared.sdf

>  <GenAI_Model>  (1) 
DiffSBDD

>  <Protein>  (1) 
generic_title2

$$$$
DiffSBDD_28
     RDKit          3D

  0  0  0  0  0  0  0  0  0  0999 V3000
M  V30 BEGIN CTAB
M  V30 COUNTS 79 86 0 0 1
M  V30 BEGIN ATOM
M  V30 1 F 11.774449 10.104019 -9.585018 0
M  V30 2 C 9.258209 4.779887 -17.205634 0 CFG=1
M  V30 3 C 7.691686 4.445391 -13.751146 0 CFG=2
M  V30 4 C 9.606375 2.535931 -18.801765 0 CFG=2
M  V30 5 C 8.663439 5.149100 -9.663752 0 CFG=1
M  V30 6 C 8.327253 5.463671 -18.213119 0
M  V30 7 C 7.385491 5.955003 -11.806492 0 CFG=2
M  V30 8 C 10.078956 8.221582 -7.771458 0 CFG=1
M  V30 9 C 6.966877 3.323375 -14.521470 0
M  V30 10 C 9.508300 6.419568 -9.552795 0 CFG=1
M  V30 11 C 11.365535 4.311928 -17.645079 0 CFG=1
M  V30 12 C 6.287974 6.278623 -13.974393 0
M  V30 13 C 10.027566 3.675641 -17.917667 0 CFG=1
M  V30 14 O 12.069501 4.683146 -18.810430 0
M  V30 15 C 12.002367 8.780514 -9.344517 0 CFG=1
M  V30 16 C 7.665442 4.917771 -10.753529 0 CFG=1
M  V30 17 O 8.972923 4.336861 -10.800010 0
M  V30 18 N 6.800091 5.330483 -13.005455 0
M  V30 19 O 10.089332 0.669947 -20.273727 0
M  V30 20 C 13.293258 8.390235 -9.905693 0
M  V30 21 O 9.878968 2.345801 -17.403700 0
M  V30 22 C 9.195893 7.445512 -10.705009 0
M  V30 23 C 10.637492 5.418442 -16.891751 0
M  V30 24 N 8.589508 4.308736 -15.948490 0 CFG=2 CHG=1
M  V30 25 C 10.580800 1.899332 -19.772040 0
M  V30 26 N 9.882250 8.210571 -6.310791 0 CHG=1
M  V30 27 C 8.642836 6.839834 -12.007857 0
M  V30 28 C 10.145243 6.825803 -5.894056 0
M  V30 29 C 9.570574 6.014195 -7.053002 0
M  V30 30 O 14.175560 7.950479 -9.185044 0
M  V30 31 C 7.315604 6.387679 -15.104151 0
M  V30 32 C 11.606254 8.206896 -8.017897 0
M  V30 33 O 12.254966 7.827577 -10.431721 0
M  V30 34 N 9.375451 6.975016 -8.170894 0 CFG=1 CHG=1
M  V30 35 C 7.378885 3.469697 -15.999958 0
M  V30 36 C 10.013503 -0.341195 -19.285412 0
M  V30 37 C 8.359630 5.269471 -14.846492 0 CFG=1
M  V30 38 H 8.442970 3.983195 -13.110959 0
M  V30 39 H 8.555623 2.492221 -19.079726 0
M  V30 40 H 8.526047 4.544360 -8.772826 0
M  V30 41 H 8.866613 5.726024 -19.124332 0
M  V30 42 H 7.502213 4.818395 -18.516540 0
M  V30 43 H 7.908172 6.390421 -17.840627 0
M  V30 44 H 6.615435 6.599251 -11.378648 0
M  V30 45 H 9.601194 9.099453 -8.207125 0
M  V30 46 H 5.887868 3.393985 -14.384948 0
M  V30 47 H 7.275180 2.353214 -14.130521 0
M  V30 48 H 10.542211 6.101216 -9.646596 0
M  V30 49 H 12.013540 3.734551 -16.984217 0
M  V30 50 H 5.352827 5.892378 -14.379008 0
M  V30 51 H 6.053916 7.244099 -13.524183 0
M  V30 52 H 11.453539 5.076240 -19.409387 0
M  V30 53 H 6.857067 4.219559 -10.544690 0
M  V30 54 H 10.069909 7.994570 -11.010586 0
M  V30 55 H 8.575406 8.268657 -10.385024 0
M  V30 56 H 10.945478 5.437216 -15.846673 0
M  V30 57 H 10.778628 6.392153 -17.352983 0
M  V30 58 H 10.714613 2.576502 -20.615052 0
M  V30 59 H 11.559960 1.774309 -19.306923 0
M  V30 60 H 8.914254 8.426845 -6.107877 0
M  V30 61 H 9.454782 6.258969 -12.440863 0
M  V30 62 H 8.427563 7.645556 -12.709973 0
M  V30 63 H 9.757512 6.565914 -4.912212 0
M  V30 64 H 11.223249 6.666680 -5.829986 0
M  V30 65 H 8.603028 5.590485 -6.783854 0
M  V30 66 H 10.252365 5.208005 -7.328136 0
M  V30 67 H 6.788557 6.290260 -16.050265 0
M  V30 68 H 7.774608 7.369891 -15.068953 0
M  V30 69 H 12.095000 8.837266 -7.273021 0
M  V30 70 H 12.029348 7.208934 -7.895378 0
M  V30 71 H 6.606488 3.994640 -16.554281 0
M  V30 72 H 7.543488 2.503730 -16.476677 0
M  V30 73 H 9.772389 -1.288259 -19.765218 0
M  V30 74 H 10.967765 -0.443600 -18.765789 0
M  V30 75 H 9.237418 -0.127859 -18.549524 0
M  V30 76 H 9.298266 5.673471 -14.487353 0
M  V30 77 H 9.278192 3.676807 -15.567001 0
M  V30 78 H 10.488376 8.869403 -5.840415 0
M  V30 79 H 8.384858 7.215055 -8.145376 0
M  V30 END ATOM
M  V30 BEGIN BOND
M  V30 1 1 2 6 CFG=3
M  V30 2 1 9 3
M  V30 3 1 10 5
M  V30 4 1 13 2
M  V30 5 1 13 4
M  V30 6 1 13 11
M  V30 7 1 14 11
M  V30 8 1 15 1 CFG=3
M  V30 9 1 16 5
M  V30 10 1 16 7
M  V30 11 1 17 5
M  V30 12 1 17 16
M  V30 13 1 18 3
M  V30 14 1 18 7
M  V30 15 1 18 12
M  V30 16 1 20 15
M  V30 17 1 21 4
M  V30 18 1 13 21 CFG=1
M  V30 19 1 22 10
M  V30 20 1 23 2
M  V30 21 1 23 11
M  V30 22 1 24 2
M  V30 23 1 25 4
M  V30 24 1 25 19
M  V30 25 1 26 8
M  V30 26 1 27 7
M  V30 27 1 27 22
M  V30 28 1 28 26
M  V30 29 1 29 28
M  V30 30 2 30 20
M  V30 31 1 31 12
M  V30 32 1 32 8
M  V30 33 1 32 15
M  V30 34 1 33 15
M  V30 35 1 33 20
M  V30 36 1 34 8
M  V30 37 1 34 10
M  V30 38 1 34 29
M  V30 39 1 35 9
M  V30 40 1 35 24
M  V30 41 1 36 19
M  V30 42 1 37 3
M  V30 43 1 37 24
M  V30 44 1 37 31
M  V30 45 1 3 38 CFG=1
M  V30 46 1 4 39 CFG=3
M  V30 47 1 5 40 CFG=1
M  V30 48 1 41 6
M  V30 49 1 42 6
M  V30 50 1 43 6
M  V30 51 1 7 44 CFG=1
M  V30 52 1 8 45 CFG=3
M  V30 53 1 46 9
M  V30 54 1 47 9
M  V30 55 1 10 48 CFG=3
M  V30 56 1 11 49 CFG=1
M  V30 57 1 50 12
M  V30 58 1 51 12
M  V30 59 1 52 14
M  V30 60 1 16 53 CFG=1
M  V30 61 1 54 22
M  V30 62 1 55 22
M  V30 63 1 56 23
M  V30 64 1 57 23
M  V30 65 1 58 25
M  V30 66 1 59 25
M  V30 67 1 60 26
M  V30 68 1 61 27
M  V30 69 1 62 27
M  V30 70 1 63 28
M  V30 71 1 64 28
M  V30 72 1 65 29
M  V30 73 1 66 29
M  V30 74 1 67 31
M  V30 75 1 68 31
M  V30 76 1 69 32
M  V30 77 1 70 32
M  V30 78 1 71 35
M  V30 79 1 72 35
M  V30 80 1 73 36
M  V30 81 1 74 36
M  V30 82 1 75 36
M  V30 83 1 37 76 CFG=1
M  V30 84 1 24 77 CFG=1
M  V30 85 1 78 26
M  V30 86 1 34 79 CFG=3
M  V30 END BOND
M  V30 END CTAB
M  END
>  <i_epik_Tot_Q>  (1) 
3

>  <i_epik_Tot_abs_Q>  (1) 
3

>  <i_i_glide_confnum>  (1) 
241

>  <i_i_glide_lignum>  (1) 
83

>  <i_i_glide_posenum>  (1) 
182

>  <i_i_glide_rotatable_bonds>  (1) 
8

>  <i_lp_mmshare_version>  (1) 
72125

>  <i_m_source_file_index>  (1) 
29

>  <i_f3d_flags>  (1) 
0

>  <num_sample>  (1) 
50

>  <b_lp_Chiralities_Consistent>  (1) 
1

>  <r_epik_Charging_Adjusted_Penalty>  (1) 
2.5479580004866769

>  <r_epik_Ionization_Penalty>  (1) 
1.853674345886815

>  <r_epik_Ionization_Penalty_Charging>  (1) 
1.8530809818743854

>  <r_epik_Ionization_Penalty_Neutral>  (1) 
0.00059336401242958479

>  <r_epik_State_Penalty>  (1) 
0.69487701861229134

>  <r_glide_ring_energy>  (1) 
0.81914574756082947

>  <r_i_docking_score>  (1) 
-4.792701024267136

>  <r_i_glide_ecoul>  (1) 
-7.967451533558993

>  <r_i_glide_eff_state_penalty>  (1) 
0.69487701861229134

>  <r_i_glide_einternal>  (1) 
14.553812024960301

>  <r_i_glide_emodel>  (1) 
-18.821328265983244

>  <r_i_glide_emodel_strain>  (1) 
1.2077317333598216

>  <r_i_glide_energy>  (1) 
-26.924227400159381

>  <r_i_glide_erotb>  (1) 
0.31289092967319998

>  <r_i_glide_esite>  (1) 
-0.17736461755506136

>  <r_i_glide_evdw>  (1) 
-18.956775866600388

>  <r_i_glide_gscore>  (1) 
-5.4875780428794272

>  <r_i_glide_gscore_strain>  (1) 
0

>  <r_i_glide_hbond>  (1) 
-0.23941767600059816

>  <r_i_glide_ligand_efficiency>  (1) 
-0.12953246011532799

>  <r_i_glide_ligand_efficiency_ln>  (1) 
-1.0394244953102332

>  <r_i_glide_ligand_efficiency_sa>  (1) 
-0.43163089409375394

>  <r_i_glide_lipo>  (1) 
-1.8108364558677532

>  <r_i_glide_metal>  (1) 
-0

>  <r_i_glide_rewards>  (1) 
-1.4298936997653455

>  <r_lp_Energy>  (1) 
76.82741

>  <s_epik_Chemistry_Notes>  (1) 
This compound has an ester and may undergo hydrolysis at high or low pH. This compound contains an acetal/aminal-like group ( X-CH(R)-Y where X, Y are N, S, or O) that may be acid/base labile, releasing an aldehyde.

>  <s_epik_cmdline>  (1) 
J2VwaWtfcHl0aG9uJywgJy1waHQnLCAnMS4wJywgJy1waCcsICc3LjQnLCAnLXRuJywgJzgnLCAnLW1hJywgJzUwMCcsICctaW1hZScsICc8aW5maWxlLm1hZT4nLCAnLW9tYWUnLCAnPG91dGZpbGUubWFlPic=

>  <s_epik_input>  (1) 
Tz1DKE8xKUMxKEYpW0NIMl1bQ0BASF0yW05IXVtDSDJdW0NIMl1OMltDQEBIXTNbQ0gyXVtDSDJdW0NASF0oW0NAQEhdKE80KVtDQEhdMzQpTjVbQ0gyXVtDSDJdW0NAQEhdKFtDQEhdNTYpTihbQ0gyXVtDSDJdNilbQ0BAXShbQ0gzXSkoW0NIMl1bQ0BASF03W09IXSlbQ0BAXTc4W0NASF0oTzgpW0NIMl1PW0NIM10=

>  <s_glide_docking_method>  (1) 
confgen

>  <s_i_glide_gridfile>  (1) 
gpcr_drd2_6luq_protein_autoprepared_prepared

>  <s_lp_Force_Field>  (1) 
S-OPLS

>  <s_lp_Variant>  (1) 
DiffSBDD_28-6

>  <s_m_source_file>  (1) 
generated_generic_title2_ligand_DiffSBDD_2026-06-23_prepared.sdf

>  <GenAI_Model>  (1) 
DiffSBDD

>  <Protein>  (1) 
generic_title2

$$$$
DiffSBDD_0
     RDKit          3D

  0  0  0  0  0  0  0  0  0  0999 V3000
M  V30 BEGIN CTAB
M  V30 COUNTS 70 74 0 0 1
M  V30 BEGIN ATOM
M  V30 1 C 10.201695 7.257424 -6.161076 0
M  V30 2 N 7.952291 5.684310 -14.605722 0
M  V30 3 C 8.158590 4.788790 -18.736509 0 CFG=1
M  V30 4 C 9.654012 5.984675 -12.867452 0
M  V30 5 F 9.420565 5.379562 -9.237390 0
M  V30 6 C 6.865985 6.266208 -15.386947 0
M  V30 7 C 10.964804 8.430671 -6.788632 0
M  V30 8 C 9.379322 7.596606 -11.113033 0
M  V30 9 C 10.971383 7.210773 -9.049851 0 CFG=1
M  V30 10 C 10.773616 5.108949 -18.981314 0
M  V30 11 C 8.377436 4.357434 -15.032269 0 CFG=2
M  V30 12 C 8.003268 2.052209 -13.096898 0
M  V30 13 C 9.487143 4.481386 -19.426210 0 CFG=1
M  V30 14 O 10.224388 6.729181 -11.858060 0
M  V30 15 C 10.175624 6.060991 -8.376361 0 CFG=1
M  V30 16 C 8.759047 3.418514 -18.621717 0 CFG=1
M  V30 17 N 8.211742 5.388095 -17.372748 0 CFG=2 CHG=1
M  V30 18 C 10.144397 8.191715 -9.911493 0
M  V30 19 C 6.956382 3.000116 -13.702364 0
M  V30 20 C 8.939352 4.457142 -16.466098 0 CFG=2
M  V30 21 O 8.975409 2.790216 -12.385025 0
M  V30 22 C 11.808687 7.954872 -7.981695 0
M  V30 23 N 10.909837 6.450006 -18.785042 0
M  V30 24 C 6.875960 5.815985 -16.872271 0
M  V30 25 N 11.862443 4.371939 -18.757723 0
M  V30 26 O 12.830145 5.309851 -18.358902 0
M  V30 27 C 12.178531 6.487506 -18.410729 0
M  V30 28 O 7.330006 3.437467 -15.004346 0
M  V30 29 N 12.938264 7.590222 -18.047762 0
M  V30 30 C 8.567369 6.390228 -13.566787 0
M  V30 31 C 9.321387 6.563073 -7.208156 0
M  V30 32 C 14.318863 7.700183 -17.618064 0
M  V30 33 C 9.076297 3.103628 -17.184929 0
M  V30 34 H 10.902343 6.539047 -5.733378 0
M  V30 35 H 9.591011 7.615841 -5.338980 0
M  V30 36 H 7.250786 4.946614 -19.316655 0
M  V30 37 H 10.175410 5.057480 -13.027386 0
M  V30 38 H 5.909811 6.023865 -14.921347 0
M  V30 39 H 6.961150 7.352080 -15.347806 0
M  V30 40 H 11.603147 8.902801 -6.041444 0
M  V30 41 H 10.254541 9.190222 -7.112515 0
M  V30 42 H 9.026727 8.420046 -11.734169 0
M  V30 43 H 8.504598 7.040051 -10.785029 0
M  V30 44 H 11.698374 6.790227 -9.735813 0
M  V30 45 H 9.172956 3.994603 -14.399833 0
M  V30 46 H 8.471023 1.427159 -13.858309 0
M  V30 47 H 7.519163 1.377105 -12.390208 0
M  V30 48 H 9.477123 4.377587 -20.509581 0
M  V30 49 H 10.879467 5.325814 -7.985024 0
M  V30 50 H 8.312678 2.607792 -19.195012 0
M  V30 51 H 10.861417 8.907342 -10.306591 0
M  V30 52 H 9.446976 8.758854 -9.294488 0
M  V30 53 H 6.027522 2.443894 -13.824329 0
M  V30 54 H 6.723350 3.832547 -13.036044 0
M  V30 55 H 9.936558 4.887296 -16.360939 0
M  V30 56 H 9.375422 2.197142 -11.754652 0
M  V30 57 H 12.575467 7.282686 -7.598274 0
M  V30 58 H 12.341040 8.795405 -8.428677 0
M  V30 59 H 6.199919 4.970165 -16.980088 0
M  V30 60 H 6.472791 6.605929 -17.507274 0
M  V30 61 H 12.447537 8.479188 -18.081068 0
M  V30 62 H 8.088720 7.335382 -13.359514 0
M  V30 63 H 8.773180 5.736292 -6.759325 0
M  V30 64 H 8.575411 7.261519 -7.580291 0
M  V30 65 H 14.597640 8.748516 -17.508586 0
M  V30 66 H 14.457065 7.199783 -16.659129 0
M  V30 67 H 14.984179 7.238675 -18.348410 0
M  V30 68 H 8.363780 2.355402 -16.838553 0
M  V30 69 H 10.077062 2.681190 -17.090024 0
M  V30 70 H 8.775850 6.225470 -17.429047 0
M  V30 END ATOM
M  V30 BEGIN BOND
M  V30 1 1 6 2
M  V30 2 1 7 1
M  V30 3 1 11 2
M  V30 4 1 13 3
M  V30 5 1 13 10
M  V30 6 1 14 4
M  V30 7 1 14 8
M  V30 8 1 15 5
M  V30 9 1 15 9
M  V30 10 1 16 3
M  V30 11 1 16 13
M  V30 12 1 17 3
M  V30 13 1 18 8
M  V30 14 1 18 9
M  V30 15 1 19 12
M  V30 16 1 20 11
M  V30 17 1 20 17
M  V30 18 1 21 12
M  V30 19 1 22 7
M  V30 20 1 22 9
M  V30 21 1 23 10
M  V30 22 1 24 6
M  V30 23 1 24 17
M  V30 24 2 25 10
M  V30 25 1 26 25
M  V30 26 2 27 23
M  V30 27 1 27 26
M  V30 28 1 28 11
M  V30 29 1 28 19
M  V30 30 1 29 27
M  V30 31 1 30 2
M  V30 32 2 30 4
M  V30 33 1 31 1
M  V30 34 1 31 15
M  V30 35 1 32 29
M  V30 36 1 33 16
M  V30 37 1 33 20
M  V30 38 1 34 1
M  V30 39 1 35 1
M  V30 40 1 3 36 CFG=3
M  V30 41 1 37 4
M  V30 42 1 38 6
M  V30 43 1 39 6
M  V30 44 1 40 7
M  V30 45 1 41 7
M  V30 46 1 42 8
M  V30 47 1 43 8
M  V30 48 1 9 44 CFG=3
M  V30 49 1 11 45 CFG=1
M  V30 50 1 46 12
M  V30 51 1 47 12
M  V30 52 1 13 48 CFG=3
M  V30 53 1 15 49 CFG=1
M  V30 54 1 16 50 CFG=3
M  V30 55 1 51 18
M  V30 56 1 52 18
M  V30 57 1 53 19
M  V30 58 1 54 19
M  V30 59 1 20 55 CFG=1
M  V30 60 1 56 21
M  V30 61 1 57 22
M  V30 62 1 58 22
M  V30 63 1 59 24
M  V30 64 1 60 24
M  V30 65 1 61 29
M  V30 66 1 62 30
M  V30 67 1 63 31
M  V30 68 1 64 31
M  V30 69 1 65 32
M  V30 70 1 66 32
M  V30 71 1 67 32
M  V30 72 1 68 33
M  V30 73 1 69 33
M  V30 74 1 17 70 CFG=3
M  V30 END BOND
M  V30 END CTAB
M  END
>  <i_epik_Tot_Q>  (1) 
1

>  <i_epik_Tot_abs_Q>  (1) 
1

>  <i_i_glide_confnum>  (1) 
227

>  <i_i_glide_lignum>  (1) 
9

>  <i_i_glide_posenum>  (1) 
81

>  <i_i_glide_rotatable_bonds>  (1) 
11

>  <i_lp_mmshare_version>  (1) 
72125

>  <i_m_source_file_index>  (1) 
1

>  <i_f3d_flags>  (1) 
0

>  <num_sample>  (1) 
50

>  <b_lp_Chiralities_Consistent>  (1) 
1

>  <r_epik_Charging_Adjusted_Penalty>  (1) 
0.41344222577729461

>  <r_epik_Ionization_Penalty>  (1) 
0.0027644559619576371

>  <r_epik_Ionization_Penalty_Charging>  (1) 
0.0027623868246906495

>  <r_epik_Ionization_Penalty_Neutral>  (1) 
2.0691372669875143e-06

>  <r_epik_State_Penalty>  (1) 
0.41067983895260396

>  <r_glide_ring_energy>  (1) 
1.7903676985451424

>  <r_i_docking_score>  (1) 
-4.7863431362428575

>  <r_i_glide_ecoul>  (1) 
-7.22238544176132

>  <r_i_glide_eff_state_penalty>  (1) 
0.41067983895260396

>  <r_i_glide_einternal>  (1) 
8.4046541280883034

>  <r_i_glide_emodel>  (1) 
-43.257813104104116

>  <r_i_glide_emodel_strain>  (1) 
0.39647492508105131

>  <r_i_glide_energy>  (1) 
-35.410840989037581

>  <r_i_glide_erotb>  (1) 
0.74142510397790429

>  <r_i_glide_esite>  (1) 
-0.043088812093906664

>  <r_i_glide_evdw>  (1) 
-28.188455547276259

>  <r_i_glide_gscore>  (1) 
-5.1970229751954617

>  <r_i_glide_gscore_strain>  (1) 
0

>  <r_i_glide_hbond>  (1) 
-0.60799999999999998

>  <r_i_glide_ligand_efficiency>  (1) 
-0.14504070109826842

>  <r_i_glide_ligand_efficiency_ln>  (1) 
-1.0644579311419753

>  <r_i_glide_ligand_efficiency_sa>  (1) 
-0.46522302801935933

>  <r_i_glide_lipo>  (1) 
-1.700028545420301

>  <r_i_glide_metal>  (1) 
-0

>  <r_i_glide_rewards>  (1) 
-1.0945501280311476

>  <r_lp_Energy>  (1) 
39.700505

>  <r_lp_tautomer_probability>  (1) 
0.5

>  <s_epik_Chemistry_Notes>  (1) 
This compound has an imine and may undergo hydrolysis. This compound contains an acetal/aminal-like group ( X-CH(R)-Y where X, Y are N, S, or O) that may be acid/base labile, releasing an aldehyde.

>  <s_epik_cmdline>  (1) 
J2VwaWtfcHl0aG9uJywgJy1waHQnLCAnMS4wJywgJy1waCcsICc3LjQnLCAnLXRuJywgJzgnLCAnLW1hJywgJzUwMCcsICctaW1hZScsICc8aW5maWxlLm1hZT4nLCAnLW9tYWUnLCAnPG91dGZpbGUubWFlPic=

>  <s_epik_input>  (1) 
W0NIMl0xW0NIMl1bQ0gyXVtDSDJdW0NASF0oRilbQ0BIXTFbQ0gyXVtDSDJdTy9bQ0hdPVtDSF0vTihbQ0BIXTJPW0NIMl1bQ0gyXVtPSF0pW0NIMl1bQ0gyXU4zW0NAQEhdMltDSDJdW0NAQEhdKFtDQEBIXTM0KVtDQEBIXTRjNW5jKG9uNSlbTkhdW0NIM10=

>  <s_glide_docking_method>  (1) 
confgen

>  <s_i_glide_gridfile>  (1) 
gpcr_drd2_6luq_protein_autoprepared_prepared

>  <s_lp_Force_Field>  (1) 
S-OPLS

>  <s_lp_Variant>  (1) 
DiffSBDD_0-9

>  <s_m_source_file>  (1) 
generated_generic_title2_ligand_DiffSBDD_2026-06-23_prepared.sdf

>  <GenAI_Model>  (1) 
DiffSBDD

>  <Protein>  (1) 
generic_title2

$$$$
DiffSBDD_25
     RDKit          3D

  0  0  0  0  0  0  0  0  0  0999 V3000
M  V30 BEGIN CTAB
M  V30 COUNTS 44 46 0 0 1
M  V30 BEGIN ATOM
M  V30 1 C 10.180859 7.190232 -11.190678 0 CFG=1
M  V30 2 C 9.908560 7.629444 -7.408178 0
M  V30 3 C 9.375407 6.390307 -7.018940 0
M  V30 4 C 9.906216 6.901334 -9.744090 0
M  V30 5 N 6.558602 2.628736 -12.642925 0 CHG=1
M  V30 6 N 7.744362 6.790458 -11.731511 0 CHG=1
M  V30 7 C 9.375409 5.654004 -9.339648 0
M  V30 8 C 10.105376 6.211310 -12.344723 0
M  V30 9 C 6.023597 4.206871 -10.785025 0
M  V30 10 C 6.826488 3.968123 -12.072178 0 CFG=2
M  V30 11 C 6.677804 6.506358 -12.745726 0 CFG=1
M  V30 12 C 9.055744 7.293895 -12.197883 0 CFG=2
M  V30 13 C 9.108615 5.404445 -7.985024 0
M  V30 14 C 7.375322 6.161072 -15.113116 0
M  V30 15 C 7.386968 4.825263 -14.394169 0
M  V30 16 C 6.816179 7.190292 -14.120315 0
M  V30 17 C 10.173925 7.885618 -8.765219 0
M  V30 18 C 6.529180 5.020569 -13.140976 0 CFG=1
M  V30 19 H 10.975416 7.930054 -11.252665 0
M  V30 20 H 10.110780 8.387359 -6.665715 0
M  V30 21 H 9.168161 6.195556 -5.977735 0
M  V30 22 H 5.578823 2.532009 -12.867486 0
M  V30 23 H 7.104678 2.501867 -13.483446 0
M  V30 24 H 7.903477 5.965695 -11.174825 0
M  V30 25 H 9.170722 4.889519 -10.069855 0
M  V30 26 H 10.820012 6.340847 -13.155397 0
M  V30 27 H 9.844400 5.178123 -12.137080 0
M  V30 28 H 6.086657 5.229641 -10.416135 0
M  V30 29 H 4.975410 3.990238 -10.939694 0
M  V30 30 H 6.370330 3.590227 -9.961356 0
M  V30 31 H 7.886705 3.994014 -11.822438 0
M  V30 32 H 5.751201 6.838346 -12.274216 0
M  V30 33 H 9.046171 8.205764 -12.785025 0
M  V30 34 H 8.698370 4.452890 -7.684558 0
M  V30 35 H 6.757680 6.121620 -16.011395 0
M  V30 36 H 8.390829 6.390227 -15.427694 0
M  V30 37 H 7.014287 4.026177 -15.036869 0
M  V30 38 H 8.413406 4.573346 -14.123648 0
M  V30 39 H 5.815773 7.464528 -14.459780 0
M  V30 40 H 7.375420 8.122785 -14.122954 0
M  V30 41 H 10.579654 8.842107 -9.060213 0
M  V30 42 H 5.488626 4.898409 -13.451471 0
M  V30 43 H 6.818694 1.909655 -11.982770 0
M  V30 44 H 7.376524 7.464388 -11.050958 0
M  V30 END ATOM
M  V30 BEGIN BOND
M  V30 1 2 3 2
M  V30 2 1 4 1
M  V30 3 1 7 4
M  V30 4 1 8 1
M  V30 5 1 10 5
M  V30 6 1 10 9
M  V30 7 1 11 6
M  V30 8 1 12 1
M  V30 9 1 12 6
M  V30 10 1 12 8
M  V30 11 1 13 3
M  V30 12 2 13 7
M  V30 13 1 15 14
M  V30 14 1 16 11
M  V30 15 1 16 14
M  V30 16 1 17 2
M  V30 17 2 17 4
M  V30 18 1 18 10
M  V30 19 1 18 11
M  V30 20 1 18 15
M  V30 21 1 1 19 CFG=1
M  V30 22 1 20 2
M  V30 23 1 21 3
M  V30 24 1 22 5
M  V30 25 1 23 5
M  V30 26 1 24 6
M  V30 27 1 25 7
M  V30 28 1 26 8
M  V30 29 1 27 8
M  V30 30 1 28 9
M  V30 31 1 29 9
M  V30 32 1 30 9
M  V30 33 1 10 31 CFG=1
M  V30 34 1 11 32 CFG=1
M  V30 35 1 12 33 CFG=3
M  V30 36 1 34 13
M  V30 37 1 35 14
M  V30 38 1 36 14
M  V30 39 1 37 15
M  V30 40 1 38 15
M  V30 41 1 39 16
M  V30 42 1 40 16
M  V30 43 1 41 17
M  V30 44 1 18 42 CFG=3
M  V30 45 1 43 5
M  V30 46 1 44 6
M  V30 END BOND
M  V30 END CTAB
M  END
>  <i_epik_Tot_Q>  (1) 
2

>  <i_epik_Tot_abs_Q>  (1) 
2

>  <i_i_glide_confnum>  (1) 
49

>  <i_i_glide_lignum>  (1) 
72

>  <i_i_glide_posenum>  (1) 
292

>  <i_i_glide_rotatable_bonds>  (1) 
4

>  <i_lp_mmshare_version>  (1) 
72125

>  <i_m_source_file_index>  (1) 
26

>  <i_f3d_flags>  (1) 
0

>  <num_sample>  (1) 
50

>  <b_lp_Chiralities_Consistent>  (1) 
1

>  <r_epik_Charging_Adjusted_Penalty>  (1) 
0.43880639721899328

>  <r_epik_Ionization_Penalty>  (1) 
0.22252539232578136

>  <r_epik_Ionization_Penalty_Charging>  (1) 
0.22252539232578136

>  <r_epik_Ionization_Penalty_Neutral>  (1) 
0

>  <r_epik_State_Penalty>  (1) 
0.21628100489321189

>  <r_glide_ring_energy>  (1) 
0.2379056209447041

>  <r_i_docking_score>  (1) 
-4.7829668855807164

>  <r_i_glide_ecoul>  (1) 
-6.4467854530403583

>  <r_i_glide_eff_state_penalty>  (1) 
0.21628100489321189

>  <r_i_glide_einternal>  (1) 
7.7569398787460013

>  <r_i_glide_emodel>  (1) 
-44.840643985694953

>  <r_i_glide_emodel_strain>  (1) 
0.26348414977191936

>  <r_i_glide_energy>  (1) 
-30.818725614373655

>  <r_i_glide_erotb>  (1) 
0.86113592628682767

>  <r_i_glide_esite>  (1) 
-0.10000000000000001

>  <r_i_glide_evdw>  (1) 
-24.371940161333296

>  <r_i_glide_gscore>  (1) 
-4.9992478904739279

>  <r_i_glide_gscore_strain>  (1) 
0

>  <r_i_glide_hbond>  (1) 
-0.20000000000000001

>  <r_i_glide_ligand_efficiency>  (1) 
-0.26572038253226204

>  <r_i_glide_ligand_efficiency_ln>  (1) 
-1.2294369749813445

>  <r_i_glide_ligand_efficiency_sa>  (1) 
-0.69638440578732175

>  <r_i_glide_lipo>  (1) 
-0.74567139982894448

>  <r_i_glide_metal>  (1) 
-0

>  <r_i_glide_rewards>  (1) 
-2.6290975909090912

>  <r_lp_Energy>  (1) 
41.001804999999997

>  <s_epik_cmdline>  (1) 
J2VwaWtfcHl0aG9uJywgJy1waHQnLCAnMS4wJywgJy1waCcsICc3LjQnLCAnLXRuJywgJzgnLCAnLW1hJywgJzUwMCcsICctaW1hZScsICc8aW5maWxlLm1hZT4nLCAnLW9tYWUnLCAnPG91dGZpbGUubWFlPic=

>  <s_epik_input>  (1) 
W2NIXTFbY0hdW2NIXVtjSF1bY0hdYzFbQ0BIXTJbQ0gyXVtDQEhdMltOSF1bQ0BIXTNbQ0gyXVtDSDJdW0NIMl1bQ0BIXTNbQ0BIXShbTkgyXSlbQ0gzXQ==

>  <s_glide_docking_method>  (1) 
confgen

>  <s_i_glide_gridfile>  (1) 
gpcr_drd2_6luq_protein_autoprepared_prepared

>  <s_lp_Force_Field>  (1) 
S-OPLS

>  <s_lp_Variant>  (1) 
DiffSBDD_25-1

>  <s_m_source_file>  (1) 
generated_generic_title2_ligand_DiffSBDD_2026-06-23_prepared.sdf

>  <GenAI_Model>  (1) 
DiffSBDD

>  <Protein>  (1) 
generic_title2

$$$$
DiffSBDD_8
     RDKit          3D

  0  0  0  0  0  0  0  0  0  0999 V3000
M  V30 BEGIN CTAB
M  V30 COUNTS 70 73 0 0 1
M  V30 BEGIN ATOM
M  V30 1 N 11.592488 7.652114 -7.433261 0
M  V30 2 C 11.375393 9.760379 -4.250745 0
M  V30 3 C 8.975404 6.485398 -8.960250 0 CFG=1
M  V30 4 N 11.872351 7.952661 -2.912152 0
M  V30 5 O 11.412292 7.190224 -11.249647 0
M  V30 6 C 7.329526 5.843799 -12.336087 0
M  V30 7 F 10.775412 6.386233 -4.124154 0
M  V30 8 C 7.592357 5.414022 -13.797026 0
M  V30 9 N 7.755896 7.222837 -11.985032 0 CHG=1
M  V30 10 C 9.136619 7.481916 -11.479672 0 CFG=1
M  V30 11 C 11.650746 7.377757 -4.231647 0 CFG=1
M  V30 12 C 5.615682 0.190880 -12.225303 0
M  V30 13 C 9.423396 7.559393 -9.964181 0 CFG=2
M  V30 14 O 10.175420 5.347186 -11.985003 0
M  V30 15 O 12.975370 7.271167 -2.322285 0
M  V30 16 C 7.734471 3.876157 -14.004680 0
M  V30 17 C 11.604437 8.977785 -9.691884 0
M  V30 18 C 11.393207 6.277405 -6.960174 0
M  V30 19 C 11.969623 7.782658 -8.836454 0 CFG=2
M  V30 20 C 11.069259 8.507861 -5.116303 0 CFG=2
M  V30 21 C 11.520561 8.728625 -6.590810 0
M  V30 22 C 7.790891 5.556195 -8.991695 0
M  V30 23 C 10.350726 6.743731 -12.049801 0 CFG=2
M  V30 24 C 10.943316 7.653192 -9.978689 0 CFG=2
M  V30 25 O 6.575422 -0.809771 -12.176142 0
M  V30 26 O 11.775369 9.861263 -6.966945 0
M  V30 27 C 5.551665 0.828993 -13.622477 0
M  V30 28 C 12.558099 5.990168 -1.886581 0
M  V30 29 C 12.358384 9.286358 -3.193243 0
M  V30 30 O 6.618332 1.742013 -13.907122 0
M  V30 31 C 6.598026 3.008283 -13.442419 0
M  V30 32 N 9.121194 5.106657 -9.368040 0 CHG=1
M  V30 33 O 5.775451 3.453198 -12.650917 0
M  V30 34 H 11.775244 10.622660 -4.783160 0
M  V30 35 H 10.496608 10.133678 -3.741505 0
M  V30 36 H 9.168392 6.731658 -7.928593 0
M  V30 37 H 6.255510 5.822098 -12.151332 0
M  V30 38 H 7.760470 5.100753 -11.676509 0
M  V30 39 H 8.512283 5.875273 -14.154888 0
M  V30 40 H 6.800219 5.802592 -14.438212 0
M  V30 41 H 7.599338 7.799477 -12.799705 0
M  V30 42 H 9.288957 8.507598 -11.821010 0
M  V30 43 H 12.575404 6.940619 -4.574412 0
M  V30 44 H 4.700390 -0.371034 -12.028141 0
M  V30 45 H 5.775417 0.917881 -11.429782 0
M  V30 46 H 9.016655 8.502160 -9.594513 0
M  V30 47 H 10.840644 4.942254 -12.537606 0
M  V30 48 H 8.659004 3.532193 -13.541222 0
M  V30 49 H 7.830892 3.664437 -15.069564 0
M  V30 50 H 12.368411 9.333248 -10.380649 0
M  V30 51 H 10.974987 9.758242 -9.285539 0
M  V30 52 H 10.482711 6.149154 -6.379715 0
M  V30 53 H 11.305571 5.594596 -7.799107 0
M  V30 54 H 12.240436 5.905480 -6.388608 0
M  V30 55 H 12.994229 7.494986 -9.048058 0
M  V30 56 H 9.992081 8.375726 -5.185089 0
M  V30 57 H 7.487161 5.061254 -8.071700 0
M  V30 58 H 7.063486 5.590250 -9.789036 0
M  V30 59 H 10.575473 6.984247 -13.085028 0
M  V30 60 H 6.227060 -1.539905 -12.684406 0
M  V30 61 H 5.537946 0.050646 -14.385830 0
M  V30 62 H 4.597918 1.349060 -13.708381 0
M  V30 63 H 13.286889 5.583249 -1.185805 0
M  V30 64 H 11.582560 5.997147 -1.397227 0
M  V30 65 H 12.520436 5.313894 -2.737142 0
M  V30 66 H 13.372576 9.254504 -3.595874 0
M  V30 67 H 12.350743 9.918460 -2.305334 0
M  V30 68 H 9.338467 5.013849 -10.355296 0
M  V30 69 H 7.144079 7.560801 -11.243570 0
M  V30 70 H 9.615999 4.533801 -8.699861 0
M  V30 END ATOM
M  V30 BEGIN BOND
M  V30 1 1 8 6
M  V30 2 1 9 6
M  V30 3 1 10 9
M  V30 4 1 11 4
M  V30 5 1 11 7
M  V30 6 1 13 3
M  V30 7 1 13 10
M  V30 8 1 15 4
M  V30 9 1 16 8
M  V30 10 1 18 1
M  V30 11 1 19 1
M  V30 12 1 19 17
M  V30 13 1 20 2
M  V30 14 1 20 11
M  V30 15 1 21 1
M  V30 16 1 21 20
M  V30 17 1 22 3
M  V30 18 1 23 5
M  V30 19 1 23 10
M  V30 20 1 23 14
M  V30 21 1 24 5 CFG=3
M  V30 22 1 24 13
M  V30 23 1 24 17
M  V30 24 1 24 19
M  V30 25 1 25 12
M  V30 26 2 26 21
M  V30 27 1 27 12
M  V30 28 1 28 15
M  V30 29 1 29 2
M  V30 30 1 29 4
M  V30 31 1 30 27
M  V30 32 1 31 16
M  V30 33 1 31 30
M  V30 34 1 32 3
M  V30 35 1 32 22
M  V30 36 2 33 31
M  V30 37 1 34 2
M  V30 38 1 35 2
M  V30 39 1 3 36 CFG=1
M  V30 40 1 37 6
M  V30 41 1 38 6
M  V30 42 1 39 8
M  V30 43 1 40 8
M  V30 44 1 41 9
M  V30 45 1 10 42 CFG=3
M  V30 46 1 11 43 CFG=3
M  V30 47 1 44 12
M  V30 48 1 45 12
M  V30 49 1 13 46 CFG=1
M  V30 50 1 47 14
M  V30 51 1 48 16
M  V30 52 1 49 16
M  V30 53 1 50 17
M  V30 54 1 51 17
M  V30 55 1 52 18
M  V30 56 1 53 18
M  V30 57 1 54 18
M  V30 58 1 19 55 CFG=3
M  V30 59 1 20 56 CFG=3
M  V30 60 1 57 22
M  V30 61 1 58 22
M  V30 62 1 23 59 CFG=3
M  V30 63 1 60 25
M  V30 64 1 61 27
M  V30 65 1 62 27
M  V30 66 1 63 28
M  V30 67 1 64 28
M  V30 68 1 65 28
M  V30 69 1 66 29
M  V30 70 1 67 29
M  V30 71 1 68 32
M  V30 72 1 69 9
M  V30 73 1 70 32
M  V30 END BOND
M  V30 END CTAB
M  END
>  <i_epik_Tot_Q>  (1) 
2

>  <i_epik_Tot_abs_Q>  (1) 
2

>  <i_i_glide_confnum>  (1) 
4988

>  <i_i_glide_lignum>  (1) 
43

>  <i_i_glide_posenum>  (1) 
10

>  <i_i_glide_rotatable_bonds>  (1) 
15

>  <i_lp_mmshare_version>  (1) 
72125

>  <i_m_source_file_index>  (1) 
9

>  <i_f3d_flags>  (1) 
0

>  <num_sample>  (1) 
50

>  <b_lp_Chiralities_Consistent>  (1) 
1

>  <r_epik_Charging_Adjusted_Penalty>  (1) 
2.8797985042560583

>  <r_epik_Ionization_Penalty>  (1) 
1.6442763990741283

>  <r_epik_Ionization_Penalty_Charging>  (1) 
1.6439676131770962

>  <r_epik_Ionization_Penalty_Neutral>  (1) 
0.00030878589703216643

>  <r_epik_State_Penalty>  (1) 
1.2358308910789622

>  <r_glide_ring_energy>  (1) 
0

>  <r_i_docking_score>  (1) 
-4.7817692625616015

>  <r_i_glide_ecoul>  (1) 
-13.794701678114496

>  <r_i_glide_eff_state_penalty>  (1) 
1.2358308910789622

>  <r_i_glide_einternal>  (1) 
33.631287765545267

>  <r_i_glide_emodel>  (1) 
-34.183457951041333

>  <r_i_glide_emodel_strain>  (1) 
9.6384469677242208

>  <r_i_glide_energy>  (1) 
-40.63798926303329

>  <r_i_glide_erotb>  (1) 
1.0700444368793263

>  <r_i_glide_esite>  (1) 
-0.12216553107611661

>  <r_i_glide_evdw>  (1) 
-26.843287584918791

>  <r_i_glide_gscore>  (1) 
-6.0176001536405632

>  <r_i_glide_gscore_strain>  (1) 
1.4096117419310552

>  <r_i_glide_hbond>  (1) 
-0.6486435545186191

>  <r_i_glide_ligand_efficiency>  (1) 
-0.14490209886550307

>  <r_i_glide_ligand_efficiency_ln>  (1) 
-1.0634407253175144

>  <r_i_glide_ligand_efficiency_sa>  (1) 
-0.46477845659955047

>  <r_i_glide_lipo>  (1) 
-1.7899659991178054

>  <r_i_glide_metal>  (1) 
-0

>  <r_i_glide_rewards>  (1) 
-2.5251116167752881

>  <r_lp_Energy>  (1) 
51.457698000000001

>  <s_epik_Chemistry_Notes>  (1) 
This compound has an ester and may undergo hydrolysis at high or low pH. This compound contains an acetal/aminal-like group ( X-CH(R)-Y where X, Y are N, S, or O) that may be acid/base labile, releasing an aldehyde. This compound has a N-S or N-O group and may undergo hydrolysis at high or low pH.

>  <s_epik_cmdline>  (1) 
J2VwaWtfcHl0aG9uJywgJy1waHQnLCAnMS4wJywgJy1waCcsICc3LjQnLCAnLXRuJywgJzgnLCAnLW1hJywgJzUwMCcsICctaW1hZScsICc8aW5maWxlLm1hZT4nLCAnLW9tYWUnLCAnPG91dGZpbGUubWFlPic=

>  <s_epik_input>  (1) 
W0NIM11PTjFbQ0BIXShGKVtDQEBIXShbQ0gyXVtDSDJdMSlDKD1PKU4oW0NIM10pW0NASF0yW0NIMl1DMjNPW0NAQEhdKFtPSF0pW0NASF0oW0NASF0zW0NASF00W0NIMl1bTkhdNClbTkhdW0NIMl1bQ0gyXVtDSDJdQyg9TylPW0NIMl1bQ0gyXVtPSF0=

>  <s_glide_docking_method>  (1) 
confgen

>  <s_i_glide_gridfile>  (1) 
gpcr_drd2_6luq_protein_autoprepared_prepared

>  <s_lp_Force_Field>  (1) 
S-OPLS

>  <s_lp_Variant>  (1) 
DiffSBDD_8-12

>  <s_m_source_file>  (1) 
generated_generic_title2_ligand_DiffSBDD_2026-06-23_prepared.sdf

>  <GenAI_Model>  (1) 
DiffSBDD

>  <Protein>  (1) 
generic_title2

$$$$
DiffSBDD_38
     RDKit          3D

  0  0  0  0  0  0  0  0  0  0999 V3000
M  V30 BEGIN CTAB
M  V30 COUNTS 55 57 0 0 1
M  V30 BEGIN ATOM
M  V30 1 C 11.108257 7.965857 -10.427803 0
M  V30 2 C 8.321169 5.933419 -11.884923 0
M  V30 3 N 8.975417 6.542221 -10.702928 0
M  V30 4 C 12.437860 8.693339 -3.557618 0 CFG=2
M  V30 5 C 13.029657 8.288563 -2.223736 0 CFG=1
M  V30 6 C 11.840017 9.188248 -2.263387 0
M  V30 7 C 11.487024 8.040458 -8.947334 0
M  V30 8 C 11.430113 6.734668 -6.705487 0
M  V30 9 C 10.127502 8.786237 -5.861838 0
M  V30 10 C 8.204815 6.595829 -13.063210 0
M  V30 11 C 7.756289 4.506327 -11.704574 0
M  V30 12 C 11.437185 8.004231 -5.832184 0 CFG=1
M  V30 13 C 7.490291 4.476296 -14.245083 0
M  V30 14 C 10.947659 6.857083 -8.155045 0 CFG=1
M  V30 15 C 11.814563 7.593737 -4.394084 0
M  V30 16 C 9.595268 7.906286 -10.819866 0
M  V30 17 C 6.924213 4.014883 -12.904005 0
M  V30 18 C 9.435106 6.770539 -8.271449 0
M  V30 19 C 12.889098 6.848739 -1.742749 0
M  V30 20 C 7.544177 6.006417 -14.295610 0
M  V30 21 C 8.975406 5.930984 -9.459833 0
M  V30 22 O 8.598648 4.790353 -9.253859 0
M  V30 23 H 11.530199 8.892631 -10.785022 0
M  V30 24 H 11.660761 7.177698 -10.934557 0
M  V30 25 H 13.035159 9.405179 -4.126001 0
M  V30 26 H 13.951244 8.784892 -1.934428 0
M  V30 27 H 11.981420 10.232312 -1.993529 0
M  V30 28 H 10.975416 8.712967 -1.844001 0
M  V30 29 H 11.129981 8.987265 -8.548915 0
M  V30 30 H 12.572972 8.073796 -8.855196 0
M  V30 31 H 10.852013 5.960586 -6.201313 0
M  V30 32 H 12.439904 6.333112 -6.760138 0
M  V30 33 H 9.290667 8.148535 -5.585236 0
M  V30 34 H 10.175404 9.636726 -5.185036 0
M  V30 35 H 9.901255 9.191918 -6.841496 0
M  V30 36 H 8.575543 7.588809 -13.178814 0
M  V30 37 H 8.575202 3.805098 -11.535948 0
M  V30 38 H 7.042278 4.455770 -10.882973 0
M  V30 39 H 12.199280 8.674096 -6.225243 0
M  V30 40 H 8.491587 4.064395 -14.380844 0
M  V30 41 H 6.879957 4.098066 -15.067087 0
M  V30 42 H 11.355607 5.990220 -8.648391 0
M  V30 43 H 10.975513 7.137489 -3.882982 0
M  V30 44 H 12.546323 6.790727 -4.412718 0
M  V30 45 H 9.604227 8.346791 -11.801249 0
M  V30 46 H 9.010024 8.627041 -10.248599 0
M  V30 47 H 6.845017 2.927353 -12.880100 0
M  V30 48 H 5.904567 4.394718 -12.807881 0
M  V30 49 H 8.975464 7.752825 -8.266977 0
M  V30 50 H 9.016771 6.280062 -7.391788 0
M  V30 51 H 11.844266 6.551991 -1.649453 0
M  V30 52 H 13.375419 6.152954 -2.419437 0
M  V30 53 H 13.375410 6.716170 -0.784847 0
M  V30 54 H 6.537232 6.417198 -14.378855 0
M  V30 55 H 8.087677 6.328624 -15.182681 0
M  V30 END ATOM
M  V30 BEGIN BOND
M  V30 1 1 3 2
M  V30 2 1 5 4
M  V30 3 1 6 4
M  V30 4 1 6 5
M  V30 5 1 7 1
M  V30 6 2 10 2
M  V30 7 1 11 2
M  V30 8 1 12 8
M  V30 9 1 12 9
M  V30 10 1 14 7
M  V30 11 1 14 8
M  V30 12 1 15 4
M  V30 13 1 15 12
M  V30 14 1 16 1
M  V30 15 1 16 3
M  V30 16 1 17 11
M  V30 17 1 17 13
M  V30 18 1 18 14
M  V30 19 1 19 5
M  V30 20 1 20 10
M  V30 21 1 20 13
M  V30 22 1 21 3
M  V30 23 1 21 18
M  V30 24 2 22 21
M  V30 25 1 23 1
M  V30 26 1 24 1
M  V30 27 1 4 25 CFG=3
M  V30 28 1 5 26 CFG=3
M  V30 29 1 27 6
M  V30 30 1 28 6
M  V30 31 1 29 7
M  V30 32 1 30 7
M  V30 33 1 31 8
M  V30 34 1 32 8
M  V30 35 1 33 9
M  V30 36 1 34 9
M  V30 37 1 35 9
M  V30 38 1 36 10
M  V30 39 1 37 11
M  V30 40 1 38 11
M  V30 41 1 12 39 CFG=3
M  V30 42 1 40 13
M  V30 43 1 41 13
M  V30 44 1 14 42 CFG=3
M  V30 45 1 43 15
M  V30 46 1 44 15
M  V30 47 1 45 16
M  V30 48 1 46 16
M  V30 49 1 47 17
M  V30 50 1 48 17
M  V30 51 1 49 18
M  V30 52 1 50 18
M  V30 53 1 51 19
M  V30 54 1 52 19
M  V30 55 1 53 19
M  V30 56 1 54 20
M  V30 57 1 55 20
M  V30 END BOND
M  V30 END CTAB
M  END
>  <i_epik_Tot_Q>  (1) 
0

>  <i_epik_Tot_abs_Q>  (1) 
0

>  <i_i_glide_confnum>  (1) 
207

>  <i_i_glide_lignum>  (1) 
104

>  <i_i_glide_posenum>  (1) 
375

>  <i_i_glide_rotatable_bonds>  (1) 
5

>  <i_lp_mmshare_version>  (1) 
72125

>  <i_m_source_file_index>  (1) 
39

>  <i_f3d_flags>  (1) 
0

>  <num_sample>  (1) 
50

>  <b_lp_Chiralities_Consistent>  (1) 
1

>  <r_epik_Charging_Adjusted_Penalty>  (1) 
0

>  <r_epik_Ionization_Penalty>  (1) 
3.750095861585333e-08

>  <r_epik_Ionization_Penalty_Charging>  (1) 
0

>  <r_epik_Ionization_Penalty_Neutral>  (1) 
3.750095861585333e-08

>  <r_epik_State_Penalty>  (1) 
-0

>  <r_glide_ring_energy>  (1) 
0

>  <r_i_docking_score>  (1) 
-4.780504890707288

>  <r_i_glide_ecoul>  (1) 
-0.30121801492617095

>  <r_i_glide_eff_state_penalty>  (1) 
-0

>  <r_i_glide_einternal>  (1) 
6.0313388081714834

>  <r_i_glide_emodel>  (1) 
-22.196179541173315

>  <r_i_glide_emodel_strain>  (1) 
3.1345560766670886

>  <r_i_glide_energy>  (1) 
-21.339987406431462

>  <r_i_glide_erotb>  (1) 
1.0003538244760346

>  <r_i_glide_esite>  (1) 
-0.18591944370066349

>  <r_i_glide_evdw>  (1) 
-21.038769391505291

>  <r_i_glide_gscore>  (1) 
-4.780504890707288

>  <r_i_glide_gscore_strain>  (1) 
0

>  <r_i_glide_hbond>  (1) 
0

>  <r_i_glide_ligand_efficiency>  (1) 
-0.21729567685033127

>  <r_i_glide_ligand_efficiency_ln>  (1) 
-1.1685297684415363

>  <r_i_glide_ligand_efficiency_sa>  (1) 
-0.60887103291601163

>  <r_i_glide_lipo>  (1) 
-2.2579915769411949

>  <r_i_glide_metal>  (1) 
-0

>  <r_i_glide_rewards>  (1) 
-2.2398265227272738

>  <r_lp_Energy>  (1) 
35.882517999999997

>  <r_lp_tautomer_probability>  (1) 
1

>  <s_epik_cmdline>  (1) 
J2VwaWtfcHl0aG9uJywgJy1waHQnLCAnMS4wJywgJy1waCcsICc3LjQnLCAnLXRuJywgJzgnLCAnLW1hJywgJzUwMCcsICctaW1hZScsICc8aW5maWxlLm1hZT4nLCAnLW9tYWUnLCAnPG91dGZpbGUubWFlPic=

>  <s_epik_input>  (1) 
W0NIMl0xW0NIMl1bQ0gyXVtDSDJdW0NIXT1DMU4yW0NIMl1bQ0gyXVtDSDJdW0NASF0oW0NIMl1DMj1PKVtDSDJdW0NASF0oW0NIM10pW0NIMl1bQ0BASF0zW0NAQEhdKFtDSDJdMylbQ0gzXQ==

>  <s_glide_docking_method>  (1) 
confgen

>  <s_i_glide_gridfile>  (1) 
gpcr_drd2_6luq_protein_autoprepared_prepared

>  <s_lp_Force_Field>  (1) 
S-OPLS

>  <s_lp_Variant>  (1) 
DiffSBDD_38-2

>  <s_m_source_file>  (1) 
generated_generic_title2_ligand_DiffSBDD_2026-06-23_prepared.sdf

>  <GenAI_Model>  (1) 
DiffSBDD

>  <Protein>  (1) 
generic_title2

$$$$
DiffSBDD_0
     RDKit          3D

  0  0  0  0  0  0  0  0  0  0999 V3000
M  V30 BEGIN CTAB
M  V30 COUNTS 70 74 0 0 1
M  V30 BEGIN ATOM
M  V30 1 C 5.665066 5.973879 -22.810121 0
M  V30 2 N 6.322955 5.896934 -13.244066 0
M  V30 3 C 9.553691 7.771899 -11.777992 0 CFG=1
M  V30 4 C 5.812786 6.373302 -15.582317 0
M  V30 5 F 7.419707 4.197128 -21.259699 0
M  V30 6 C 5.923709 7.189920 -12.731251 0
M  V30 7 C 4.494954 6.068257 -21.820290 0
M  V30 8 C 5.252957 6.916505 -17.819304 0
M  V30 9 C 6.086526 5.543588 -19.867884 0 CFG=1
M  V30 10 C 10.368769 7.139319 -9.324995 0
M  V30 11 C 6.938400 5.038637 -12.249229 0 CFG=2
M  V30 12 C 6.737736 1.440284 -13.081875 0
M  V30 13 C 10.631161 7.404500 -10.784401 0 CFG=1
M  V30 14 O 5.825210 5.992188 -16.897525 0
M  V30 15 C 7.249590 5.465404 -20.883254 0 CFG=2
M  V30 16 C 10.400226 6.545240 -12.024295 0 CFG=1
M  V30 17 N 8.171539 7.256925 -11.585025 0 CFG=2 CHG=1
M  V30 18 C 6.073343 6.899792 -19.119421 0
M  V30 19 C 6.217669 2.832669 -12.697160 0
M  V30 20 C 8.163052 5.755498 -11.604094 0 CFG=2
M  V30 21 O 6.832357 1.319153 -14.484947 0
M  V30 22 C 4.749296 5.205687 -20.571132 0
M  V30 23 N 10.708377 8.028764 -8.347083 0
M  V30 24 C 7.210065 7.972496 -12.458772 0
M  V30 25 N 9.843628 5.988994 -8.905756 0
M  V30 26 O 9.979076 6.045294 -7.510843 0
M  V30 27 C 10.524668 7.256229 -7.291283 0
M  V30 28 O 7.298384 3.757662 -12.669693 0
M  V30 29 N 10.872971 7.506933 -5.975573 0
M  V30 30 C 6.293253 5.581251 -14.605536 0
M  V30 31 C 7.001319 6.326421 -22.136015 0
M  V30 32 C 10.804830 6.669979 -4.793359 0
M  V30 33 C 9.517006 5.331070 -12.171009 0
M  V30 34 H 5.716686 4.962070 -23.214568 0
M  V30 35 H 5.489541 6.634943 -23.659129 0
M  V30 36 H 9.667309 8.665764 -12.385083 0
M  V30 37 H 5.386461 7.353214 -15.431500 0
M  V30 38 H 5.250238 7.724764 -13.396114 0
M  V30 39 H 5.372380 7.054111 -11.799314 0
M  V30 40 H 3.575658 5.747327 -22.310521 0
M  V30 41 H 4.336164 7.107907 -21.533604 0
M  V30 42 H 4.211794 6.650608 -18.002808 0
M  V30 43 H 5.252740 7.940555 -17.441133 0
M  V30 44 H 6.270708 4.771366 -19.119516 0
M  V30 45 H 6.182223 4.925478 -11.468852 0
M  V30 46 H 6.037067 0.680505 -12.733183 0
M  V30 47 H 7.700137 1.228789 -12.613957 0
M  V30 48 H 11.544467 7.993344 -10.828934 0
M  V30 49 H 8.189306 5.753702 -20.410800 0
M  V30 50 H 11.185046 6.611616 -12.775567 0
M  V30 51 H 5.714967 7.690271 -19.777770 0
M  V30 52 H 7.095836 7.179764 -18.862900 0
M  V30 53 H 5.416149 3.156162 -13.362231 0
M  V30 54 H 5.795803 2.779937 -11.692837 0
M  V30 55 H 8.126298 5.431597 -10.568157 0
M  V30 56 H 7.046297 0.421870 -14.694499 0
M  V30 57 H 4.763773 4.156052 -20.868217 0
M  V30 58 H 3.912943 5.300800 -19.884809 0
M  V30 59 H 7.685409 8.185449 -13.418470 0
M  V30 60 H 6.984755 8.926263 -11.984893 0
M  V30 61 H 11.296732 8.408187 -5.817107 0
M  V30 62 H 6.706110 4.608455 -14.831380 0
M  V30 63 H 7.818943 6.193214 -22.845325 0
M  V30 64 H 7.004174 7.382226 -21.863342 0
M  V30 65 H 11.225211 7.189794 -3.933611 0
M  V30 66 H 9.775448 6.390084 -4.576703 0
M  V30 67 H 11.379682 5.757188 -4.947969 0
M  V30 68 H 9.439802 5.091372 -13.232834 0
M  V30 69 H 9.938011 4.466319 -11.656793 0
M  V30 70 H 7.844021 7.509152 -10.642126 0
M  V30 END ATOM
M  V30 BEGIN BOND
M  V30 1 1 6 2
M  V30 2 1 7 1
M  V30 3 1 11 2
M  V30 4 1 13 3
M  V30 5 1 13 10
M  V30 6 1 14 4
M  V30 7 1 14 8
M  V30 8 1 15 5
M  V30 9 1 15 9
M  V30 10 1 16 3
M  V30 11 1 16 13
M  V30 12 1 17 3
M  V30 13 1 18 8
M  V30 14 1 18 9
M  V30 15 1 19 12
M  V30 16 1 20 11
M  V30 17 1 20 17
M  V30 18 1 21 12
M  V30 19 1 22 7
M  V30 20 1 22 9
M  V30 21 1 23 10
M  V30 22 1 24 6
M  V30 23 1 24 17
M  V30 24 2 25 10
M  V30 25 1 26 25
M  V30 26 2 27 23
M  V30 27 1 27 26
M  V30 28 1 28 11
M  V30 29 1 28 19
M  V30 30 1 29 27
M  V30 31 1 30 2
M  V30 32 2 30 4
M  V30 33 1 31 1
M  V30 34 1 31 15
M  V30 35 1 32 29
M  V30 36 1 33 16
M  V30 37 1 33 20
M  V30 38 1 34 1
M  V30 39 1 35 1
M  V30 40 1 3 36 CFG=3
M  V30 41 1 37 4
M  V30 42 1 38 6
M  V30 43 1 39 6
M  V30 44 1 40 7
M  V30 45 1 41 7
M  V30 46 1 42 8
M  V30 47 1 43 8
M  V30 48 1 9 44 CFG=1
M  V30 49 1 11 45 CFG=1
M  V30 50 1 46 12
M  V30 51 1 47 12
M  V30 52 1 13 48 CFG=1
M  V30 53 1 15 49 CFG=1
M  V30 54 1 16 50 CFG=3
M  V30 55 1 51 18
M  V30 56 1 52 18
M  V30 57 1 53 19
M  V30 58 1 54 19
M  V30 59 1 20 55 CFG=1
M  V30 60 1 56 21
M  V30 61 1 57 22
M  V30 62 1 58 22
M  V30 63 1 59 24
M  V30 64 1 60 24
M  V30 65 1 61 29
M  V30 66 1 62 30
M  V30 67 1 63 31
M  V30 68 1 64 31
M  V30 69 1 65 32
M  V30 70 1 66 32
M  V30 71 1 67 32
M  V30 72 1 68 33
M  V30 73 1 69 33
M  V30 74 1 17 70 CFG=1
M  V30 END BOND
M  V30 END CTAB
M  END
>  <i_epik_Tot_Q>  (1) 
1

>  <i_epik_Tot_abs_Q>  (1) 
1

>  <i_i_glide_confnum>  (1) 
339

>  <i_i_glide_lignum>  (1) 
1

>  <i_i_glide_posenum>  (1) 
28

>  <i_i_glide_rotatable_bonds>  (1) 
11

>  <i_lp_mmshare_version>  (1) 
72125

>  <i_m_source_file_index>  (1) 
1

>  <i_f3d_flags>  (1) 
0

>  <num_sample>  (1) 
50

>  <b_lp_Chiralities_Consistent>  (1) 
1

>  <r_epik_Charging_Adjusted_Penalty>  (1) 
0.41344222577729461

>  <r_epik_Ionization_Penalty>  (1) 
0.0027644559619576371

>  <r_epik_Ionization_Penalty_Charging>  (1) 
0.0027623868246906495

>  <r_epik_Ionization_Penalty_Neutral>  (1) 
2.0691372669875143e-06

>  <r_epik_State_Penalty>  (1) 
0.41067983895260396

>  <r_glide_ring_energy>  (1) 
1.3007136337365919

>  <r_i_docking_score>  (1) 
-4.7801432506733335

>  <r_i_glide_ecoul>  (1) 
-6.2456104736214009

>  <r_i_glide_eff_state_penalty>  (1) 
0.41067983895260396

>  <r_i_glide_einternal>  (1) 
15.726787467672301

>  <r_i_glide_emodel>  (1) 
-43.399131393300372

>  <r_i_glide_emodel_strain>  (1) 
5.3232339402052986

>  <r_i_glide_energy>  (1) 
-45.475584915154144

>  <r_i_glide_erotb>  (1) 
0.74142510397790429

>  <r_i_glide_esite>  (1) 
-0.18282976874544152

>  <r_i_glide_evdw>  (1) 
-39.22997444153274

>  <r_i_glide_gscore>  (1) 
-5.1908230896259377

>  <r_i_glide_gscore_strain>  (1) 
0.33080848505132465

>  <r_i_glide_hbond>  (1) 
-0.20000000000000001

>  <r_i_glide_ligand_efficiency>  (1) 
-0.14485282577797981

>  <r_i_glide_ligand_efficiency_ln>  (1) 
-1.0630791086926026

>  <r_i_glide_ligand_efficiency_sa>  (1) 
-0.46462041147977468

>  <r_i_glide_lipo>  (1) 
-1.9762276866684696

>  <r_i_glide_metal>  (1) 
-0

>  <r_i_glide_rewards>  (1) 
-1.0056589301214087

>  <r_lp_Energy>  (1) 
39.475147

>  <r_lp_tautomer_probability>  (1) 
0.5

>  <s_epik_Chemistry_Notes>  (1) 
This compound has an imine and may undergo hydrolysis. This compound contains an acetal/aminal-like group ( X-CH(R)-Y where X, Y are N, S, or O) that may be acid/base labile, releasing an aldehyde.

>  <s_epik_cmdline>  (1) 
J2VwaWtfcHl0aG9uJywgJy1waHQnLCAnMS4wJywgJy1waCcsICc3LjQnLCAnLXRuJywgJzgnLCAnLW1hJywgJzUwMCcsICctaW1hZScsICc8aW5maWxlLm1hZT4nLCAnLW9tYWUnLCAnPG91dGZpbGUubWFlPic=

>  <s_epik_input>  (1) 
W0NIMl0xW0NIMl1bQ0gyXVtDSDJdW0NASF0oRilbQ0BIXTFbQ0gyXVtDSDJdTy9bQ0hdPVtDSF0vTihbQ0BIXTJPW0NIMl1bQ0gyXVtPSF0pW0NIMl1bQ0gyXU4zW0NAQEhdMltDSDJdW0NAQEhdKFtDQEBIXTM0KVtDQEBIXTRjNW5jKG9uNSlbTkhdW0NIM10=

>  <s_glide_docking_method>  (1) 
confgen

>  <s_i_glide_gridfile>  (1) 
gpcr_drd2_6luq_protein_autoprepared_prepared

>  <s_lp_Force_Field>  (1) 
S-OPLS

>  <s_lp_Variant>  (1) 
DiffSBDD_0-1

>  <s_m_source_file>  (1) 
generated_generic_title2_ligand_DiffSBDD_2026-06-23_prepared.sdf

>  <GenAI_Model>  (1) 
DiffSBDD

>  <Protein>  (1) 
generic_title2

$$$$
DiffSBDD_8
     RDKit          3D

  0  0  0  0  0  0  0  0  0  0999 V3000
M  V30 BEGIN CTAB
M  V30 COUNTS 69 72 0 0 1
M  V30 BEGIN ATOM
M  V30 1 N 6.389759 5.727184 -14.908760 0
M  V30 2 C 9.771319 4.773498 -16.039756 0
M  V30 3 C 8.921549 6.737582 -12.751689 0 CFG=1
M  V30 4 N 8.748749 3.115016 -17.480810 0
M  V30 5 O 7.107121 4.142454 -11.544227 0
M  V30 6 C 9.726327 5.621107 -8.491921 0
M  V30 7 F 6.975501 2.588245 -16.136502 0
M  V30 8 C 10.749314 6.361218 -7.630994 0
M  V30 9 N 9.329075 6.388192 -9.696380 0 CHG=1
M  V30 10 C 8.135340 5.866057 -10.412569 0 CFG=1
M  V30 11 C 8.235536 3.003818 -16.120115 0 CFG=2
M  V30 12 C 12.894604 9.211559 -3.587760 0
M  V30 13 C 7.785079 6.420656 -11.800397 0 CFG=2
M  V30 14 O 9.355575 3.880233 -11.064402 0
M  V30 15 O 9.417804 1.861570 -17.726019 0
M  V30 16 C 10.062488 7.319559 -6.653988 0
M  V30 17 C 5.432499 5.488140 -12.485540 0
M  V30 18 C 5.378485 6.741556 -15.211527 0
M  V30 19 C 6.231036 4.981445 -13.676451 0 CFG=2
M  V30 20 C 8.414206 4.375676 -15.455782 0 CFG=2
M  V30 21 C 7.337392 5.432951 -15.833970 0
M  V30 22 C 10.114509 7.590159 -12.384977 0
M  V30 23 C 8.111594 4.389313 -10.627189 0 CFG=2
M  V30 24 C 6.917650 5.288933 -12.347693 0 CFG=2
M  V30 25 O 12.600533 8.790241 -2.267542 0
M  V30 26 O 7.376965 5.988819 -16.935034 0
M  V30 27 C 11.623042 9.707802 -4.307276 0
M  V30 28 C 8.570393 1.070667 -18.541958 0
M  V30 29 C 9.817242 4.114406 -17.429496 0
M  V30 30 O 11.260604 9.026185 -5.499307 0
M  V30 31 C 10.972705 7.718497 -5.502872 0
M  V30 32 N 10.208991 6.155985 -12.405337 0
M  V30 33 O 11.368356 6.899820 -4.673815 0
M  V30 34 H 9.920682 5.853461 -16.098817 0
M  V30 35 H 10.575395 4.390293 -15.415592 0
M  V30 36 H 8.575487 6.789497 -13.780814 0
M  V30 37 H 10.170969 4.674225 -8.793126 0
M  V30 38 H 8.847046 5.368764 -7.895794 0
M  V30 39 H 11.475097 6.889939 -8.248789 0
M  V30 40 H 11.318415 5.617039 -7.070046 0
M  V30 41 H 9.093643 7.336601 -9.436719 0
M  V30 42 H 7.272304 5.990197 -9.765712 0
M  V30 43 H 8.783147 2.230991 -15.585133 0
M  V30 44 H 13.648310 9.990601 -3.583754 0
M  V30 45 H 13.370005 8.390056 -4.102654 0
M  V30 46 H 7.189439 7.326757 -11.696108 0
M  V30 47 H 9.308580 2.933009 -11.061878 0
M  V30 48 H 9.188478 6.837271 -6.211515 0
M  V30 49 H 9.694080 8.205208 -7.172997 0
M  V30 50 H 4.803806 4.768698 -11.966259 0
M  V30 51 H 5.106655 6.519672 -12.400294 0
M  V30 52 H 4.575497 6.274967 -15.778800 0
M  V30 53 H 4.977579 7.249012 -14.342139 0
M  V30 54 H 5.783076 7.540302 -15.835145 0
M  V30 55 H 6.066536 3.918713 -13.860858 0
M  V30 56 H 8.517577 4.267827 -14.377694 0
M  V30 57 H 10.739908 7.990219 -13.169810 0
M  V30 58 H 10.142493 8.110810 -11.432392 0
M  V30 59 H 7.839162 3.990221 -9.662435 0
M  V30 60 H 12.737392 9.520914 -1.677625 0
M  V30 61 H 10.773772 9.719723 -3.625619 0
M  V30 62 H 11.759849 10.739372 -4.623644 0
M  V30 63 H 9.047711 0.106370 -18.720160 0
M  V30 64 H 7.609228 0.878482 -18.062851 0
M  V30 65 H 8.392427 1.540914 -19.509576 0
M  V30 66 H 9.616995 4.854911 -18.202442 0
M  V30 67 H 10.801646 3.690247 -17.633575 0
M  V30 68 H 10.740405 5.713242 -13.148988 0
M  V30 69 H 10.081057 6.373582 -10.376036 0
M  V30 END ATOM
M  V30 BEGIN BOND
M  V30 1 1 8 6
M  V30 2 1 9 6
M  V30 3 1 10 9
M  V30 4 1 11 4
M  V30 5 1 11 7
M  V30 6 1 13 3
M  V30 7 1 13 10
M  V30 8 1 15 4
M  V30 9 1 16 8
M  V30 10 1 18 1
M  V30 11 1 19 1
M  V30 12 1 19 17
M  V30 13 1 20 2
M  V30 14 1 20 11
M  V30 15 1 21 1
M  V30 16 1 21 20
M  V30 17 1 22 3
M  V30 18 1 23 5
M  V30 19 1 23 10
M  V30 20 1 23 14
M  V30 21 1 24 5 CFG=1
M  V30 22 1 24 13
M  V30 23 1 24 17
M  V30 24 1 24 19
M  V30 25 1 25 12
M  V30 26 2 26 21
M  V30 27 1 27 12
M  V30 28 1 28 15
M  V30 29 1 29 2
M  V30 30 1 29 4
M  V30 31 1 30 27
M  V30 32 1 31 16
M  V30 33 1 31 30
M  V30 34 1 32 3
M  V30 35 1 32 22
M  V30 36 2 33 31
M  V30 37 1 34 2
M  V30 38 1 35 2
M  V30 39 1 3 36 CFG=3
M  V30 40 1 37 6
M  V30 41 1 38 6
M  V30 42 1 39 8
M  V30 43 1 40 8
M  V30 44 1 41 9
M  V30 45 1 10 42 CFG=1
M  V30 46 1 11 43 CFG=1
M  V30 47 1 44 12
M  V30 48 1 45 12
M  V30 49 1 13 46 CFG=1
M  V30 50 1 47 14
M  V30 51 1 48 16
M  V30 52 1 49 16
M  V30 53 1 50 17
M  V30 54 1 51 17
M  V30 55 1 52 18
M  V30 56 1 53 18
M  V30 57 1 54 18
M  V30 58 1 19 55 CFG=3
M  V30 59 1 20 56 CFG=1
M  V30 60 1 57 22
M  V30 61 1 58 22
M  V30 62 1 23 59 CFG=1
M  V30 63 1 60 25
M  V30 64 1 61 27
M  V30 65 1 62 27
M  V30 66 1 63 28
M  V30 67 1 64 28
M  V30 68 1 65 28
M  V30 69 1 66 29
M  V30 70 1 67 29
M  V30 71 1 68 32
M  V30 72 1 69 9
M  V30 END BOND
M  V30 END CTAB
M  END
>  <i_epik_Tot_Q>  (1) 
1

>  <i_epik_Tot_abs_Q>  (1) 
1

>  <i_i_glide_confnum>  (1) 
1049

>  <i_i_glide_lignum>  (1) 
34

>  <i_i_glide_posenum>  (1) 
68

>  <i_i_glide_rotatable_bonds>  (1) 
15

>  <i_lp_mmshare_version>  (1) 
72125

>  <i_m_source_file_index>  (1) 
9

>  <i_f3d_flags>  (1) 
0

>  <num_sample>  (1) 
50

>  <b_lp_Chiralities_Consistent>  (1) 
1

>  <r_epik_Charging_Adjusted_Penalty>  (1) 
0.31458683345696248

>  <r_epik_Ionization_Penalty>  (1) 
0.14300301403106822

>  <r_epik_Ionization_Penalty_Charging>  (1) 
0.065080964065447874

>  <r_epik_Ionization_Penalty_Neutral>  (1) 
0.077922049965620341

>  <r_epik_State_Penalty>  (1) 
0.24950586939151459

>  <r_glide_ring_energy>  (1) 
0

>  <r_i_docking_score>  (1) 
-4.7791778231814463

>  <r_i_glide_ecoul>  (1) 
-8.7100962281610883

>  <r_i_glide_eff_state_penalty>  (1) 
0.24950586939151459

>  <r_i_glide_einternal>  (1) 
65.537056501796883

>  <r_i_glide_emodel>  (1) 
-11.668023880515101

>  <r_i_glide_emodel_strain>  (1) 
4.2130346521828415

>  <r_i_glide_energy>  (1) 
-34.786486785595805

>  <r_i_glide_erotb>  (1) 
1.0741905119875848

>  <r_i_glide_esite>  (1) 
-0.11318448037462586

>  <r_i_glide_evdw>  (1) 
-26.076390557434717

>  <r_i_glide_gscore>  (1) 
-5.0286836925729608

>  <r_i_glide_gscore_strain>  (1) 
0.053258663045710364

>  <r_i_glide_hbond>  (1) 
-0.4681149860050754

>  <r_i_glide_ligand_efficiency>  (1) 
-0.14482357039943777

>  <r_i_glide_ligand_efficiency_ln>  (1) 
-1.062864402617123

>  <r_i_glide_ligand_efficiency_sa>  (1) 
-0.46452657384876406

>  <r_i_glide_lipo>  (1) 
-1.4231444318447513

>  <r_i_glide_metal>  (1) 
-0

>  <r_i_glide_rewards>  (1) 
-1.5413550072859039

>  <r_lp_Energy>  (1) 
39.880201

>  <s_epik_Chemistry_Notes>  (1) 
This compound has an ester and may undergo hydrolysis at high or low pH. This compound contains an acetal/aminal-like group ( X-CH(R)-Y where X, Y are N, S, or O) that may be acid/base labile, releasing an aldehyde. This compound has a N-S or N-O group and may undergo hydrolysis at high or low pH.

>  <s_epik_cmdline>  (1) 
J2VwaWtfcHl0aG9uJywgJy1waHQnLCAnMS4wJywgJy1waCcsICc3LjQnLCAnLXRuJywgJzgnLCAnLW1hJywgJzUwMCcsICctaW1hZScsICc8aW5maWxlLm1hZT4nLCAnLW9tYWUnLCAnPG91dGZpbGUubWFlPic=

>  <s_epik_input>  (1) 
W0NIM11PTjFbQ0BIXShGKVtDQEBIXShbQ0gyXVtDSDJdMSlDKD1PKU4oW0NIM10pW0NASF0yW0NIMl1DMjNPW0NAQEhdKFtPSF0pW0NASF0oW0NASF0zW0NASF00W0NIMl1bTkhdNClbTkhdW0NIMl1bQ0gyXVtDSDJdQyg9TylPW0NIMl1bQ0gyXVtPSF0=

>  <s_glide_docking_method>  (1) 
confgen

>  <s_i_glide_gridfile>  (1) 
gpcr_drd2_6luq_protein_autoprepared_prepared

>  <s_lp_Force_Field>  (1) 
S-OPLS

>  <s_lp_Variant>  (1) 
DiffSBDD_8-3

>  <s_m_source_file>  (1) 
generated_generic_title2_ligand_DiffSBDD_2026-06-23_prepared.sdf

>  <GenAI_Model>  (1) 
DiffSBDD

>  <Protein>  (1) 
generic_title2

$$$$
DiffSBDD_28
     RDKit          3D

  0  0  0  0  0  0  0  0  0  0999 V3000
M  V30 BEGIN CTAB
M  V30 COUNTS 79 86 0 0 1
M  V30 BEGIN ATOM
M  V30 1 F 4.133598 -1.525541 -18.538550 0
M  V30 2 C 9.859475 6.606109 -9.626639 0 CFG=1
M  V30 3 C 7.404609 5.208747 -12.280068 0 CFG=2
M  V30 4 C 9.481090 8.037110 -7.312484 0 CFG=2
M  V30 5 C 7.636240 1.371414 -15.639062 0 CFG=1
M  V30 6 C 10.175401 5.424240 -8.705441 0
M  V30 7 C 7.964728 3.564689 -14.165089 0 CFG=2
M  V30 8 C 6.457767 0.516930 -18.661291 0 CFG=1
M  V30 9 C 6.583191 5.161779 -10.984756 0
M  V30 10 C 6.962860 2.151383 -16.751536 0 CFG=1
M  V30 11 C 11.170262 8.405964 -9.438940 0 CFG=1
M  V30 12 C 9.133091 3.690390 -12.137447 0
M  V30 13 C 9.994856 7.825218 -8.698410 0 CFG=1
M  V30 14 O 12.389487 8.375182 -8.725840 0
M  V30 15 C 5.439356 -1.801725 -18.190761 0 CFG=1
M  V30 16 C 8.063108 2.043428 -14.362558 0 CFG=1
M  V30 17 O 6.834316 1.327307 -14.445644 0
M  V30 18 N 7.820580 3.852007 -12.724622 0
M  V30 19 O 11.375443 7.956744 -5.733287 0
M  V30 20 C 6.027777 -2.895115 -18.994365 0
M  V30 21 O 8.976539 8.790204 -8.425341 0
M  V30 22 C 7.198989 3.671983 -16.581995 0
M  V30 23 C 10.966020 7.320971 -10.479698 0
M  V30 24 N 8.575413 6.355273 -10.396683 0 CFG=2 CHG=1
M  V30 25 C 10.353471 8.754281 -6.317792 0
M  V30 26 N 7.186366 0.136052 -19.895935 0 CHG=1
M  V30 27 C 6.931663 4.160743 -15.135365 0
M  V30 28 C 8.521135 0.768983 -19.889263 0
M  V30 29 C 8.642005 1.476787 -18.540892 0
M  V30 30 O 7.091425 -2.718243 -19.590536 0
M  V30 31 C 9.756534 5.065560 -12.243000 0
M  V30 32 C 6.346366 -0.687259 -17.687731 0
M  V30 33 O 5.772360 -3.155534 -17.731802 0
M  V30 34 N 7.239681 1.674768 -18.135894 0 CFG=1 CHG=1
M  V30 35 C 7.609292 5.349750 -9.865197 0
M  V30 36 C 10.981681 6.711589 -5.176532 0
M  V30 37 C 8.647334 6.047667 -11.872064 0 CFG=1
M  V30 38 H 6.808882 5.710947 -13.040376 0
M  V30 39 H 8.755678 7.335824 -6.905005 0
M  V30 40 H 8.086631 0.411736 -15.878397 0
M  V30 41 H 11.121786 5.579842 -8.194267 0
M  V30 42 H 9.438052 5.324328 -7.909506 0
M  V30 43 H 10.175407 4.467953 -9.222752 0
M  V30 44 H 8.908906 3.982701 -14.515788 0
M  V30 45 H 5.454767 0.861919 -18.920255 0
M  V30 46 H 6.011288 4.239193 -10.876753 0
M  V30 47 H 5.871661 5.990140 -10.971381 0
M  V30 48 H 5.897957 1.978739 -16.625852 0
M  V30 49 H 11.004964 9.401861 -9.839366 0
M  V30 50 H 9.061525 3.362147 -11.107355 0
M  V30 51 H 9.762307 2.948044 -12.623445 0
M  V30 52 H 13.013843 8.899888 -9.208659 0
M  V30 53 H 8.804450 1.512822 -13.770217 0
M  V30 54 H 6.576115 4.232954 -17.278447 0
M  V30 55 H 8.228128 3.918037 -16.846037 0
M  V30 56 H 10.606310 7.764269 -11.407259 0
M  V30 57 H 11.894594 6.790424 -10.656685 0
M  V30 58 H 10.851558 9.590030 -6.804213 0
M  V30 59 H 9.706896 9.190164 -5.585015 0
M  V30 60 H 6.672934 0.446035 -20.711234 0
M  V30 61 H 5.926588 3.929408 -14.785224 0
M  V30 62 H 7.012268 5.248472 -15.133400 0
M  V30 63 H 8.570047 1.490062 -20.705634 0
M  V30 64 H 9.311266 0.033646 -20.043191 0
M  V30 65 H 9.189882 2.417920 -18.609872 0
M  V30 66 H 9.165151 0.830350 -17.834498 0
M  V30 67 H 10.575409 5.092953 -11.585025 0
M  V30 68 H 10.130683 5.263487 -13.247631 0
M  V30 69 H 7.337518 -1.093552 -17.475429 0
M  V30 70 H 5.930352 -0.381518 -16.727515 0
M  V30 71 H 8.070043 4.390180 -9.680350 0
M  V30 72 H 7.153473 5.595666 -8.912265 0
M  V30 73 H 11.808620 6.300744 -4.599144 0
M  V30 74 H 10.130253 6.790313 -4.508062 0
M  V30 75 H 10.740051 5.992878 -5.955526 0
M  V30 76 H 8.720110 6.971708 -12.446264 0
M  V30 77 H 8.006784 7.198979 -10.248249 0
M  V30 78 H 7.282813 -0.874714 -19.939947 0
M  V30 79 H 6.926212 2.444983 -18.711087 0
M  V30 END ATOM
M  V30 BEGIN BOND
M  V30 1 1 2 6 CFG=1
M  V30 2 1 9 3
M  V30 3 1 10 5
M  V30 4 1 13 2
M  V30 5 1 13 4
M  V30 6 1 13 11
M  V30 7 1 14 11
M  V30 8 1 15 1 CFG=3
M  V30 9 1 16 5
M  V30 10 1 16 7
M  V30 11 1 17 5
M  V30 12 1 17 16
M  V30 13 1 18 3
M  V30 14 1 18 7
M  V30 15 1 18 12
M  V30 16 1 20 15
M  V30 17 1 21 4
M  V30 18 1 13 21 CFG=3
M  V30 19 1 22 10
M  V30 20 1 23 2
M  V30 21 1 23 11
M  V30 22 1 24 2
M  V30 23 1 25 4
M  V30 24 1 25 19
M  V30 25 1 26 8
M  V30 26 1 27 7
M  V30 27 1 27 22
M  V30 28 1 28 26
M  V30 29 1 29 28
M  V30 30 2 30 20
M  V30 31 1 31 12
M  V30 32 1 32 8
M  V30 33 1 32 15
M  V30 34 1 33 15
M  V30 35 1 33 20
M  V30 36 1 34 8
M  V30 37 1 34 10
M  V30 38 1 34 29
M  V30 39 1 35 9
M  V30 40 1 35 24
M  V30 41 1 36 19
M  V30 42 1 37 3
M  V30 43 1 37 24
M  V30 44 1 37 31
M  V30 45 1 3 38 CFG=3
M  V30 46 1 4 39 CFG=1
M  V30 47 1 5 40 CFG=3
M  V30 48 1 41 6
M  V30 49 1 42 6
M  V30 50 1 43 6
M  V30 51 1 7 44 CFG=3
M  V30 52 1 8 45 CFG=3
M  V30 53 1 46 9
M  V30 54 1 47 9
M  V30 55 1 10 48 CFG=1
M  V30 56 1 11 49 CFG=3
M  V30 57 1 50 12
M  V30 58 1 51 12
M  V30 59 1 52 14
M  V30 60 1 16 53 CFG=1
M  V30 61 1 54 22
M  V30 62 1 55 22
M  V30 63 1 56 23
M  V30 64 1 57 23
M  V30 65 1 58 25
M  V30 66 1 59 25
M  V30 67 1 60 26
M  V30 68 1 61 27
M  V30 69 1 62 27
M  V30 70 1 63 28
M  V30 71 1 64 28
M  V30 72 1 65 29
M  V30 73 1 66 29
M  V30 74 1 67 31
M  V30 75 1 68 31
M  V30 76 1 69 32
M  V30 77 1 70 32
M  V30 78 1 71 35
M  V30 79 1 72 35
M  V30 80 1 73 36
M  V30 81 1 74 36
M  V30 82 1 75 36
M  V30 83 1 37 76 CFG=3
M  V30 84 1 24 77 CFG=3
M  V30 85 1 78 26
M  V30 86 1 34 79 CFG=3
M  V30 END BOND
M  V30 END CTAB
M  END
>  <i_epik_Tot_Q>  (1) 
3

>  <i_epik_Tot_abs_Q>  (1) 
3

>  <i_i_glide_confnum>  (1) 
214

>  <i_i_glide_lignum>  (1) 
83

>  <i_i_glide_posenum>  (1) 
34

>  <i_i_glide_rotatable_bonds>  (1) 
8

>  <i_lp_mmshare_version>  (1) 
72125

>  <i_m_source_file_index>  (1) 
29

>  <i_f3d_flags>  (1) 
0

>  <num_sample>  (1) 
50

>  <b_lp_Chiralities_Consistent>  (1) 
1

>  <r_epik_Charging_Adjusted_Penalty>  (1) 
2.5479580004866769

>  <r_epik_Ionization_Penalty>  (1) 
1.853674345886815

>  <r_epik_Ionization_Penalty_Charging>  (1) 
1.8530809818743854

>  <r_epik_Ionization_Penalty_Neutral>  (1) 
0.00059336401242958479

>  <r_epik_State_Penalty>  (1) 
0.69487701861229134

>  <r_glide_ring_energy>  (1) 
0.81914574756082947

>  <r_i_docking_score>  (1) 
-4.7752225733846547

>  <r_i_glide_ecoul>  (1) 
-11.960466141039648

>  <r_i_glide_eff_state_penalty>  (1) 
0.69487701861229134

>  <r_i_glide_einternal>  (1) 
24.333031324470092

>  <r_i_glide_emodel>  (1) 
-18.887360369427942

>  <r_i_glide_emodel_strain>  (1) 
5.2399696210949287

>  <r_i_glide_energy>  (1) 
-35.913322914384956

>  <r_i_glide_erotb>  (1) 
0.44698704239028575

>  <r_i_glide_esite>  (1) 
-0.10259055596222276

>  <r_i_glide_evdw>  (1) 
-23.95285677334531

>  <r_i_glide_gscore>  (1) 
-5.470099591996946

>  <r_i_glide_gscore_strain>  (1) 
0.30999240527373217

>  <r_i_glide_hbond>  (1) 
-0.1751882376625607

>  <r_i_glide_ligand_efficiency>  (1) 
-0.1290600695509366

>  <r_i_glide_ligand_efficiency_ln>  (1) 
-1.0356338290668479

>  <r_i_glide_ligand_efficiency_sa>  (1) 
-0.43005678393257757

>  <r_i_glide_lipo>  (1) 
-1.9155644888623489

>  <r_i_glide_metal>  (1) 
-0

>  <r_i_glide_rewards>  (1) 
-1.0420229973506185

>  <r_lp_Energy>  (1) 
76.82741

>  <s_epik_Chemistry_Notes>  (1) 
This compound has an ester and may undergo hydrolysis at high or low pH. This compound contains an acetal/aminal-like group ( X-CH(R)-Y where X, Y are N, S, or O) that may be acid/base labile, releasing an aldehyde.

>  <s_epik_cmdline>  (1) 
J2VwaWtfcHl0aG9uJywgJy1waHQnLCAnMS4wJywgJy1waCcsICc3LjQnLCAnLXRuJywgJzgnLCAnLW1hJywgJzUwMCcsICctaW1hZScsICc8aW5maWxlLm1hZT4nLCAnLW9tYWUnLCAnPG91dGZpbGUubWFlPic=

>  <s_epik_input>  (1) 
Tz1DKE8xKUMxKEYpW0NIMl1bQ0BASF0yW05IXVtDSDJdW0NIMl1OMltDQEBIXTNbQ0gyXVtDSDJdW0NASF0oW0NAQEhdKE80KVtDQEhdMzQpTjVbQ0gyXVtDSDJdW0NAQEhdKFtDQEhdNTYpTihbQ0gyXVtDSDJdNilbQ0BAXShbQ0gzXSkoW0NIMl1bQ0BASF03W09IXSlbQ0BAXTc4W0NASF0oTzgpW0NIMl1PW0NIM10=

>  <s_glide_docking_method>  (1) 
confgen

>  <s_i_glide_gridfile>  (1) 
gpcr_drd2_6luq_protein_autoprepared_prepared

>  <s_lp_Force_Field>  (1) 
S-OPLS

>  <s_lp_Variant>  (1) 
DiffSBDD_28-6

>  <s_m_source_file>  (1) 
generated_generic_title2_ligand_DiffSBDD_2026-06-23_prepared.sdf

>  <GenAI_Model>  (1) 
DiffSBDD

>  <Protein>  (1) 
generic_title2

$$$$
DiffSBDD_43
     RDKit          3D

  0  0  0  0  0  0  0  0  0  0999 V3000
M  V30 BEGIN CTAB
M  V30 COUNTS 78 82 0 0 1
M  V30 BEGIN ATOM
M  V30 1 N 9.205968 1.663965 -17.337628 0
M  V30 2 C 7.769986 2.036552 -17.345585 0 CFG=1
M  V30 3 C 15.150473 9.066282 -18.574636 0
M  V30 4 C 7.203285 3.676290 -14.891453 0 CFG=1
M  V30 5 C 14.243281 4.380433 -18.958239 0 CFG=2
M  V30 6 Cl 14.175405 6.687705 -16.713001 0
M  V30 7 C 6.135241 5.032022 -12.948559 0
M  V30 8 C 16.863217 7.136840 -18.377857 0
M  V30 9 N 7.421395 2.246415 -14.851143 0
M  V30 10 C 13.554091 3.451879 -17.924820 0
M  V30 11 C 7.358337 4.392062 -13.597698 0
M  V30 12 O 9.291520 0.221724 -17.185030 0
M  V30 13 C 14.046475 8.075383 -19.033862 0 CFG=1
M  V30 14 C 11.371607 4.349558 -17.245471 0
M  V30 15 C 8.277329 3.730833 -12.628834 0
M  V30 16 C 13.826410 8.127116 -20.557795 0
M  V30 17 C 15.763700 6.214326 -18.928479 0 CFG=1
M  V30 18 O 16.142029 4.449121 -17.303560 0
M  V30 19 C 16.752454 3.926842 -19.527943 0
M  V30 20 C 10.026512 1.960082 -18.519187 0
M  V30 21 C 15.758518 4.714986 -18.646132 0 CFG=1
M  V30 22 C 16.592170 8.577931 -18.868846 0
M  V30 23 C 7.022911 1.507640 -16.069021 0
M  V30 24 C 14.372249 6.664176 -18.494204 0 CFG=1
M  V30 25 C 8.038743 1.600967 -13.816026 0
M  V30 26 N 12.085522 3.410106 -18.142759 0 CFG=2 CHG=1
M  V30 27 O 13.557151 5.609270 -18.978953 0
M  V30 28 C 7.663620 3.588459 -17.370532 0
M  V30 29 C 7.208249 5.910878 -13.517422 0
M  V30 30 O 14.111909 3.777385 -20.227240 0
M  V30 31 N 8.483555 2.392599 -12.785029 0
M  V30 32 C 8.056752 4.246026 -16.030106 0
M  V30 33 O 8.801431 4.355915 -11.708433 0
M  V30 34 C 7.078500 1.453159 -18.602774 0
M  V30 35 C 11.529293 2.028930 -18.146100 0
M  V30 36 O 8.223477 0.390221 -13.817596 0
M  V30 37 H 14.988949 10.043568 -19.033064 0
M  V30 38 H 15.054388 9.235551 -17.502688 0
M  V30 39 H 6.175343 3.820285 -15.185026 0
M  V30 40 H 5.187682 4.983522 -13.481071 0
M  V30 41 H 6.045792 5.002554 -11.863217 0
M  V30 42 H 17.843745 6.803361 -18.718514 0
M  V30 43 H 16.890077 7.110954 -17.288426 0
M  V30 44 H 13.756927 3.790540 -16.908259 0
M  V30 45 H 14.004133 2.461495 -18.012234 0
M  V30 46 H 8.791972 -0.093369 -17.923611 0
M  V30 47 H 13.103266 8.390124 -18.585438 0
M  V30 48 H 11.361641 3.990234 -16.216972 0
M  V30 49 H 11.828861 5.336037 -17.239578 0
M  V30 50 H 10.353241 4.505176 -17.585893 0
M  V30 51 H 14.728299 7.891721 -21.121078 0
M  V30 52 H 13.047704 7.428766 -20.865231 0
M  V30 53 H 13.508372 9.123041 -20.867113 0
M  V30 54 H 15.813000 6.302268 -20.013706 0
M  V30 55 H 15.681889 5.051915 -16.733637 0
M  V30 56 H 16.643135 4.154631 -20.588580 0
M  V30 57 H 17.783616 4.164135 -19.262619 0
M  V30 58 H 16.620574 2.851274 -19.405413 0
M  V30 59 H 9.869859 1.186927 -19.273489 0
M  V30 60 H 9.731458 2.883833 -19.010606 0
M  V30 61 H 16.770011 8.626828 -19.943669 0
M  V30 62 H 17.310931 9.262611 -18.417161 0
M  V30 63 H 5.948983 1.609536 -16.204767 0
M  V30 64 H 7.140851 0.428466 -15.966800 0
M  V30 65 H 8.219493 4.037088 -18.189775 0
M  V30 66 H 6.629528 3.860633 -17.584664 0
M  V30 67 H 7.820028 6.465813 -12.807656 0
M  V30 68 H 6.961729 6.459568 -14.423542 0
M  V30 69 H 14.576171 4.312120 -20.854047 0
M  V30 70 H 9.025869 1.930444 -12.063752 0
M  V30 71 H 7.931187 5.324306 -16.119565 0
M  V30 72 H 9.103247 4.073574 -15.794492 0
M  V30 73 H 6.027508 1.743898 -18.633426 0
M  V30 74 H 7.526109 1.814301 -19.528701 0
M  V30 75 H 7.097561 0.363519 -18.621779 0
M  V30 76 H 11.724568 1.550958 -17.185015 0
M  V30 77 H 12.084766 1.450504 -18.885609 0
M  V30 78 H 11.969500 3.764292 -19.083275 0
M  V30 END ATOM
M  V30 BEGIN BOND
M  V30 1 1 2 1 CFG=1
M  V30 2 1 9 4
M  V30 3 1 10 5
M  V30 4 1 11 4
M  V30 5 1 11 7
M  V30 6 1 12 1
M  V30 7 1 13 3
M  V30 8 1 15 11
M  V30 9 1 16 13
M  V30 10 1 17 8
M  V30 11 1 20 1
M  V30 12 1 21 5
M  V30 13 1 21 17
M  V30 14 1 21 18 CFG=1
M  V30 15 1 21 19
M  V30 16 1 22 3
M  V30 17 1 22 8
M  V30 18 1 23 2
M  V30 19 1 23 9
M  V30 20 1 24 6 CFG=1
M  V30 21 1 24 13
M  V30 22 1 24 17
M  V30 23 1 25 9
M  V30 24 1 26 10
M  V30 25 1 26 14
M  V30 26 1 27 5
M  V30 27 1 27 24
M  V30 28 1 28 2
M  V30 29 1 29 7
M  V30 30 1 29 11
M  V30 31 1 5 30 CFG=3
M  V30 32 1 31 15
M  V30 33 1 31 25
M  V30 34 1 32 4
M  V30 35 1 32 28
M  V30 36 2 33 15
M  V30 37 1 34 2
M  V30 38 1 35 20
M  V30 39 1 35 26
M  V30 40 2 36 25
M  V30 41 1 37 3
M  V30 42 1 38 3
M  V30 43 1 4 39 CFG=3
M  V30 44 1 40 7
M  V30 45 1 41 7
M  V30 46 1 42 8
M  V30 47 1 43 8
M  V30 48 1 44 10
M  V30 49 1 45 10
M  V30 50 1 46 12
M  V30 51 1 13 47 CFG=1
M  V30 52 1 48 14
M  V30 53 1 49 14
M  V30 54 1 50 14
M  V30 55 1 51 16
M  V30 56 1 52 16
M  V30 57 1 53 16
M  V30 58 1 17 54 CFG=3
M  V30 59 1 55 18
M  V30 60 1 56 19
M  V30 61 1 57 19
M  V30 62 1 58 19
M  V30 63 1 59 20
M  V30 64 1 60 20
M  V30 65 1 61 22
M  V30 66 1 62 22
M  V30 67 1 63 23
M  V30 68 1 64 23
M  V30 69 1 65 28
M  V30 70 1 66 28
M  V30 71 1 67 29
M  V30 72 1 68 29
M  V30 73 1 69 30
M  V30 74 1 70 31
M  V30 75 1 71 32
M  V30 76 1 72 32
M  V30 77 1 73 34
M  V30 78 1 74 34
M  V30 79 1 75 34
M  V30 80 1 76 35
M  V30 81 1 77 35
M  V30 82 1 26 78 CFG=3
M  V30 END BOND
M  V30 END CTAB
M  END
>  <i_epik_Tot_Q>  (1) 
1

>  <i_epik_Tot_abs_Q>  (1) 
1

>  <i_i_glide_confnum>  (1) 
174

>  <i_i_glide_lignum>  (1) 
118

>  <i_i_glide_posenum>  (1) 
373

>  <i_i_glide_rotatable_bonds>  (1) 
9

>  <i_lp_mmshare_version>  (1) 
72125

>  <i_m_source_file_index>  (1) 
44

>  <i_f3d_flags>  (1) 
0

>  <num_sample>  (1) 
50

>  <b_lp_Chiralities_Consistent>  (1) 
1

>  <r_epik_Charging_Adjusted_Penalty>  (1) 
0.34224393187987273

>  <r_epik_Ionization_Penalty>  (1) 
0.17191807241559104

>  <r_epik_Ionization_Penalty_Charging>  (1) 
0.17112196593993639

>  <r_epik_Ionization_Penalty_Neutral>  (1) 
0.00079610647565464391

>  <r_epik_State_Penalty>  (1) 
0.17112196593993634

>  <r_glide_ring_energy>  (1) 
0

>  <r_i_docking_score>  (1) 
-4.7509377587942261

>  <r_i_glide_ecoul>  (1) 
-6.86684390155588

>  <r_i_glide_eff_state_penalty>  (1) 
0.17112196593993634

>  <r_i_glide_einternal>  (1) 
3.622611532456407

>  <r_i_glide_emodel>  (1) 
-40.178294035030959

>  <r_i_glide_emodel_strain>  (1) 
0.27304989283985037

>  <r_i_glide_energy>  (1) 
-34.523126584670401

>  <r_i_glide_erotb>  (1) 
0.44011442581216542

>  <r_i_glide_esite>  (1) 
-3.463580490303479e-05

>  <r_i_glide_evdw>  (1) 
-27.656282683114519

>  <r_i_glide_gscore>  (1) 
-4.9220597247341624

>  <r_i_glide_gscore_strain>  (1) 
0

>  <r_i_glide_hbond>  (1) 
-0.60799999999999998

>  <r_i_glide_ligand_efficiency>  (1) 
-0.13197049329983962

>  <r_i_glide_ligand_efficiency_ln>  (1) 
-1.036526263463964

>  <r_i_glide_ligand_efficiency_sa>  (1) 
-0.43575696787680629

>  <r_i_glide_lipo>  (1) 
-1.2428210553715584

>  <r_i_glide_metal>  (1) 
-0

>  <r_i_glide_rewards>  (1) 
-1.0984777399807584

>  <r_lp_Energy>  (1) 
41.055799999999998

>  <r_lp_tautomer_probability>  (1) 
0.99999999996150013

>  <s_epik_Chemistry_Notes>  (1) 
This compound has a N-S or N-O group and may undergo hydrolysis at high or low pH.

>  <s_epik_cmdline>  (1) 
J2VwaWtfcHl0aG9uJywgJy1waHQnLCAnMS4wJywgJy1waCcsICc3LjQnLCAnLXRuJywgJzgnLCAnLW1hJywgJzUwMCcsICctaW1hZScsICc8aW5maWxlLm1hZT4nLCAnLW9tYWUnLCAnPG91dGZpbGUubWFlPic=

>  <s_epik_input>  (1) 
W0NIMl0xW0NIMl1DMTJbQ0BASF0zTihDKD1PKVtOSF1DMj1PKVtDSDJdW0NAQF0oW0NIM10pKFtDSDJdW0NIMl0zKU4oW09IXSlbQ0gyXVtDSDJdTihbQ0gzXSlbQ0gyXVtDQF0oTzQpKFtPSF0pW0NAQF0oW09IXSkoW0NIM10pW0NAQEhdKFtDQF00NUNsKVtDSDJdW0NIMl1bQ0gyXVtDQEhdNVtDSDNd

>  <s_glide_docking_method>  (1) 
confgen

>  <s_i_glide_gridfile>  (1) 
gpcr_drd2_6luq_protein_autoprepared_prepared

>  <s_lp_Force_Field>  (1) 
S-OPLS

>  <s_lp_Variant>  (1) 
DiffSBDD_43-2

>  <s_m_source_file>  (1) 
generated_generic_title2_ligand_DiffSBDD_2026-06-23_prepared.sdf

>  <GenAI_Model>  (1) 
DiffSBDD

>  <Protein>  (1) 
generic_title2

$$$$
DiffSBDD_31
     RDKit          3D

  0  0  0  0  0  0  0  0  0  0999 V3000
M  V30 BEGIN CTAB
M  V30 COUNTS 59 61 0 0 1
M  V30 BEGIN ATOM
M  V30 1 C 5.225805 6.603092 -21.576562 0
M  V30 2 C 7.287576 5.590299 -16.050356 0
M  V30 3 C 8.610875 5.190230 -15.756397 0
M  V30 4 C 8.983554 5.336001 -11.065570 0
M  V30 5 C 4.374430 6.774052 -17.289732 0
M  V30 6 O 11.775365 7.507052 -7.484814 0
M  V30 7 C 6.800450 4.758509 -18.425902 0
M  V30 8 C 9.375405 6.093428 -8.777688 0
M  V30 9 C 10.796608 8.139423 -8.275190 0 CFG=2
M  V30 10 C 6.498504 5.015926 -19.929148 0
M  V30 11 C 5.816255 7.076133 -17.752706 0 CFG=1
M  V30 12 C 5.459689 6.172926 -20.112789 0 CFG=1
M  V30 13 C 10.164641 7.158209 -9.258254 0
M  V30 14 O 6.975405 3.616537 -17.995447 0
M  V30 15 F 11.375382 9.169386 -8.942741 0
M  V30 16 C 8.356582 4.332083 -12.024927 0
M  V30 17 C 6.915401 5.990355 -17.498130 0 CFG=1
M  V30 18 C 8.783551 5.191301 -9.677421 0
M  V30 19 C 7.846439 5.332989 -20.618449 0
M  V30 20 C 8.958543 4.794554 -14.449920 0
M  V30 21 C 5.789531 7.414207 -19.257467 0
M  V30 22 C 6.319668 5.601637 -15.016705 0
M  V30 23 C 10.362568 7.310608 -10.650195 0
M  V30 24 C 7.989265 4.797630 -13.427374 0
M  V30 25 C 9.775103 6.399447 -11.552294 0
M  V30 26 C 6.672522 5.207660 -13.711298 0
M  V30 27 C 5.935638 3.711985 -20.553237 0
M  V30 28 C 9.756395 8.730027 -7.308730 0
M  V30 29 H 6.117896 7.049280 -22.015395 0
M  V30 30 H 4.917371 5.773622 -22.210947 0
M  V30 31 H 4.432518 7.349643 -21.634345 0
M  V30 32 H 9.357044 5.177219 -16.537555 0
M  V30 33 H 4.190193 5.706573 -17.185018 0
M  V30 34 H 4.175084 7.263068 -16.339618 0
M  V30 35 H 3.624072 7.171729 -17.973931 0
M  V30 36 H 11.394952 6.717566 -7.131785 0
M  V30 37 H 9.216273 5.972986 -7.716933 0
M  V30 38 H 6.118547 7.980462 -17.219194 0
M  V30 39 H 4.498042 5.789083 -19.770631 0
M  V30 40 H 9.036747 3.482997 -12.107767 0
M  V30 41 H 7.452066 3.940000 -11.559032 0
M  V30 42 H 7.830675 6.455472 -17.860957 0
M  V30 43 H 8.174391 4.390235 -9.301837 0
M  V30 44 H 7.742670 5.380176 -21.702522 0
M  V30 45 H 8.270001 6.280967 -20.287134 0
M  V30 46 H 8.588939 4.560183 -20.411242 0
M  V30 47 H 9.968439 4.480992 -14.233860 0
M  V30 48 H 6.743276 7.827545 -19.585027 0
M  V30 49 H 5.059604 8.204626 -19.440777 0
M  V30 50 H 5.311449 5.896882 -15.218073 0
M  V30 51 H 10.965749 8.120778 -11.025013 0
M  V30 52 H 9.934366 6.516421 -12.612848 0
M  V30 53 H 5.927224 5.209117 -12.929311 0
M  V30 54 H 5.759414 3.809040 -21.623337 0
M  V30 55 H 6.625469 2.874753 -20.436984 0
M  V30 56 H 4.990828 3.420376 -20.092258 0
M  V30 57 H 9.315005 7.972792 -6.660500 0
M  V30 58 H 10.204601 9.482612 -6.660008 0
M  V30 59 H 8.936759 9.190195 -7.859452 0
M  V30 END ATOM
M  V30 BEGIN BOND
M  V30 1 1 3 2
M  V30 2 1 9 6
M  V30 3 1 10 7
M  V30 4 1 11 5
M  V30 5 1 12 1
M  V30 6 1 12 10
M  V30 7 1 13 8
M  V30 8 1 13 9
M  V30 9 2 14 7
M  V30 10 1 9 15 CFG=3
M  V30 11 1 16 4
M  V30 12 1 17 2
M  V30 13 1 17 7
M  V30 14 1 17 11
M  V30 15 1 18 4
M  V30 16 2 18 8
M  V30 17 1 19 10
M  V30 18 2 20 3
M  V30 19 1 21 11
M  V30 20 1 21 12
M  V30 21 2 22 2
M  V30 22 2 23 13
M  V30 23 1 24 16
M  V30 24 1 24 20
M  V30 25 2 25 4
M  V30 26 1 25 23
M  V30 27 1 26 22
M  V30 28 2 26 24
M  V30 29 1 27 10
M  V30 30 1 28 9
M  V30 31 1 29 1
M  V30 32 1 30 1
M  V30 33 1 31 1
M  V30 34 1 32 3
M  V30 35 1 33 5
M  V30 36 1 34 5
M  V30 37 1 35 5
M  V30 38 1 36 6
M  V30 39 1 37 8
M  V30 40 1 11 38 CFG=1
M  V30 41 1 12 39 CFG=1
M  V30 42 1 40 16
M  V30 43 1 41 16
M  V30 44 1 17 42 CFG=3
M  V30 45 1 43 18
M  V30 46 1 44 19
M  V30 47 1 45 19
M  V30 48 1 46 19
M  V30 49 1 47 20
M  V30 50 1 48 21
M  V30 51 1 49 21
M  V30 52 1 50 22
M  V30 53 1 51 23
M  V30 54 1 52 25
M  V30 55 1 53 26
M  V30 56 1 54 27
M  V30 57 1 55 27
M  V30 58 1 56 27
M  V30 59 1 57 28
M  V30 60 1 58 28
M  V30 61 1 59 28
M  V30 END BOND
M  V30 END CTAB
M  END
>  <i_epik_Tot_Q>  (1) 
0

>  <i_epik_Tot_abs_Q>  (1) 
0

>  <i_i_glide_confnum>  (1) 
47

>  <i_i_glide_lignum>  (1) 
93

>  <i_i_glide_posenum>  (1) 
388

>  <i_i_glide_rotatable_bonds>  (1) 
5

>  <i_lp_mmshare_version>  (1) 
72125

>  <i_m_source_file_index>  (1) 
32

>  <i_f3d_flags>  (1) 
0

>  <num_sample>  (1) 
50

>  <b_lp_Chiralities_Consistent>  (1) 
1

>  <r_epik_Charging_Adjusted_Penalty>  (1) 
0

>  <r_epik_Ionization_Penalty>  (1) 
1.3037473646551527e-05

>  <r_epik_Ionization_Penalty_Charging>  (1) 
0

>  <r_epik_Ionization_Penalty_Neutral>  (1) 
1.3037473646551527e-05

>  <r_epik_State_Penalty>  (1) 
-0

>  <r_glide_ring_energy>  (1) 
0

>  <r_i_docking_score>  (1) 
-4.7468822520447809

>  <r_i_glide_ecoul>  (1) 
-0.83396042882691535

>  <r_i_glide_eff_state_penalty>  (1) 
-0

>  <r_i_glide_einternal>  (1) 
8.7590243548268809

>  <r_i_glide_emodel>  (1) 
-31.955599158197359

>  <r_i_glide_emodel_strain>  (1) 
1.2784833116325771

>  <r_i_glide_energy>  (1) 
-32.946476937786002

>  <r_i_glide_erotb>  (1) 
0.5309461335497756

>  <r_i_glide_esite>  (1) 
0

>  <r_i_glide_evdw>  (1) 
-32.112516508959089

>  <r_i_glide_gscore>  (1) 
-4.7468822520447809

>  <r_i_glide_gscore_strain>  (1) 
0

>  <r_i_glide_hbond>  (1) 
0

>  <r_i_glide_ligand_efficiency>  (1) 
-0.16953150900159933

>  <r_i_glide_ligand_efficiency_ln>  (1) 
-1.0957197982910567

>  <r_i_glide_ligand_efficiency_sa>  (1) 
-0.51479751061969614

>  <r_i_glide_lipo>  (1) 
-1.9081120791914141

>  <r_i_glide_metal>  (1) 
-0

>  <r_i_glide_rewards>  (1) 
-1.6389964166311497

>  <r_lp_Energy>  (1) 
34.726877999999999

>  <r_lp_tautomer_probability>  (1) 
1

>  <s_epik_cmdline>  (1) 
J2VwaWtfcHl0aG9uJywgJy1waHQnLCAnMS4wJywgJy1waCcsICc3LjQnLCAnLXRuJywgJzgnLCAnLW1hJywgJzUwMCcsICctaW1hZScsICc8aW5maWxlLm1hZT4nLCAnLW9tYWUnLCAnPG91dGZpbGUubWFlPic=

>  <s_epik_input>  (1) 
W0NIM11bQ0BASF0xW0NIMl1bQ0BASF0oW0NIM10pW0NASF0oQyg9TylDMShbQ0gzXSlbQ0gzXSljMltjSF1bY0hdYyhbY0hdW2NIXTIpW0NIMl1jM1tjSF1bY0hdYyhbQ0BdKEYpKFtPSF0pW0NIM10pW2NIXVtjSF0z

>  <s_glide_docking_method>  (1) 
confgen

>  <s_i_glide_gridfile>  (1) 
gpcr_drd2_6luq_protein_autoprepared_prepared

>  <s_lp_Force_Field>  (1) 
S-OPLS

>  <s_lp_Variant>  (1) 
DiffSBDD_31-1

>  <s_m_source_file>  (1) 
generated_generic_title2_ligand_DiffSBDD_2026-06-23_prepared.sdf

>  <GenAI_Model>  (1) 
DiffSBDD

>  <Protein>  (1) 
generic_title2

$$$$
DiffSBDD_24
     RDKit          3D

  0  0  0  0  0  0  0  0  0  0999 V3000
M  V30 BEGIN CTAB
M  V30 COUNTS 79 83 0 0 1
M  V30 BEGIN ATOM
M  V30 1 C 7.435663 1.305756 -13.052667 0 CFG=2
M  V30 2 C 8.251406 5.275762 -19.296556 0
M  V30 3 C 6.036192 1.878194 -13.279020 0
M  V30 4 C 9.648081 7.590230 -11.386943 0
M  V30 5 C 8.490586 -1.089032 -17.401035 0
M  V30 6 C 9.225013 5.652645 -9.386949 0
M  V30 7 C 10.092106 6.752337 -9.142676 0
M  V30 8 O 8.135225 5.131238 -13.574728 0
M  V30 9 C 6.999349 5.549078 -15.681793 0
M  V30 10 C 5.929237 7.190188 -14.099428 0
M  V30 11 C 12.513211 8.354146 -9.972157 0
M  V30 12 C 7.036521 5.580328 -17.090957 0
M  V30 13 C 7.297464 4.278955 -19.981927 0
M  V30 14 N 6.938996 1.936662 -19.378286 0
M  V30 15 O 10.729152 6.907070 -7.929741 0
M  V30 16 O 8.329687 2.376052 -12.813562 0
M  V30 17 C 7.949413 0.414120 -14.190364 0
M  V30 18 C 8.150129 5.156422 -14.952858 0
M  V30 19 C 8.575278 5.533040 -10.632143 0
M  V30 20 C 5.729105 5.941590 -14.957586 0
M  V30 21 O 6.874826 0.430211 -16.418632 0
M  V30 22 C 9.354509 4.821491 -17.052502 0
M  V30 23 C 8.781222 6.507194 -11.629547 0
M  V30 24 C 10.783480 5.811366 -7.051486 0
M  V30 25 C 7.261955 0.516991 -19.227252 0 CFG=1
M  V30 26 C 9.322292 4.790248 -15.643990 0
M  V30 27 O 8.926036 2.547882 -20.283695 0
M  V30 28 C 7.794706 2.837215 -19.894686 0
M  V30 29 C 4.975194 0.793641 -13.549321 0
M  V30 30 C 8.050512 6.414961 -12.953343 0 CFG=2
M  V30 31 O 11.155119 8.756020 -9.929439 0
M  V30 32 O 7.501273 -0.102235 -20.476659 0
M  V30 33 C 8.424544 0.211429 -18.287243 0 CFG=1
M  V30 34 O 9.775363 -1.609772 -17.185028 0
M  V30 35 O 7.439451 -2.010785 -17.585037 0
M  V30 36 C 8.212333 5.220561 -17.776855 0
M  V30 37 C 6.598668 6.861311 -12.770221 0
M  V30 38 C 7.838823 1.017696 -15.576792 0 CFG=2
M  V30 39 C 10.305300 7.708142 -10.151422 0
M  V30 40 C 8.258550 0.238915 -16.807360 0 CFG=2
M  V30 41 H 7.419901 0.697698 -12.147997 0
M  V30 42 H 7.982990 6.288855 -19.596615 0
M  V30 43 H 9.274005 5.129281 -19.648115 0
M  V30 44 H 5.775412 2.457597 -12.394370 0
M  V30 45 H 6.061601 2.594285 -14.098590 0
M  V30 46 H 9.803474 8.337140 -12.150476 0
M  V30 47 H 9.051486 4.910955 -8.623128 0
M  V30 48 H 4.975413 7.645668 -13.869962 0
M  V30 49 H 6.487827 7.947257 -14.652484 0
M  V30 50 H 13.156402 9.190221 -9.746460 0
M  V30 51 H 12.775153 7.990227 -10.965039 0
M  V30 52 H 12.746048 7.588151 -9.236350 0
M  V30 53 H 6.162563 5.885605 -17.646718 0
M  V30 54 H 7.232713 4.524462 -21.042600 0
M  V30 55 H 6.285182 4.370312 -19.585192 0
M  V30 56 H 6.026530 2.243542 -19.077341 0
M  V30 57 H 8.174681 3.077295 -13.431383 0
M  V30 58 H 8.975433 0.137329 -13.984973 0
M  V30 59 H 7.395439 -0.524391 -14.188281 0
M  V30 60 H 7.907631 4.703562 -10.815588 0
M  V30 61 H 4.951248 6.135496 -15.695860 0
M  V30 62 H 5.377022 5.102379 -14.356132 0
M  V30 63 H 10.258291 4.545180 -17.576460 0
M  V30 64 H 11.461062 6.029311 -6.226341 0
M  V30 65 H 11.166245 4.943222 -7.585027 0
M  V30 66 H 9.799685 5.592195 -6.635563 0
M  V30 67 H 6.357414 0.052718 -18.832791 0
M  V30 68 H 10.200095 4.491531 -15.092617 0
M  V30 69 H 3.973774 1.221483 -13.585094 0
M  V30 70 H 4.977195 0.030812 -12.770084 0
M  V30 71 H 5.138927 0.287228 -14.499077 0
M  V30 72 H 8.538946 7.148833 -13.585019 0
M  V30 73 H 7.297935 -1.021692 -20.390027 0
M  V30 74 H 9.384666 0.568116 -18.656021 0
M  V30 75 H 9.739858 -2.211521 -16.453525 0
M  V30 76 H 7.222555 -2.370860 -16.731345 0
M  V30 77 H 6.578698 7.762158 -12.155087 0
M  V30 78 H 6.031642 6.110919 -12.217610 0
M  V30 79 H 7.932651 2.098604 -15.649107 0
M  V30 END ATOM
M  V30 BEGIN BOND
M  V30 1 1 3 1
M  V30 2 1 7 6
M  V30 3 1 12 9
M  V30 4 1 13 2
M  V30 5 1 15 7
M  V30 6 1 16 1
M  V30 7 1 17 1
M  V30 8 1 18 8
M  V30 9 2 18 9
M  V30 10 2 19 6
M  V30 11 1 20 9
M  V30 12 1 20 10
M  V30 13 2 23 4
M  V30 14 1 23 19
M  V30 15 1 24 15
M  V30 16 1 25 14
M  V30 17 1 26 18
M  V30 18 2 26 22
M  V30 19 1 28 13
M  V30 20 1 28 14
M  V30 21 2 28 27
M  V30 22 1 29 3
M  V30 23 1 30 8
M  V30 24 1 30 23
M  V30 25 1 31 11
M  V30 26 1 32 25
M  V30 27 1 33 5
M  V30 28 1 33 25
M  V30 29 1 34 5
M  V30 30 1 35 5
M  V30 31 1 36 2
M  V30 32 2 36 12
M  V30 33 1 36 22
M  V30 34 1 37 10
M  V30 35 1 37 30
M  V30 36 1 38 17
M  V30 37 1 38 21
M  V30 38 1 39 4
M  V30 39 2 39 7
M  V30 40 1 39 31
M  V30 41 1 40 5
M  V30 42 1 40 21 CFG=3
M  V30 43 1 40 33
M  V30 44 1 40 38
M  V30 45 1 1 41 CFG=1
M  V30 46 1 42 2
M  V30 47 1 43 2
M  V30 48 1 44 3
M  V30 49 1 45 3
M  V30 50 1 46 4
M  V30 51 1 47 6
M  V30 52 1 48 10
M  V30 53 1 49 10
M  V30 54 1 50 11
M  V30 55 1 51 11
M  V30 56 1 52 11
M  V30 57 1 53 12
M  V30 58 1 54 13
M  V30 59 1 55 13
M  V30 60 1 56 14
M  V30 61 1 57 16
M  V30 62 1 58 17
M  V30 63 1 59 17
M  V30 64 1 60 19
M  V30 65 1 61 20
M  V30 66 1 62 20
M  V30 67 1 63 22
M  V30 68 1 64 24
M  V30 69 1 65 24
M  V30 70 1 66 24
M  V30 71 1 25 67 CFG=1
M  V30 72 1 68 26
M  V30 73 1 69 29
M  V30 74 1 70 29
M  V30 75 1 71 29
M  V30 76 1 30 72 CFG=3
M  V30 77 1 73 32
M  V30 78 1 33 74 CFG=1
M  V30 79 1 75 34
M  V30 80 1 76 35
M  V30 81 1 77 37
M  V30 82 1 78 37
M  V30 83 1 38 79 CFG=1
M  V30 END BOND
M  V30 END CTAB
M  END
>  <i_epik_Tot_Q>  (1) 
0

>  <i_epik_Tot_abs_Q>  (1) 
0

>  <i_i_glide_confnum>  (1) 
64

>  <i_i_glide_lignum>  (1) 
71

>  <i_i_glide_posenum>  (1) 
65

>  <i_i_glide_rotatable_bonds>  (1) 
16

>  <i_lp_mmshare_version>  (1) 
72125

>  <i_m_source_file_index>  (1) 
25

>  <i_f3d_flags>  (1) 
0

>  <num_sample>  (1) 
50

>  <b_lp_Chiralities_Consistent>  (1) 
1

>  <r_epik_Charging_Adjusted_Penalty>  (1) 
0

>  <r_epik_Ionization_Penalty>  (1) 
7.7966095074424399e-05

>  <r_epik_Ionization_Penalty_Charging>  (1) 
0

>  <r_epik_Ionization_Penalty_Neutral>  (1) 
7.7966095074424399e-05

>  <r_epik_State_Penalty>  (1) 
-0

>  <r_glide_ring_energy>  (1) 
0

>  <r_i_docking_score>  (1) 
-4.7401411191720726

>  <r_i_glide_ecoul>  (1) 
-3.9922658833962186

>  <r_i_glide_eff_state_penalty>  (1) 
-0

>  <r_i_glide_einternal>  (1) 
18.737447439008079

>  <r_i_glide_emodel>  (1) 
-44.243799411644936

>  <r_i_glide_emodel_strain>  (1) 
0.69454354631685078

>  <r_i_glide_energy>  (1) 
-42.495498710170878

>  <r_i_glide_erotb>  (1) 
0.5242298981819471

>  <r_i_glide_esite>  (1) 
-0.006702015243714392

>  <r_i_glide_evdw>  (1) 
-38.503232826774656

>  <r_i_glide_gscore>  (1) 
-4.7401411191720726

>  <r_i_glide_gscore_strain>  (1) 
0

>  <r_i_glide_hbond>  (1) 
-0.48121371630668214

>  <r_i_glide_ligand_efficiency>  (1) 
-0.11850352797930182

>  <r_i_glide_ligand_efficiency_ln>  (1) 
-1.010932604593441

>  <r_i_glide_ligand_efficiency_sa>  (1) 
-0.40527636488187019

>  <r_i_glide_lipo>  (1) 
-1.8440088222317288

>  <r_i_glide_metal>  (1) 
-0

>  <r_i_glide_rewards>  (1) 
-0.40844493972372964

>  <r_lp_Energy>  (1) 
27.684539999999998

>  <r_lp_tautomer_probability>  (1) 
1

>  <s_epik_Chemistry_Notes>  (1) 
This compound contains an acetal/aminal-like group ( X-CH(R)-Y where X, Y are N, S, or O) that may be acid/base labile, releasing an aldehyde.

>  <s_epik_cmdline>  (1) 
J2VwaWtfcHl0aG9uJywgJy1waHQnLCAnMS4wJywgJy1waCcsICc3LjQnLCAnLXRuJywgJzgnLCAnLW1hJywgJzUwMCcsICctaW1hZScsICc8aW5maWxlLm1hZT4nLCAnLW9tYWUnLCAnPG91dGZpbGUubWFlPic=

>  <s_epik_input>  (1) 
W0NIM11bQ0gyXVtDQEhdKFtPSF0pW0NIMl1bQ0BASF0xT1tDQF0xMkMoW09IXSkoW09IXSlbQ0BIXTJbQ0BIXShbT0hdKVtOSF1DKD1PKVtDSDJdW0NIMl1jKFtjSF0zKVtjSF1bY0hdYyhjMzQpT1tDQEBIXShbQ0gyXVtDSDJdW0NIMl00KWMoW2NIXWM1T1tDSDNdKVtjSF1bY0hdYzVPW0NIM10=

>  <s_glide_docking_method>  (1) 
confgen

>  <s_i_glide_gridfile>  (1) 
gpcr_drd2_6luq_protein_autoprepared_prepared

>  <s_lp_Force_Field>  (1) 
S-OPLS

>  <s_lp_Variant>  (1) 
DiffSBDD_24-1

>  <s_m_source_file>  (1) 
generated_generic_title2_ligand_DiffSBDD_2026-06-23_prepared.sdf

>  <GenAI_Model>  (1) 
DiffSBDD

>  <Protein>  (1) 
generic_title2

$$$$
DiffSBDD_0
     RDKit          3D

  0  0  0  0  0  0  0  0  0  0999 V3000
M  V30 BEGIN CTAB
M  V30 COUNTS 70 74 0 0 1
M  V30 BEGIN ATOM
M  V30 1 C 11.675304 6.868693 -6.433892 0
M  V30 2 N 7.956038 3.876121 -13.342014 0
M  V30 3 C 7.372827 5.402524 -17.226989 0 CFG=1
M  V30 4 C 9.237949 4.287528 -11.292570 0
M  V30 5 F 11.424652 9.309560 -9.195711 0
M  V30 6 C 7.245126 5.158202 -13.372599 0
M  V30 7 C 10.253712 6.318388 -6.497283 0
M  V30 8 C 8.761430 5.849560 -9.595662 0
M  V30 9 C 9.651718 8.016293 -8.320458 0 CFG=1
M  V30 10 C 9.845366 4.868140 -18.026569 0
M  V30 11 C 7.621486 2.963693 -14.435696 0 CFG=1
M  V30 12 C 6.276890 0.275968 -13.612218 0
M  V30 13 C 8.390101 5.094996 -18.323374 0 CFG=1
M  V30 14 O 8.554304 5.415019 -10.934218 0
M  V30 15 C 11.028497 8.672506 -8.096406 0 CFG=1
M  V30 16 C 7.305707 4.093032 -17.955948 0 CFG=1
M  V30 17 N 7.774090 5.085844 -15.829984 0 CFG=2 CHG=1
M  V30 18 C 9.596393 7.146512 -9.618383 0
M  V30 19 C 7.682368 0.823218 -13.347383 0
M  V30 20 C 8.093689 3.633117 -15.739957 0 CFG=2
M  V30 21 O 5.844023 -0.409764 -12.460035 0
M  V30 22 C 9.227273 7.331290 -7.003400 0
M  V30 23 N 10.530067 5.590264 -17.094363 0
M  V30 24 C 6.804009 5.552245 -14.803330 0
M  V30 25 N 10.545862 3.933803 -18.670850 0
M  V30 26 O 11.843221 4.060503 -18.143881 0
M  V30 27 C 11.730846 5.058122 -17.248054 0
M  V30 28 O 8.175380 1.681891 -14.373351 0
M  V30 29 N 12.909138 5.397168 -16.609583 0
M  V30 30 C 8.952806 3.580941 -12.402695 0
M  V30 31 C 12.078121 7.636558 -7.706275 0
M  V30 32 C 13.195119 6.405271 -15.606017 0
M  V30 33 C 7.525285 2.956719 -16.992330 0
M  V30 34 H 11.761112 7.526473 -5.568770 0
M  V30 35 H 12.339441 6.016940 -6.271738 0
M  V30 36 H 6.608095 6.163529 -17.372078 0
M  V30 37 H 10.014876 4.029114 -10.593389 0
M  V30 38 H 6.403864 5.152645 -12.678861 0
M  V30 39 H 7.925088 5.945634 -13.050363 0
M  V30 40 H 9.958123 5.990267 -5.501389 0
M  V30 41 H 10.254320 5.443234 -7.140387 0
M  V30 42 H 7.777494 5.990225 -9.155384 0
M  V30 43 H 9.233624 5.088574 -8.977241 0
M  V30 44 H 8.946929 8.831386 -8.475915 0
M  V30 45 H 6.536743 2.869312 -14.437740 0
M  V30 46 H 6.285939 -0.402935 -14.465805 0
M  V30 47 H 5.554527 1.062217 -13.823862 0
M  V30 48 H 8.280544 5.628614 -19.265523 0
M  V30 49 H 10.975363 9.417288 -7.301415 0
M  V30 50 H 6.520820 3.945855 -18.695953 0
M  V30 51 H 10.591863 6.884842 -9.967595 0
M  V30 52 H 9.199262 7.783678 -10.409480 0
M  V30 53 H 7.693066 1.323411 -12.385013 0
M  V30 54 H 8.380407 -0.009423 -13.260521 0
M  V30 55 H 9.178700 3.590210 -15.768068 0
M  V30 56 H 5.375384 -1.188837 -12.768494 0
M  V30 57 H 9.086489 8.099169 -6.241680 0
M  V30 58 H 8.263281 6.835468 -7.092595 0
M  V30 59 H 5.831141 5.107183 -15.019623 0
M  V30 60 H 6.671619 6.633030 -14.871121 0
M  V30 61 H 13.711688 4.851669 -16.886093 0
M  V30 62 H 9.510915 2.687786 -12.639646 0
M  V30 63 H 13.048607 8.116042 -7.585030 0
M  V30 64 H 12.175407 6.959254 -8.543277 0
M  V30 65 H 14.169596 6.225763 -15.152200 0
M  V30 66 H 13.200750 7.397474 -16.058665 0
M  V30 67 H 12.440227 6.390351 -14.818947 0
M  V30 68 H 6.575427 2.462000 -16.792738 0
M  V30 69 H 8.207824 2.214948 -17.408335 0
M  V30 70 H 8.641751 5.573819 -15.643831 0
M  V30 END ATOM
M  V30 BEGIN BOND
M  V30 1 1 6 2
M  V30 2 1 7 1
M  V30 3 1 11 2
M  V30 4 1 13 3
M  V30 5 1 13 10
M  V30 6 1 14 4
M  V30 7 1 14 8
M  V30 8 1 15 5
M  V30 9 1 15 9
M  V30 10 1 16 3
M  V30 11 1 16 13
M  V30 12 1 17 3
M  V30 13 1 18 8
M  V30 14 1 18 9
M  V30 15 1 19 12
M  V30 16 1 20 11
M  V30 17 1 20 17
M  V30 18 1 21 12
M  V30 19 1 22 7
M  V30 20 1 22 9
M  V30 21 1 23 10
M  V30 22 1 24 6
M  V30 23 1 24 17
M  V30 24 2 25 10
M  V30 25 1 26 25
M  V30 26 2 27 23
M  V30 27 1 27 26
M  V30 28 1 28 11
M  V30 29 1 28 19
M  V30 30 1 29 27
M  V30 31 1 30 2
M  V30 32 2 30 4
M  V30 33 1 31 1
M  V30 34 1 31 15
M  V30 35 1 32 29
M  V30 36 1 33 16
M  V30 37 1 33 20
M  V30 38 1 34 1
M  V30 39 1 35 1
M  V30 40 1 3 36 CFG=1
M  V30 41 1 37 4
M  V30 42 1 38 6
M  V30 43 1 39 6
M  V30 44 1 40 7
M  V30 45 1 41 7
M  V30 46 1 42 8
M  V30 47 1 43 8
M  V30 48 1 9 44 CFG=3
M  V30 49 1 11 45 CFG=3
M  V30 50 1 46 12
M  V30 51 1 47 12
M  V30 52 1 13 48 CFG=3
M  V30 53 1 15 49 CFG=1
M  V30 54 1 16 50 CFG=3
M  V30 55 1 51 18
M  V30 56 1 52 18
M  V30 57 1 53 19
M  V30 58 1 54 19
M  V30 59 1 20 55 CFG=3
M  V30 60 1 56 21
M  V30 61 1 57 22
M  V30 62 1 58 22
M  V30 63 1 59 24
M  V30 64 1 60 24
M  V30 65 1 61 29
M  V30 66 1 62 30
M  V30 67 1 63 31
M  V30 68 1 64 31
M  V30 69 1 65 32
M  V30 70 1 66 32
M  V30 71 1 67 32
M  V30 72 1 68 33
M  V30 73 1 69 33
M  V30 74 1 17 70 CFG=1
M  V30 END BOND
M  V30 END CTAB
M  END
>  <i_epik_Tot_Q>  (1) 
1

>  <i_epik_Tot_abs_Q>  (1) 
1

>  <i_i_glide_confnum>  (1) 
677

>  <i_i_glide_lignum>  (1) 
15

>  <i_i_glide_posenum>  (1) 
351

>  <i_i_glide_rotatable_bonds>  (1) 
11

>  <i_lp_mmshare_version>  (1) 
72125

>  <i_m_source_file_index>  (1) 
1

>  <i_f3d_flags>  (1) 
0

>  <num_sample>  (1) 
50

>  <b_lp_Chiralities_Consistent>  (1) 
1

>  <r_epik_Charging_Adjusted_Penalty>  (1) 
0.41344222577729461

>  <r_epik_Ionization_Penalty>  (1) 
0.0027644559619576371

>  <r_epik_Ionization_Penalty_Charging>  (1) 
0.0027623868246906495

>  <r_epik_Ionization_Penalty_Neutral>  (1) 
2.0691372669875143e-06

>  <r_epik_State_Penalty>  (1) 
0.41067983895260396

>  <r_glide_ring_energy>  (1) 
1.678368750750399

>  <r_i_docking_score>  (1) 
-4.7354468089054418

>  <r_i_glide_ecoul>  (1) 
-4.409989759697833

>  <r_i_glide_eff_state_penalty>  (1) 
0.41067983895260396

>  <r_i_glide_einternal>  (1) 
10.260843831843374

>  <r_i_glide_emodel>  (1) 
-33.679857623374964

>  <r_i_glide_emodel_strain>  (1) 
4.4407436735900347

>  <r_i_glide_energy>  (1) 
-33.529520794421593

>  <r_i_glide_erotb>  (1) 
0.74142510397790429

>  <r_i_glide_esite>  (1) 
0

>  <r_i_glide_evdw>  (1) 
-29.11953103472376

>  <r_i_glide_gscore>  (1) 
-5.1461266478580461

>  <r_i_glide_gscore_strain>  (1) 
0.11018591839750869

>  <r_i_glide_hbond>  (1) 
-0.16

>  <r_i_glide_ligand_efficiency>  (1) 
-0.14349838814864976

>  <r_i_glide_ligand_efficiency_ln>  (1) 
-1.0531388514692133

>  <r_i_glide_ligand_efficiency_sa>  (1) 
-0.46027600628586035

>  <r_i_glide_lipo>  (1) 
-2.4039951847350705

>  <r_i_glide_metal>  (1) 
-0

>  <r_i_glide_rewards>  (1) 
-1.316267469807525

>  <r_lp_Energy>  (1) 
42.741957999999997

>  <r_lp_tautomer_probability>  (1) 
0.5

>  <s_epik_Chemistry_Notes>  (1) 
This compound has an imine and may undergo hydrolysis. This compound contains an acetal/aminal-like group ( X-CH(R)-Y where X, Y are N, S, or O) that may be acid/base labile, releasing an aldehyde.

>  <s_epik_cmdline>  (1) 
J2VwaWtfcHl0aG9uJywgJy1waHQnLCAnMS4wJywgJy1waCcsICc3LjQnLCAnLXRuJywgJzgnLCAnLW1hJywgJzUwMCcsICctaW1hZScsICc8aW5maWxlLm1hZT4nLCAnLW9tYWUnLCAnPG91dGZpbGUubWFlPic=

>  <s_epik_input>  (1) 
W0NIMl0xW0NIMl1bQ0gyXVtDSDJdW0NASF0oRilbQ0BIXTFbQ0gyXVtDSDJdTy9bQ0hdPVtDSF1cTihbQ0BIXTJPW0NIMl1bQ0gyXVtPSF0pW0NIMl1bQ0gyXU4zW0NAQEhdMltDSDJdW0NAQEhdKFtDQEBIXTM0KVtDQEBIXTRjNW5jKG9uNSlbTkhdW0NIM10=

>  <s_glide_docking_method>  (1) 
confgen

>  <s_i_glide_gridfile>  (1) 
gpcr_drd2_6luq_protein_autoprepared_prepared

>  <s_lp_Force_Field>  (1) 
S-OPLS

>  <s_lp_Variant>  (1) 
DiffSBDD_0-15

>  <s_m_source_file>  (1) 
generated_generic_title2_ligand_DiffSBDD_2026-06-23_prepared.sdf

>  <GenAI_Model>  (1) 
DiffSBDD

>  <Protein>  (1) 
generic_title2

$$$$
DiffSBDD_39
     RDKit          3D

  0  0  0  0  0  0  0  0  0  0999 V3000
M  V30 BEGIN CTAB
M  V30 COUNTS 68 71 0 0 1
M  V30 BEGIN ATOM
M  V30 1 C 7.742049 6.103481 -14.989539 0
M  V30 2 F 14.333760 3.437428 -17.089852 0
M  V30 3 F 12.265120 2.891605 -17.413018 0
M  V30 4 C 11.713164 8.843604 -9.731643 0
M  V30 5 C 7.575596 6.566109 -12.495479 0
M  V30 6 C 6.791862 4.737285 -11.002148 0 CFG=1
M  V30 7 O 12.963452 8.761865 -9.069652 0
M  V30 8 C 11.637540 5.912870 -17.791888 0 CFG=2
M  V30 9 C 7.594155 3.245451 -14.553446 0
M  V30 10 C 8.953849 5.999500 -10.397296 0 CFG=2
M  V30 11 O 13.085667 6.841014 -19.520442 0
M  V30 12 C 7.617407 3.852517 -15.974937 0
M  V30 13 N 8.266421 5.189836 -16.037560 0 CFG=2 CHG=1
M  V30 14 C 13.372697 4.004888 -19.161263 0
M  V30 15 C 7.960543 5.538677 -13.583202 0 CFG=1
M  V30 16 C 9.751323 5.174720 -16.155306 0
M  V30 17 O 12.249817 4.662235 -19.758111 0
M  V30 18 C 7.202093 3.697632 -12.068682 0
M  V30 19 N 7.614983 5.990186 -11.114083 0 CFG=1 CHG=1
M  V30 20 C 10.913632 7.542591 -9.554945 0 CFG=1
M  V30 21 C 10.481867 7.308346 -8.104798 0
M  V30 22 C 10.211245 5.326862 -17.618184 0
M  V30 23 C 7.124509 4.254476 -13.492726 0 CFG=2
M  V30 24 C 12.004214 5.960573 -19.293177 0 CFG=1
M  V30 25 C 12.724190 5.152330 -17.034561 0
M  V30 26 C 9.965945 5.880072 -7.956540 0
M  V30 27 C 13.184038 3.830298 -17.641771 0
M  V30 28 O 13.205503 5.589847 -15.989904 0
M  V30 29 C 8.795649 5.564607 -8.901058 0
M  V30 30 O 5.560910 5.106867 -11.254661 0 CHG=-1
M  V30 31 C 9.683341 7.388761 -10.488767 0
M  V30 32 H 6.675911 6.255748 -15.166239 0
M  V30 33 H 8.175404 7.089081 -15.058210 0
M  V30 34 H 11.157257 9.713099 -9.387062 0
M  V30 35 H 11.944675 8.977274 -10.782704 0
M  V30 36 H 6.559843 6.916371 -12.685986 0
M  V30 37 H 8.176400 7.467374 -12.587351 0
M  V30 38 H 6.971581 4.247462 -10.052723 0
M  V30 39 H 13.516043 9.485262 -9.357751 0
M  V30 40 H 11.644414 6.935520 -17.418643 0
M  V30 41 H 6.942420 2.370568 -14.543848 0
M  V30 42 H 8.575383 2.879254 -14.278565 0
M  V30 43 H 9.594946 5.264003 -10.884488 0
M  V30 44 H 12.768723 7.730539 -19.454248 0
M  V30 45 H 6.588267 3.994018 -16.298816 0
M  V30 46 H 8.075612 3.165766 -16.687595 0
M  V30 47 H 14.289533 4.556454 -19.376263 0
M  V30 48 H 13.492981 3.029900 -19.633274 0
M  V30 49 H 9.015237 5.294973 -13.443878 0
M  V30 50 H 10.181092 5.990222 -15.584578 0
M  V30 51 H 10.175225 4.280935 -15.706966 0
M  V30 52 H 6.565998 2.815345 -11.985198 0
M  V30 53 H 8.223466 3.364200 -11.879434 0
M  V30 54 H 11.635219 6.790213 -9.830859 0
M  V30 55 H 11.320263 7.457139 -7.423163 0
M  V30 56 H 9.709560 8.022447 -7.814277 0
M  V30 57 H 10.122505 4.367721 -18.130902 0
M  V30 58 H 9.523020 5.999124 -18.131741 0
M  V30 59 H 6.079871 4.491264 -13.705462 0
M  V30 60 H 11.171584 6.349377 -19.880951 0
M  V30 61 H 10.782290 5.184188 -8.134823 0
M  V30 62 H 9.652828 5.715476 -6.925487 0
M  V30 63 H 8.665585 4.485870 -8.837257 0
M  V30 64 H 7.886566 5.990203 -8.480130 0
M  V30 65 H 8.975375 8.188740 -10.267863 0
M  V30 66 H 10.028052 7.556012 -11.509167 0
M  V30 67 H 7.953627 5.593226 -16.909198 0
M  V30 68 H 7.085629 6.656075 -10.544014 0
M  V30 END ATOM
M  V30 BEGIN BOND
M  V30 1 1 7 4
M  V30 2 1 12 9
M  V30 3 1 13 1
M  V30 4 1 13 12
M  V30 5 1 15 1
M  V30 6 1 15 5
M  V30 7 1 16 13
M  V30 8 1 17 14
M  V30 9 1 18 6
M  V30 10 1 19 5
M  V30 11 1 19 6
M  V30 12 1 19 10
M  V30 13 1 20 4
M  V30 14 1 21 20
M  V30 15 1 22 8
M  V30 16 1 22 16
M  V30 17 1 23 9
M  V30 18 1 23 15
M  V30 19 1 23 18
M  V30 20 1 24 8
M  V30 21 1 24 11
M  V30 22 1 24 17
M  V30 23 1 25 8
M  V30 24 1 26 21
M  V30 25 1 27 2
M  V30 26 1 27 3
M  V30 27 1 27 14
M  V30 28 1 27 25
M  V30 29 2 28 25
M  V30 30 1 29 10
M  V30 31 1 29 26
M  V30 32 1 30 6
M  V30 33 1 31 10
M  V30 34 1 31 20
M  V30 35 1 32 1
M  V30 36 1 33 1
M  V30 37 1 34 4
M  V30 38 1 35 4
M  V30 39 1 36 5
M  V30 40 1 37 5
M  V30 41 1 6 38 CFG=1
M  V30 42 1 39 7
M  V30 43 1 8 40 CFG=1
M  V30 44 1 41 9
M  V30 45 1 42 9
M  V30 46 1 10 43 CFG=3
M  V30 47 1 44 11
M  V30 48 1 45 12
M  V30 49 1 46 12
M  V30 50 1 47 14
M  V30 51 1 48 14
M  V30 52 1 15 49 CFG=3
M  V30 53 1 50 16
M  V30 54 1 51 16
M  V30 55 1 52 18
M  V30 56 1 53 18
M  V30 57 1 20 54 CFG=3
M  V30 58 1 55 21
M  V30 59 1 56 21
M  V30 60 1 57 22
M  V30 61 1 58 22
M  V30 62 1 23 59 CFG=3
M  V30 63 1 24 60 CFG=3
M  V30 64 1 61 26
M  V30 65 1 62 26
M  V30 66 1 63 29
M  V30 67 1 64 29
M  V30 68 1 65 31
M  V30 69 1 66 31
M  V30 70 1 13 67 CFG=3
M  V30 71 1 19 68 CFG=1
M  V30 END BOND
M  V30 END CTAB
M  END
>  <i_epik_Tot_Q>  (1) 
1

>  <i_epik_Tot_abs_Q>  (1) 
3

>  <i_i_glide_confnum>  (1) 
43

>  <i_i_glide_lignum>  (1) 
106

>  <i_i_glide_posenum>  (1) 
226

>  <i_i_glide_rotatable_bonds>  (1) 
7

>  <i_lp_mmshare_version>  (1) 
72125

>  <i_m_source_file_index>  (1) 
40

>  <i_f3d_flags>  (1) 
0

>  <num_sample>  (1) 
50

>  <b_lp_Chiralities_Consistent>  (1) 
1

>  <r_epik_Charging_Adjusted_Penalty>  (1) 
0.43569023002306473

>  <r_epik_Ionization_Penalty>  (1) 
0.17475065349743213

>  <r_epik_Ionization_Penalty_Charging>  (1) 
0.17468327186895813

>  <r_epik_Ionization_Penalty_Neutral>  (1) 
6.7381628474014066e-05

>  <r_epik_State_Penalty>  (1) 
0.26100695815410663

>  <r_glide_ring_energy>  (1) 
1.2534239858202354

>  <r_i_docking_score>  (1) 
-4.7327078754123955

>  <r_i_glide_ecoul>  (1) 
-9.4944646941955835

>  <r_i_glide_eff_state_penalty>  (1) 
0.26100695815410663

>  <r_i_glide_einternal>  (1) 
7.1610138242670605

>  <r_i_glide_emodel>  (1) 
-33.245248486725124

>  <r_i_glide_emodel_strain>  (1) 
2.4466241412197931

>  <r_i_glide_energy>  (1) 
-29.136075985735296

>  <r_i_glide_erotb>  (1) 
0.49989103335302049

>  <r_i_glide_esite>  (1) 
-0.12960818087577858

>  <r_i_glide_evdw>  (1) 
-19.641611291539711

>  <r_i_glide_gscore>  (1) 
-4.9937148335665018

>  <r_i_glide_gscore_strain>  (1) 
0

>  <r_i_glide_hbond>  (1) 
-0.52000000000000002

>  <r_i_glide_ligand_efficiency>  (1) 
-0.15266799598104502

>  <r_i_glide_ligand_efficiency_ln>  (1) 
-1.0673706659832221

>  <r_i_glide_ligand_efficiency_sa>  (1) 
-0.47958828881422183

>  <r_i_glide_lipo>  (1) 
-1.0999934144809564

>  <r_i_glide_metal>  (1) 
-0

>  <r_i_glide_rewards>  (1) 
-1.3377540028564645

>  <r_lp_Energy>  (1) 
53.105624999999996

>  <r_lp_tautomer_probability>  (1) 
0.99995000000000001

>  <s_epik_Chemistry_Notes>  (1) 
This compound contains an acetal/aminal-like group ( X-CH(R)-Y where X, Y are N, S, or O) that may be acid/base labile, releasing an aldehyde.

>  <s_epik_cmdline>  (1) 
J2VwaWtfcHl0aG9uJywgJy1waHQnLCAnMS4wJywgJy1waCcsICc3LjQnLCAnLXRuJywgJzgnLCAnLW1hJywgJzUwMCcsICctaW1hZScsICc8aW5maWxlLm1hZT4nLCAnLW9tYWUnLCAnPG91dGZpbGUubWFlPic=

>  <s_epik_input>  (1) 
RkMxKEYpW0NIMl1PW0NASF0oW09IXSlbQ0BIXShDMT1PKVtDSDJdW0NIMl1OKFtDSDJdMilbQ0gyXVtDSDJdW0NASF0oW0NAQEhdMjMpW0NIMl1bQ0BIXShbT0hdKU4oW0NIMl0zKVtDQEBIXTRbQ0gyXVtDSDJdW0NIMl1bQ0BASF0oW0NIMl00KVtDSDJdW09IXQ==

>  <s_glide_docking_method>  (1) 
confgen

>  <s_i_glide_gridfile>  (1) 
gpcr_drd2_6luq_protein_autoprepared_prepared

>  <s_lp_Force_Field>  (1) 
S-OPLS

>  <s_lp_Variant>  (1) 
DiffSBDD_39-2

>  <s_m_source_file>  (1) 
generated_generic_title2_ligand_DiffSBDD_2026-06-23_prepared.sdf

>  <GenAI_Model>  (1) 
DiffSBDD

>  <Protein>  (1) 
generic_title2

$$$$
DiffSBDD_28
     RDKit          3D

  0  0  0  0  0  0  0  0  0  0999 V3000
M  V30 BEGIN CTAB
M  V30 COUNTS 78 85 0 0 1
M  V30 BEGIN ATOM
M  V30 1 F 5.776293 1.470737 -13.585033 0
M  V30 2 C 11.736765 8.784796 -6.909613 0 CFG=1
M  V30 3 C 10.131876 6.969995 -9.754298 0 CFG=2
M  V30 4 C 11.775403 6.753019 -4.925049 0 CFG=2
M  V30 5 C 8.888142 4.399349 -13.265821 0 CFG=1
M  V30 6 C 13.152929 8.662626 -7.477992 0
M  V30 7 C 8.390912 5.815068 -11.161322 0 CFG=2
M  V30 8 C 7.427126 3.129792 -15.816657 0 CFG=1
M  V30 9 C 9.944638 8.414710 -10.151252 0
M  V30 10 C 7.405307 4.142888 -13.507656 0 CFG=1
M  V30 11 C 11.679337 9.475031 -4.813377 0 CFG=1
M  V30 12 C 8.895136 5.273116 -8.694438 0
M  V30 13 C 11.654640 8.147400 -5.497886 0 CFG=1
M  V30 14 O 12.896723 9.590202 -4.111435 0
M  V30 15 C 6.461424 1.031803 -14.705604 0 CFG=1
M  V30 16 C 9.396622 5.121504 -12.052616 0 CFG=1
M  V30 17 O 9.377985 3.699847 -12.106155 0
M  V30 18 N 8.887983 6.209118 -9.823338 0 CFG=1 CHG=1
M  V30 19 O 11.508786 7.190150 -2.438511 0
M  V30 20 C 5.771892 0.001782 -15.505966 0
M  V30 21 O 10.503972 7.359053 -5.185060 0
M  V30 22 C 6.491746 4.970453 -12.570997 0
M  V30 23 C 11.560952 10.140182 -6.182581 0
M  V30 24 N 10.712422 8.390636 -7.914371 0
M  V30 25 C 12.175413 6.487675 -3.467821 0
M  V30 26 N 8.570511 3.724658 -16.540261 0 CHG=1
M  V30 27 C 7.037413 5.084643 -11.138372 0
M  V30 28 C 8.406679 5.189916 -16.509024 0
M  V30 29 C 7.191317 5.427003 -15.613137 0
M  V30 30 O 5.816121 -0.233438 -16.711689 0
M  V30 31 C 9.521076 6.129990 -7.585223 0
M  V30 32 C 7.706543 1.730857 -15.239778 0
M  V30 33 O 6.699102 -0.409756 -14.683967 0
M  V30 34 N 6.948711 4.177174 -14.908084 0
M  V30 35 C 10.951169 9.022846 -9.215920 0
M  V30 36 C 10.575228 6.393050 -1.732544 0
M  V30 37 C 10.596222 6.977467 -8.290668 0 CFG=1
M  V30 38 H 10.929295 6.557512 -10.349236 0
M  V30 39 H 12.067802 5.979705 -5.631593 0
M  V30 40 H 9.560277 4.390153 -14.117324 0
M  V30 41 H 13.874495 9.098343 -6.785309 0
M  V30 42 H 13.375456 7.617675 -7.668948 0
M  V30 43 H 13.350591 9.189931 -8.402062 0
M  V30 44 H 8.200494 6.772806 -11.648875 0
M  V30 45 H 6.664757 2.997089 -16.584519 0
M  V30 46 H 8.956322 8.798566 -9.920774 0
M  V30 47 H 10.152554 8.572971 -11.208251 0
M  V30 48 H 7.265336 3.131765 -13.140472 0
M  V30 49 H 10.840813 9.673812 -4.148064 0
M  V30 50 H 9.513465 4.404991 -8.928396 0
M  V30 51 H 7.890636 4.936911 -8.432678 0
M  V30 52 H 12.702611 9.990208 -3.276260 0
M  V30 53 H 10.372933 5.583746 -12.176958 0
M  V30 54 H 5.501537 4.513644 -12.543984 0
M  V30 55 H 6.343153 5.975263 -12.965617 0
M  V30 56 H 10.575438 10.565676 -6.309700 0
M  V30 57 H 12.330125 10.884773 -6.385016 0
M  V30 58 H 12.175419 5.419876 -3.282160 0
M  V30 59 H 13.205137 6.814749 -3.342775 0
M  V30 60 H 8.604889 3.383819 -17.491068 0
M  V30 61 H 7.138988 4.093388 -10.694783 0
M  V30 62 H 6.323089 5.626823 -10.517282 0
M  V30 63 H 8.244702 5.588366 -17.511161 0
M  V30 64 H 9.307071 5.652057 -16.103527 0
M  V30 65 H 6.325481 5.651102 -16.237597 0
M  V30 66 H 7.330075 6.278435 -14.945181 0
M  V30 67 H 9.933197 5.532483 -6.782938 0
M  V30 68 H 8.755745 6.780250 -7.154789 0
M  V30 69 H 8.127768 1.123707 -16.043721 0
M  V30 70 H 8.467533 1.744481 -14.460040 0
M  V30 71 H 10.975482 10.098959 -9.187462 0
M  V30 72 H 11.903416 8.724706 -9.651555 0
M  V30 73 H 10.064233 7.009988 -0.994498 0
M  V30 74 H 9.819529 5.990212 -2.405617 0
M  V30 75 H 11.080595 5.590256 -1.200588 0
M  V30 76 H 11.557024 6.474136 -8.227367 0
M  V30 77 H 8.155953 6.881801 -9.548522 0
M  V30 78 H 9.429096 3.487541 -16.066179 0
M  V30 END ATOM
M  V30 BEGIN BOND
M  V30 1 1 2 6 CFG=3
M  V30 2 1 9 3
M  V30 3 1 10 5
M  V30 4 1 13 2
M  V30 5 1 13 4
M  V30 6 1 13 11
M  V30 7 1 14 11
M  V30 8 1 15 1 CFG=1
M  V30 9 1 16 5
M  V30 10 1 16 7
M  V30 11 1 17 5
M  V30 12 1 17 16
M  V30 13 1 18 3
M  V30 14 1 18 7
M  V30 15 1 18 12
M  V30 16 1 20 15
M  V30 17 1 21 4
M  V30 18 1 13 21 CFG=3
M  V30 19 1 22 10
M  V30 20 1 23 2
M  V30 21 1 23 11
M  V30 22 1 24 2
M  V30 23 1 25 4
M  V30 24 1 25 19
M  V30 25 1 26 8
M  V30 26 1 27 7
M  V30 27 1 27 22
M  V30 28 1 28 26
M  V30 29 1 29 28
M  V30 30 2 30 20
M  V30 31 1 31 12
M  V30 32 1 32 8
M  V30 33 1 32 15
M  V30 34 1 33 15
M  V30 35 1 33 20
M  V30 36 1 34 8
M  V30 37 1 34 10
M  V30 38 1 34 29
M  V30 39 1 35 9
M  V30 40 1 35 24
M  V30 41 1 36 19
M  V30 42 1 37 3
M  V30 43 1 37 24
M  V30 44 1 37 31
M  V30 45 1 3 38 CFG=3
M  V30 46 1 4 39 CFG=3
M  V30 47 1 5 40 CFG=3
M  V30 48 1 41 6
M  V30 49 1 42 6
M  V30 50 1 43 6
M  V30 51 1 7 44 CFG=3
M  V30 52 1 8 45 CFG=3
M  V30 53 1 46 9
M  V30 54 1 47 9
M  V30 55 1 10 48 CFG=1
M  V30 56 1 11 49 CFG=1
M  V30 57 1 50 12
M  V30 58 1 51 12
M  V30 59 1 52 14
M  V30 60 1 16 53 CFG=3
M  V30 61 1 54 22
M  V30 62 1 55 22
M  V30 63 1 56 23
M  V30 64 1 57 23
M  V30 65 1 58 25
M  V30 66 1 59 25
M  V30 67 1 60 26
M  V30 68 1 61 27
M  V30 69 1 62 27
M  V30 70 1 63 28
M  V30 71 1 64 28
M  V30 72 1 65 29
M  V30 73 1 66 29
M  V30 74 1 67 31
M  V30 75 1 68 31
M  V30 76 1 69 32
M  V30 77 1 70 32
M  V30 78 1 71 35
M  V30 79 1 72 35
M  V30 80 1 73 36
M  V30 81 1 74 36
M  V30 82 1 75 36
M  V30 83 1 37 76 CFG=3
M  V30 84 1 18 77 CFG=1
M  V30 85 1 78 26
M  V30 END BOND
M  V30 END CTAB
M  END
>  <i_epik_Tot_Q>  (1) 
2

>  <i_epik_Tot_abs_Q>  (1) 
2

>  <i_i_glide_confnum>  (1) 
576

>  <i_i_glide_lignum>  (1) 
86

>  <i_i_glide_posenum>  (1) 
129

>  <i_i_glide_rotatable_bonds>  (1) 
8

>  <i_lp_mmshare_version>  (1) 
72125

>  <i_m_source_file_index>  (1) 
29

>  <i_f3d_flags>  (1) 
0

>  <num_sample>  (1) 
50

>  <b_lp_Chiralities_Consistent>  (1) 
1

>  <r_epik_Charging_Adjusted_Penalty>  (1) 
1.0492181154286748

>  <r_epik_Ionization_Penalty>  (1) 
0.8301501805432685

>  <r_epik_Ionization_Penalty_Charging>  (1) 
0.211122083805314

>  <r_epik_Ionization_Penalty_Neutral>  (1) 
0.61902809673795445

>  <r_epik_State_Penalty>  (1) 
0.83809603162336077

>  <r_glide_ring_energy>  (1) 
0.81914574756082614

>  <r_i_docking_score>  (1) 
-4.7300006794620133

>  <r_i_glide_ecoul>  (1) 
-6.2303688751651656

>  <r_i_glide_eff_state_penalty>  (1) 
0.83809603162336077

>  <r_i_glide_einternal>  (1) 
22.343166726444643

>  <r_i_glide_emodel>  (1) 
-23.729211145545246

>  <r_i_glide_emodel_strain>  (1) 
5.3591855848268892

>  <r_i_glide_energy>  (1) 
-36.338192091213713

>  <r_i_glide_erotb>  (1) 
0.44856850619138583

>  <r_i_glide_esite>  (1) 
-0.095743275455654753

>  <r_i_glide_evdw>  (1) 
-30.107823216048551

>  <r_i_glide_gscore>  (1) 
-5.5680967110853743

>  <r_i_glide_gscore_strain>  (1) 
0.33979639620672231

>  <r_i_glide_hbond>  (1) 
-0.20000000000000001

>  <r_i_glide_ligand_efficiency>  (1) 
-0.12783785620167604

>  <r_i_glide_ligand_efficiency_ln>  (1) 
-1.0258262604266357

>  <r_i_glide_ligand_efficiency_sa>  (1) 
-0.42598409790279806

>  <r_i_glide_lipo>  (1) 
-2.5597280826126916

>  <r_i_glide_metal>  (1) 
-0

>  <r_i_glide_rewards>  (1) 
-1.0610437633379335

>  <r_lp_Energy>  (1) 
60.259107999999998

>  <s_epik_Chemistry_Notes>  (1) 
This compound has an ester and may undergo hydrolysis at high or low pH. This compound contains an acetal/aminal-like group ( X-CH(R)-Y where X, Y are N, S, or O) that may be acid/base labile, releasing an aldehyde.

>  <s_epik_cmdline>  (1) 
J2VwaWtfcHl0aG9uJywgJy1waHQnLCAnMS4wJywgJy1waCcsICc3LjQnLCAnLXRuJywgJzgnLCAnLW1hJywgJzUwMCcsICctaW1hZScsICc8aW5maWxlLm1hZT4nLCAnLW9tYWUnLCAnPG91dGZpbGUubWFlPic=

>  <s_epik_input>  (1) 
Tz1DKE8xKUMxKEYpW0NIMl1bQ0BASF0yW05IXVtDSDJdW0NIMl1OMltDQEBIXTNbQ0gyXVtDSDJdW0NASF0oW0NAQEhdKE80KVtDQEhdMzQpTjVbQ0gyXVtDSDJdW0NAQEhdKFtDQEhdNTYpTihbQ0gyXVtDSDJdNilbQ0BAXShbQ0gzXSkoW0NIMl1bQ0BASF03W09IXSlbQ0BAXTc4W0NASF0oTzgpW0NIMl1PW0NIM10=

>  <s_glide_docking_method>  (1) 
confgen

>  <s_i_glide_gridfile>  (1) 
gpcr_drd2_6luq_protein_autoprepared_prepared

>  <s_lp_Force_Field>  (1) 
S-OPLS

>  <s_lp_Variant>  (1) 
DiffSBDD_28-9

>  <s_m_source_file>  (1) 
generated_generic_title2_ligand_DiffSBDD_2026-06-23_prepared.sdf

>  <GenAI_Model>  (1) 
DiffSBDD

>  <Protein>  (1) 
generic_title2

$$$$
DiffSBDD_20
     RDKit          3D

  0  0  0  0  0  0  0  0  0  0999 V3000
M  V30 BEGIN CTAB
M  V30 COUNTS 72 74 0 0 1
M  V30 BEGIN ATOM
M  V30 1 C 10.843230 5.333914 -20.545724 0
M  V30 2 C 5.628914 7.483680 -15.525995 0
M  V30 3 C 7.117017 4.370641 -17.988245 0 CFG=2
M  V30 4 C 9.536464 5.350926 -20.833936 0
M  V30 5 C 11.430412 5.167446 -19.199168 0 CFG=1
M  V30 6 C 11.823942 7.739420 -9.915480 0
M  V30 7 C 8.369553 6.424001 -11.335727 0 CFG=1
M  V30 8 F 11.373279 6.311481 -18.517408 0
M  V30 9 C 8.082701 4.966998 -13.550784 0
M  V30 10 O 9.584271 8.379409 -9.620857 0
M  V30 11 C 7.220117 4.409736 -16.444975 0
M  V30 12 C 7.793776 5.176921 -12.047365 0 CFG=2
M  V30 13 C 10.680467 7.199631 -7.142541 0
M  V30 14 C 8.423152 5.147777 -19.893273 0
M  V30 15 C 8.448721 4.470007 -18.714999 0
M  V30 16 C 9.625142 3.775157 -18.147552 0
M  V30 17 C 9.891449 6.400624 -11.028049 0 CFG=2
M  V30 18 C 5.997075 6.790402 -18.001083 0
M  V30 19 N 7.946743 5.590234 -15.947962 0 CHG=1
M  V30 20 C 5.029443 6.862532 -16.805938 0
M  V30 21 C 8.959756 5.691059 -8.135412 0
M  V30 22 C 7.594041 6.024759 -14.579225 0 CFG=1
M  V30 23 O 6.399798 5.097742 -11.811440 0
M  V30 24 C 10.375221 7.213650 -9.753247 0 CFG=1
M  V30 25 S 6.856649 5.753164 -20.336208 0
M  V30 26 C 10.914924 4.052115 -18.377465 0
M  V30 27 C 10.282910 6.402738 -8.406642 0
M  V30 28 C 6.104221 6.462593 -14.469936 0
M  V30 29 C 6.152830 5.412365 -18.686144 0 CFG=1
M  V30 30 O 10.557419 6.790370 -12.220013 0
M  V30 31 N 7.974993 7.689657 -11.985048 0 CHG=1
M  V30 32 H 11.550015 5.509286 -21.344402 0
M  V30 33 H 4.836750 8.072480 -15.064916 0
M  V30 34 H 6.407561 8.214700 -15.754105 0
M  V30 35 H 6.733089 3.382971 -18.246869 0
M  V30 36 H 9.270295 5.553767 -21.862029 0
M  V30 37 H 12.493774 4.976890 -19.347949 0
M  V30 38 H 12.550351 6.931253 -9.985141 0
M  V30 39 H 12.128512 8.368818 -9.080474 0
M  V30 40 H 11.941634 8.378383 -10.785139 0
M  V30 41 H 7.864504 6.390218 -10.384967 0
M  V30 42 H 9.160751 4.845216 -13.670476 0
M  V30 43 H 7.658595 3.996420 -13.808323 0
M  V30 44 H 8.736028 8.135389 -9.252013 0
M  V30 45 H 6.240793 4.390242 -15.985072 0
M  V30 46 H 7.717973 3.512407 -16.077717 0
M  V30 47 H 8.202251 4.305320 -11.532489 0
M  V30 48 H 10.077275 8.101462 -7.033137 0
M  V30 49 H 11.730675 7.488457 -7.142608 0
M  V30 50 H 10.534310 6.603255 -6.240901 0
M  V30 51 H 9.424321 2.961955 -17.464772 0
M  V30 52 H 10.175295 5.360751 -10.878357 0
M  V30 53 H 5.615330 7.492987 -18.744004 0
M  V30 54 H 6.975584 7.190150 -17.757458 0
M  V30 55 H 8.941769 5.425898 -16.020234 0
M  V30 56 H 4.577273 5.895061 -16.600259 0
M  V30 57 H 4.188179 7.486529 -17.112394 0
M  V30 58 H 8.175415 6.422752 -8.049146 0
M  V30 59 H 8.990511 5.165350 -7.185462 0
M  V30 60 H 8.701137 4.957266 -8.897478 0
M  V30 61 H 8.175411 6.926591 -14.431579 0
M  V30 62 H 6.241211 5.019438 -10.879571 0
M  V30 63 H 11.666362 3.452806 -17.882836 0
M  V30 64 H 10.975569 5.579428 -8.468178 0
M  V30 65 H 5.957110 6.949796 -13.508375 0
M  V30 66 H 5.426975 5.608210 -14.430008 0
M  V30 67 H 5.164200 4.972365 -18.827269 0
M  V30 68 H 11.490166 6.683830 -12.100947 0
M  V30 69 H 8.571055 7.860743 -12.780186 0
M  V30 70 H 8.109294 8.418739 -11.295413 0
M  V30 71 H 7.704806 6.355504 -16.561201 0
M  V30 72 H 6.996566 7.644637 -12.228460 0
M  V30 END ATOM
M  V30 BEGIN BOND
M  V30 1 2 4 1
M  V30 2 1 5 1
M  V30 3 1 8 5
M  V30 4 1 11 3
M  V30 5 1 12 7
M  V30 6 1 12 9
M  V30 7 1 14 4
M  V30 8 1 15 3
M  V30 9 2 15 14
M  V30 10 1 16 15
M  V30 11 1 17 7
M  V30 12 1 19 11
M  V30 13 1 20 2
M  V30 14 1 20 18
M  V30 15 1 22 9
M  V30 16 1 22 19
M  V30 17 1 23 12
M  V30 18 1 24 6
M  V30 19 1 24 10 CFG=1
M  V30 20 1 24 17
M  V30 21 1 25 14
M  V30 22 1 26 5
M  V30 23 2 26 16
M  V30 24 1 27 13
M  V30 25 1 27 21
M  V30 26 1 27 24
M  V30 27 1 28 2
M  V30 28 1 28 22
M  V30 29 1 29 3
M  V30 30 1 29 18
M  V30 31 1 29 25
M  V30 32 1 30 17
M  V30 33 1 31 7
M  V30 34 1 32 1
M  V30 35 1 33 2
M  V30 36 1 34 2
M  V30 37 1 3 35 CFG=1
M  V30 38 1 36 4
M  V30 39 1 5 37 CFG=3
M  V30 40 1 38 6
M  V30 41 1 39 6
M  V30 42 1 40 6
M  V30 43 1 7 41 CFG=1
M  V30 44 1 42 9
M  V30 45 1 43 9
M  V30 46 1 44 10
M  V30 47 1 45 11
M  V30 48 1 46 11
M  V30 49 1 12 47 CFG=1
M  V30 50 1 48 13
M  V30 51 1 49 13
M  V30 52 1 50 13
M  V30 53 1 51 16
M  V30 54 1 17 52 CFG=1
M  V30 55 1 53 18
M  V30 56 1 54 18
M  V30 57 1 55 19
M  V30 58 1 56 20
M  V30 59 1 57 20
M  V30 60 1 58 21
M  V30 61 1 59 21
M  V30 62 1 60 21
M  V30 63 1 22 61 CFG=1
M  V30 64 1 62 23
M  V30 65 1 63 26
M  V30 66 1 64 27
M  V30 67 1 65 28
M  V30 68 1 66 28
M  V30 69 1 29 67 CFG=3
M  V30 70 1 68 30
M  V30 71 1 69 31
M  V30 72 1 70 31
M  V30 73 1 71 19
M  V30 74 1 72 31
M  V30 END BOND
M  V30 END CTAB
M  END
>  <i_epik_Tot_Q>  (1) 
2

>  <i_epik_Tot_abs_Q>  (1) 
2

>  <i_i_glide_confnum>  (1) 
79

>  <i_i_glide_lignum>  (1) 
65

>  <i_i_glide_posenum>  (1) 
76

>  <i_i_glide_rotatable_bonds>  (1) 
9

>  <i_lp_mmshare_version>  (1) 
72125

>  <i_m_source_file_index>  (1) 
21

>  <i_f3d_flags>  (1) 
0

>  <num_sample>  (1) 
50

>  <b_lp_Chiralities_Consistent>  (1) 
1

>  <r_epik_Charging_Adjusted_Penalty>  (1) 
0.28425092081310654

>  <r_epik_Ionization_Penalty>  (1) 
0.14293687999153612

>  <r_epik_Ionization_Penalty_Charging>  (1) 
0.14293530953308087

>  <r_epik_Ionization_Penalty_Neutral>  (1) 
1.5704584552406844e-06

>  <r_epik_State_Penalty>  (1) 
0.14131561128002565

>  <r_glide_ring_energy>  (1) 
0

>  <r_i_docking_score>  (1) 
-4.7233758390327703

>  <r_i_glide_ecoul>  (1) 
-8.2322025530720673

>  <r_i_glide_eff_state_penalty>  (1) 
0.14131561128002565

>  <r_i_glide_einternal>  (1) 
12.59020489743255

>  <r_i_glide_emodel>  (1) 
-40.887579566013585

>  <r_i_glide_emodel_strain>  (1) 
0.4227739604095575

>  <r_i_glide_energy>  (1) 
-31.948460908086386

>  <r_i_glide_erotb>  (1) 
0.38550374204318533

>  <r_i_glide_esite>  (1) 
-0.10000000000000001

>  <r_i_glide_evdw>  (1) 
-23.716258355014318

>  <r_i_glide_gscore>  (1) 
-4.8646914503127956

>  <r_i_glide_gscore_strain>  (1) 
0

>  <r_i_glide_hbond>  (1) 
-0.17467836531529468

>  <r_i_glide_ligand_efficiency>  (1) 
-0.15236696254944421

>  <r_i_glide_ligand_efficiency_ln>  (1) 
-1.065266005787048

>  <r_i_glide_ligand_efficiency_sa>  (1) 
-0.47864262821646808

>  <r_i_glide_lipo>  (1) 
-1.8834067708911897

>  <r_i_glide_metal>  (1) 
-0

>  <r_i_glide_rewards>  (1) 
-0.6714667554379703

>  <r_lp_Energy>  (1) 
50.051933999999996

>  <s_epik_cmdline>  (1) 
J2VwaWtfcHl0aG9uJywgJy1waHQnLCAnMS4wJywgJy1waCcsICc3LjQnLCAnLXRuJywgJzgnLCAnLW1hJywgJzUwMCcsICctaW1hZScsICc8aW5maWxlLm1hZT4nLCAnLW9tYWUnLCAnPG91dGZpbGUubWFlPic=

>  <s_epik_input>  (1) 
W0NIXTE9W0NIXVtDQEhdKEYpW0NIXT1bQ0hdQyg9QzFbQ0BASF0yMylTW0NAQEhdM1tDSDJdW0NIMl1bQ0gyXVtDSDJdW0NASF0oW05IXVtDSDJdMilbQ0gyXVtDQEhdKFtPSF0pW0NASF0oW05IMl0pW0NAQEhdKFtPSF0pW0NAQF0oW0NIM10pKFtPSF0pW0NIXShbQ0gzXSlbQ0gzXQ==

>  <s_glide_docking_method>  (1) 
confgen

>  <s_i_glide_gridfile>  (1) 
gpcr_drd2_6luq_protein_autoprepared_prepared

>  <s_lp_Force_Field>  (1) 
S-OPLS

>  <s_lp_Variant>  (1) 
DiffSBDD_20-2

>  <s_m_source_file>  (1) 
generated_generic_title2_ligand_DiffSBDD_2026-06-23_prepared.sdf

>  <GenAI_Model>  (1) 
DiffSBDD

>  <Protein>  (1) 
generic_title2

$$$$
DiffSBDD_0
     RDKit          3D

  0  0  0  0  0  0  0  0  0  0999 V3000
M  V30 BEGIN CTAB
M  V30 COUNTS 70 74 0 0 1
M  V30 BEGIN ATOM
M  V30 1 C 10.139926 6.870680 -6.010967 0
M  V30 2 N 7.731864 4.560233 -13.332449 0
M  V30 3 C 7.193406 5.049943 -17.538427 0 CFG=1
M  V30 4 C 9.280075 5.154035 -11.495788 0
M  V30 5 F 12.175401 8.813298 -6.782685 0
M  V30 6 C 7.329421 5.919657 -13.744478 0
M  V30 7 C 9.039574 7.316803 -6.969378 0
M  V30 8 C 9.288495 7.266214 -10.501364 0
M  V30 9 C 10.782929 8.303698 -8.589795 0 CFG=1
M  V30 10 C 9.791690 4.487972 -17.802359 0
M  V30 11 C 7.180839 3.490957 -14.163597 0 CFG=1
M  V30 12 C 7.100566 -0.009962 -13.382938 0
M  V30 13 C 8.389047 4.513726 -18.335363 0 CFG=1
M  V30 14 O 9.265063 6.504130 -11.700622 0
M  V30 15 C 11.878536 7.813144 -7.613656 0 CFG=2
M  V30 16 C 7.283449 3.578151 -17.888298 0 CFG=1
M  V30 17 N 7.150896 5.002913 -16.052957 0 CFG=1 CHG=1
M  V30 18 C 10.670509 7.376204 -9.827736 0
M  V30 19 C 6.531169 1.396292 -13.336611 0
M  V30 20 C 7.730547 3.748128 -15.563686 0 CFG=2
M  V30 21 O 7.135129 -0.409764 -14.737442 0
M  V30 22 C 9.483246 8.534689 -7.785758 0
M  V30 23 N 10.408584 5.590354 -17.290336 0
M  V30 24 C 7.568365 6.175313 -15.256401 0
M  V30 25 N 10.522716 3.372676 -17.835937 0
M  V30 26 O 11.761802 3.763732 -17.301144 0
M  V30 27 C 11.596765 5.072425 -17.029091 0
M  V30 28 O 7.580293 2.221135 -13.804677 0
M  V30 29 N 12.717163 5.707724 -16.516926 0
M  V30 30 C 8.588803 4.275256 -12.251754 0
M  V30 31 C 11.424432 6.584160 -6.784026 0
M  V30 32 C 14.049582 5.213621 -16.218722 0
M  V30 33 C 7.377002 2.723021 -16.637830 0
M  V30 34 H 10.320946 7.649649 -5.270086 0
M  V30 35 H 9.823690 5.990177 -5.454865 0
M  V30 36 H 6.415669 5.648110 -18.008734 0
M  V30 37 H 9.909840 4.868070 -10.670686 0
M  V30 38 H 6.257892 5.986663 -13.550557 0
M  V30 39 H 7.746444 6.744654 -13.184743 0
M  V30 40 H 8.175416 7.600244 -6.385307 0
M  V30 41 H 8.731548 6.492572 -7.612176 0
M  V30 42 H 8.916483 8.262419 -10.740993 0
M  V30 43 H 8.576547 6.790224 -9.825144 0
M  V30 44 H 11.088282 9.274826 -8.980279 0
M  V30 45 H 6.092965 3.583043 -14.135433 0
M  V30 46 H 6.474401 -0.701996 -12.818105 0
M  V30 47 H 8.099334 -0.009682 -12.944916 0
M  V30 48 H 8.417921 4.769800 -19.392805 0
M  V30 49 H 12.800009 7.591832 -8.152964 0
M  V30 50 H 6.644016 3.186957 -18.676973 0
M  V30 51 H 10.971932 6.390198 -9.516870 0
M  V30 52 H 11.408401 7.683179 -10.569183 0
M  V30 53 H 5.632755 1.457263 -13.953680 0
M  V30 54 H 6.261998 1.682480 -12.319672 0
M  V30 55 H 8.815255 3.833107 -15.487020 0
M  V30 56 H 7.391771 -1.328630 -14.784940 0
M  V30 57 H 9.667649 9.323988 -7.063384 0
M  V30 58 H 8.678111 8.910164 -8.412399 0
M  V30 59 H 7.012137 7.057639 -15.577965 0
M  V30 60 H 8.619636 6.360615 -15.437619 0
M  V30 61 H 12.591018 6.689289 -16.319727 0
M  V30 62 H 8.664556 3.218737 -12.044180 0
M  V30 63 H 12.175412 6.276542 -6.066194 0
M  V30 64 H 11.267241 5.721166 -7.429883 0
M  V30 65 H 14.781010 6.012558 -16.343311 0
M  V30 66 H 14.105416 4.853148 -15.192501 0
M  V30 67 H 14.320489 4.392736 -16.883232 0
M  V30 68 H 6.424768 2.230800 -16.447018 0
M  V30 69 H 8.138831 1.949133 -16.740227 0
M  V30 70 H 6.166497 4.908920 -15.851900 0
M  V30 END ATOM
M  V30 BEGIN BOND
M  V30 1 1 6 2
M  V30 2 1 7 1
M  V30 3 1 11 2
M  V30 4 1 13 3
M  V30 5 1 13 10
M  V30 6 1 14 4
M  V30 7 1 14 8
M  V30 8 1 15 5
M  V30 9 1 15 9
M  V30 10 1 16 3
M  V30 11 1 16 13
M  V30 12 1 17 3
M  V30 13 1 18 8
M  V30 14 1 18 9
M  V30 15 1 19 12
M  V30 16 1 20 11
M  V30 17 1 20 17
M  V30 18 1 21 12
M  V30 19 1 22 7
M  V30 20 1 22 9
M  V30 21 1 23 10
M  V30 22 1 24 6
M  V30 23 1 24 17
M  V30 24 2 25 10
M  V30 25 1 26 25
M  V30 26 2 27 23
M  V30 27 1 27 26
M  V30 28 1 28 11
M  V30 29 1 28 19
M  V30 30 1 29 27
M  V30 31 1 30 2
M  V30 32 2 30 4
M  V30 33 1 31 1
M  V30 34 1 31 15
M  V30 35 1 32 29
M  V30 36 1 33 16
M  V30 37 1 33 20
M  V30 38 1 34 1
M  V30 39 1 35 1
M  V30 40 1 3 36 CFG=3
M  V30 41 1 37 4
M  V30 42 1 38 6
M  V30 43 1 39 6
M  V30 44 1 40 7
M  V30 45 1 41 7
M  V30 46 1 42 8
M  V30 47 1 43 8
M  V30 48 1 9 44 CFG=3
M  V30 49 1 11 45 CFG=3
M  V30 50 1 46 12
M  V30 51 1 47 12
M  V30 52 1 13 48 CFG=3
M  V30 53 1 15 49 CFG=3
M  V30 54 1 16 50 CFG=3
M  V30 55 1 51 18
M  V30 56 1 52 18
M  V30 57 1 53 19
M  V30 58 1 54 19
M  V30 59 1 20 55 CFG=1
M  V30 60 1 56 21
M  V30 61 1 57 22
M  V30 62 1 58 22
M  V30 63 1 59 24
M  V30 64 1 60 24
M  V30 65 1 61 29
M  V30 66 1 62 30
M  V30 67 1 63 31
M  V30 68 1 64 31
M  V30 69 1 65 32
M  V30 70 1 66 32
M  V30 71 1 67 32
M  V30 72 1 68 33
M  V30 73 1 69 33
M  V30 74 1 17 70 CFG=3
M  V30 END BOND
M  V30 END CTAB
M  END
>  <i_epik_Tot_Q>  (1) 
1

>  <i_epik_Tot_abs_Q>  (1) 
1

>  <i_i_glide_confnum>  (1) 
176

>  <i_i_glide_lignum>  (1) 
8

>  <i_i_glide_posenum>  (1) 
150

>  <i_i_glide_rotatable_bonds>  (1) 
11

>  <i_lp_mmshare_version>  (1) 
72125

>  <i_m_source_file_index>  (1) 
1

>  <i_f3d_flags>  (1) 
0

>  <num_sample>  (1) 
50

>  <b_lp_Chiralities_Consistent>  (1) 
1

>  <r_epik_Charging_Adjusted_Penalty>  (1) 
0.41344222577729461

>  <r_epik_Ionization_Penalty>  (1) 
0.0027644559619576371

>  <r_epik_Ionization_Penalty_Charging>  (1) 
0.0027623868246906495

>  <r_epik_Ionization_Penalty_Neutral>  (1) 
2.0691372669875143e-06

>  <r_epik_State_Penalty>  (1) 
0.41067983895260396

>  <r_glide_ring_energy>  (1) 
1.2880141380397463

>  <r_i_docking_score>  (1) 
-4.7134347487595587

>  <r_i_glide_ecoul>  (1) 
-4.3090706895732733

>  <r_i_glide_eff_state_penalty>  (1) 
0.41067983895260396

>  <r_i_glide_einternal>  (1) 
11.975444763653936

>  <r_i_glide_emodel>  (1) 
-37.7805712988213

>  <r_i_glide_emodel_strain>  (1) 
2.6727273468735149

>  <r_i_glide_energy>  (1) 
-35.233244037520109

>  <r_i_glide_erotb>  (1) 
0.74142510397790429

>  <r_i_glide_esite>  (1) 
0

>  <r_i_glide_evdw>  (1) 
-30.924173347946837

>  <r_i_glide_gscore>  (1) 
-5.124114587712163

>  <r_i_glide_gscore_strain>  (1) 
0

>  <r_i_glide_hbond>  (1) 
-0.32000000000000001

>  <r_i_glide_ligand_efficiency>  (1) 
-0.14283135602301694

>  <r_i_glide_ligand_efficiency_ln>  (1) 
-1.0482434832651166

>  <r_i_glide_ligand_efficiency_sa>  (1) 
-0.458136477843683

>  <r_i_glide_lipo>  (1) 
-2.0231680701825936

>  <r_i_glide_metal>  (1) 
-0

>  <r_i_glide_rewards>  (1) 
-1.329802350674141

>  <r_lp_Energy>  (1) 
51.448637999999995

>  <r_lp_tautomer_probability>  (1) 
0.5

>  <s_epik_Chemistry_Notes>  (1) 
This compound has an imine and may undergo hydrolysis. This compound contains an acetal/aminal-like group ( X-CH(R)-Y where X, Y are N, S, or O) that may be acid/base labile, releasing an aldehyde.

>  <s_epik_cmdline>  (1) 
J2VwaWtfcHl0aG9uJywgJy1waHQnLCAnMS4wJywgJy1waCcsICc3LjQnLCAnLXRuJywgJzgnLCAnLW1hJywgJzUwMCcsICctaW1hZScsICc8aW5maWxlLm1hZT4nLCAnLW9tYWUnLCAnPG91dGZpbGUubWFlPic=

>  <s_epik_input>  (1) 
W0NIMl0xW0NIMl1bQ0gyXVtDSDJdW0NASF0oRilbQ0BIXTFbQ0gyXVtDSDJdTy9bQ0hdPVtDSF1cTihbQ0BIXTJPW0NIMl1bQ0gyXVtPSF0pW0NIMl1bQ0gyXU4zW0NAQEhdMltDSDJdW0NAQEhdKFtDQEBIXTM0KVtDQEBIXTRjNW5jKG9uNSlbTkhdW0NIM10=

>  <s_glide_docking_method>  (1) 
confgen

>  <s_i_glide_gridfile>  (1) 
gpcr_drd2_6luq_protein_autoprepared_prepared

>  <s_lp_Force_Field>  (1) 
S-OPLS

>  <s_lp_Variant>  (1) 
DiffSBDD_0-8

>  <s_m_source_file>  (1) 
generated_generic_title2_ligand_DiffSBDD_2026-06-23_prepared.sdf

>  <GenAI_Model>  (1) 
DiffSBDD

>  <Protein>  (1) 
generic_title2

$$$$
DiffSBDD_0
     RDKit          3D

  0  0  0  0  0  0  0  0  0  0999 V3000
M  V30 BEGIN CTAB
M  V30 COUNTS 70 74 0 0 1
M  V30 BEGIN ATOM
M  V30 1 C 11.042112 9.065357 -6.644317 0
M  V30 2 N 8.025043 3.626221 -13.033282 0
M  V30 3 C 7.020815 4.880082 -17.012978 0 CFG=1
M  V30 4 C 9.069038 3.990226 -10.842255 0
M  V30 5 F 11.208879 6.260944 -5.853979 0
M  V30 6 C 7.319590 4.918518 -13.154553 0
M  V30 7 C 11.376965 8.915644 -8.134935 0
M  V30 8 C 8.487941 5.496249 -9.153952 0
M  V30 9 C 10.626258 6.493463 -8.107502 0 CFG=1
M  V30 10 C 9.623757 4.640664 -17.674623 0
M  V30 11 C 7.725084 2.647253 -14.075056 0 CFG=2
M  V30 12 C 6.589953 -0.200306 -14.214553 0
M  V30 13 C 8.163151 4.665042 -18.022665 0 CFG=1
M  V30 14 O 8.322915 5.079633 -10.503204 0
M  V30 15 C 10.202409 6.661195 -6.633565 0 CFG=2
M  V30 16 C 7.220681 3.533896 -17.683880 0 CFG=1
M  V30 17 N 7.133849 4.509107 -15.575232 0 CFG=1 CHG=1
M  V30 18 C 9.487079 6.660007 -9.123042 0
M  V30 19 C 6.228161 0.979916 -13.302241 0
M  V30 20 C 7.936858 3.296391 -15.439494 0 CFG=2
M  V30 21 O 5.563620 -0.409758 -15.158452 0
M  V30 22 C 11.775390 7.467941 -8.434428 0
M  V30 23 N 10.215837 5.590230 -16.898658 0
M  V30 24 C 7.472754 5.533161 -14.570261 0
M  V30 25 N 10.426473 3.678945 -18.133761 0
M  V30 26 O 11.692739 4.027182 -17.634912 0
M  V30 27 C 11.465591 5.162118 -16.946850 0
M  V30 28 O 6.410637 2.210079 -13.987896 0
M  V30 29 N 12.592884 5.737643 -16.385055 0
M  V30 30 C 8.917511 3.322589 -12.002772 0
M  V30 31 C 9.900490 8.117471 -6.258239 0
M  V30 32 C 13.984386 5.326266 -16.394752 0
M  V30 33 C 7.573127 2.462010 -16.667511 0
M  V30 34 H 11.925489 8.830099 -6.049950 0
M  V30 35 H 10.776807 10.089100 -6.385020 0
M  V30 36 H 6.141501 5.465457 -17.272612 0
M  V30 37 H 9.775690 3.717281 -10.078305 0
M  V30 38 H 6.267280 4.759904 -12.916691 0
M  V30 39 H 7.682677 5.682588 -12.477074 0
M  V30 40 H 12.175837 9.589608 -8.423081 0
M  V30 41 H 10.522237 9.190238 -8.749937 0
M  V30 42 H 7.516750 5.808203 -8.783605 0
M  V30 43 H 8.784166 4.684424 -8.486563 0
M  V30 44 H 10.975423 5.470810 -8.221404 0
M  V30 45 H 8.414769 1.808810 -13.966132 0
M  V30 46 H 6.652004 -1.100534 -13.605532 0
M  V30 47 H 7.550081 -0.081025 -14.715616 0
M  V30 48 H 8.040778 5.126730 -19.000409 0
M  V30 49 H 9.352425 6.021304 -6.391766 0
M  V30 50 H 6.528704 3.230921 -18.467212 0
M  V30 51 H 9.919278 6.758606 -10.119062 0
M  V30 52 H 8.975404 7.601548 -8.951460 0
M  V30 53 H 5.188239 0.891595 -12.991277 0
M  V30 54 H 6.827753 0.962754 -12.390804 0
M  V30 55 H 8.975529 3.590176 -15.480907 0
M  V30 56 H 4.974865 -1.043994 -14.764055 0
M  V30 57 H 12.639607 7.218595 -7.822135 0
M  V30 58 H 12.085791 7.364704 -9.474567 0
M  V30 59 H 6.817521 6.398228 -14.681410 0
M  V30 60 H 8.495789 5.878072 -14.726065 0
M  V30 61 H 12.421159 6.592126 -15.876969 0
M  V30 62 H 9.515876 2.447338 -12.209746 0
M  V30 63 H 9.775428 8.161391 -5.185025 0
M  V30 64 H 8.962091 8.439522 -6.712734 0
M  V30 65 H 14.621291 6.116758 -15.996961 0
M  V30 66 H 14.118597 4.433024 -15.783867 0
M  V30 67 H 14.308599 5.101360 -17.411017 0
M  V30 68 H 6.698706 1.833235 -16.498163 0
M  V30 69 H 8.394563 1.832576 -17.011786 0
M  V30 70 H 6.207093 4.197960 -15.315861 0
M  V30 END ATOM
M  V30 BEGIN BOND
M  V30 1 1 6 2
M  V30 2 1 7 1
M  V30 3 1 11 2
M  V30 4 1 13 3
M  V30 5 1 13 10
M  V30 6 1 14 4
M  V30 7 1 14 8
M  V30 8 1 15 5
M  V30 9 1 15 9
M  V30 10 1 16 3
M  V30 11 1 16 13
M  V30 12 1 17 3
M  V30 13 1 18 8
M  V30 14 1 18 9
M  V30 15 1 19 12
M  V30 16 1 20 11
M  V30 17 1 20 17
M  V30 18 1 21 12
M  V30 19 1 22 7
M  V30 20 1 22 9
M  V30 21 1 23 10
M  V30 22 1 24 6
M  V30 23 1 24 17
M  V30 24 2 25 10
M  V30 25 1 26 25
M  V30 26 2 27 23
M  V30 27 1 27 26
M  V30 28 1 28 11
M  V30 29 1 28 19
M  V30 30 1 29 27
M  V30 31 1 30 2
M  V30 32 2 30 4
M  V30 33 1 31 1
M  V30 34 1 31 15
M  V30 35 1 32 29
M  V30 36 1 33 16
M  V30 37 1 33 20
M  V30 38 1 34 1
M  V30 39 1 35 1
M  V30 40 1 3 36 CFG=1
M  V30 41 1 37 4
M  V30 42 1 38 6
M  V30 43 1 39 6
M  V30 44 1 40 7
M  V30 45 1 41 7
M  V30 46 1 42 8
M  V30 47 1 43 8
M  V30 48 1 9 44 CFG=1
M  V30 49 1 11 45 CFG=1
M  V30 50 1 46 12
M  V30 51 1 47 12
M  V30 52 1 13 48 CFG=3
M  V30 53 1 15 49 CFG=3
M  V30 54 1 16 50 CFG=3
M  V30 55 1 51 18
M  V30 56 1 52 18
M  V30 57 1 53 19
M  V30 58 1 54 19
M  V30 59 1 20 55 CFG=3
M  V30 60 1 56 21
M  V30 61 1 57 22
M  V30 62 1 58 22
M  V30 63 1 59 24
M  V30 64 1 60 24
M  V30 65 1 61 29
M  V30 66 1 62 30
M  V30 67 1 63 31
M  V30 68 1 64 31
M  V30 69 1 65 32
M  V30 70 1 66 32
M  V30 71 1 67 32
M  V30 72 1 68 33
M  V30 73 1 69 33
M  V30 74 1 17 70 CFG=1
M  V30 END BOND
M  V30 END CTAB
M  END
>  <i_epik_Tot_Q>  (1) 
1

>  <i_epik_Tot_abs_Q>  (1) 
1

>  <i_i_glide_confnum>  (1) 
497

>  <i_i_glide_lignum>  (1) 
4

>  <i_i_glide_posenum>  (1) 
67

>  <i_i_glide_rotatable_bonds>  (1) 
11

>  <i_lp_mmshare_version>  (1) 
72125

>  <i_m_source_file_index>  (1) 
1

>  <i_f3d_flags>  (1) 
0

>  <num_sample>  (1) 
50

>  <b_lp_Chiralities_Consistent>  (1) 
1

>  <r_epik_Charging_Adjusted_Penalty>  (1) 
0.41344222577729461

>  <r_epik_Ionization_Penalty>  (1) 
0.0027644559619576371

>  <r_epik_Ionization_Penalty_Charging>  (1) 
0.0027623868246906495

>  <r_epik_Ionization_Penalty_Neutral>  (1) 
2.0691372669875143e-06

>  <r_epik_State_Penalty>  (1) 
0.41067983895260396

>  <r_glide_ring_energy>  (1) 
1.2887488819257875

>  <r_i_docking_score>  (1) 
-4.713012745534324

>  <r_i_glide_ecoul>  (1) 
-2.5042770780889407

>  <r_i_glide_eff_state_penalty>  (1) 
0.41067983895260396

>  <r_i_glide_einternal>  (1) 
13.654363467219815

>  <r_i_glide_emodel>  (1) 
-34.747825599014973

>  <r_i_glide_emodel_strain>  (1) 
2.0493430950290445

>  <r_i_glide_energy>  (1) 
-34.037806603852488

>  <r_i_glide_erotb>  (1) 
0.74142510397790429

>  <r_i_glide_esite>  (1) 
0

>  <r_i_glide_evdw>  (1) 
-31.533529525763544

>  <r_i_glide_gscore>  (1) 
-5.1236925844869283

>  <r_i_glide_gscore_strain>  (1) 
0

>  <r_i_glide_hbond>  (1) 
-0.13784197444320082

>  <r_i_glide_ligand_efficiency>  (1) 
-0.14281856804649468

>  <r_i_glide_ligand_efficiency_ln>  (1) 
-1.0481496319328403

>  <r_i_glide_ligand_efficiency_sa>  (1) 
-0.45809545996997664

>  <r_i_glide_lipo>  (1) 
-2.1183143083999165

>  <r_i_glide_metal>  (1) 
-0

>  <r_i_glide_rewards>  (1) 
-1.6566433676201966

>  <r_lp_Energy>  (1) 
41.409427000000001

>  <r_lp_tautomer_probability>  (1) 
0.5

>  <s_epik_Chemistry_Notes>  (1) 
This compound has an imine and may undergo hydrolysis. This compound contains an acetal/aminal-like group ( X-CH(R)-Y where X, Y are N, S, or O) that may be acid/base labile, releasing an aldehyde.

>  <s_epik_cmdline>  (1) 
J2VwaWtfcHl0aG9uJywgJy1waHQnLCAnMS4wJywgJy1waCcsICc3LjQnLCAnLXRuJywgJzgnLCAnLW1hJywgJzUwMCcsICctaW1hZScsICc8aW5maWxlLm1hZT4nLCAnLW9tYWUnLCAnPG91dGZpbGUubWFlPic=

>  <s_epik_input>  (1) 
W0NIMl0xW0NIMl1bQ0gyXVtDSDJdW0NASF0oRilbQ0BIXTFbQ0gyXVtDSDJdTy9bQ0hdPVtDSF1cTihbQ0BIXTJPW0NIMl1bQ0gyXVtPSF0pW0NIMl1bQ0gyXU4zW0NAQEhdMltDSDJdW0NAQEhdKFtDQEBIXTM0KVtDQEBIXTRjNW5jKG9uNSlbTkhdW0NIM10=

>  <s_glide_docking_method>  (1) 
confgen

>  <s_i_glide_gridfile>  (1) 
gpcr_drd2_6luq_protein_autoprepared_prepared

>  <s_lp_Force_Field>  (1) 
S-OPLS

>  <s_lp_Variant>  (1) 
DiffSBDD_0-4

>  <s_m_source_file>  (1) 
generated_generic_title2_ligand_DiffSBDD_2026-06-23_prepared.sdf

>  <GenAI_Model>  (1) 
DiffSBDD

>  <Protein>  (1) 
generic_title2

$$$$
DiffSBDD_28
     RDKit          3D

  0  0  0  0  0  0  0  0  0  0999 V3000
M  V30 BEGIN CTAB
M  V30 COUNTS 78 85 0 0 1
M  V30 BEGIN ATOM
M  V30 1 F 6.477355 -0.439838 -16.754630 0
M  V30 2 C 11.232163 7.286971 -7.259693 0 CFG=1
M  V30 3 C 9.475696 6.552188 -10.286602 0 CFG=2
M  V30 4 C 11.162797 8.546598 -4.786127 0 CFG=2
M  V30 5 C 8.271695 4.126231 -14.070890 0 CFG=1
M  V30 6 C 11.451489 5.992261 -6.472895 0
M  V30 7 C 7.952842 5.886718 -12.166666 0 CFG=2
M  V30 8 C 7.428211 3.292412 -16.924074 0 CFG=1
M  V30 9 C 9.476998 8.072998 -10.199412 0
M  V30 10 C 6.947302 4.466139 -14.728036 0 CFG=1
M  V30 11 C 12.356341 9.182380 -7.110271 0 CFG=1
M  V30 12 C 7.977967 4.785257 -9.892765 0
M  V30 13 C 11.384676 8.445859 -6.266925 0 CFG=1
M  V30 14 O 13.511952 9.590115 -6.403420 0
M  V30 15 C 7.222397 0.664163 -17.120337 0 CFG=1
M  V30 16 C 8.753601 4.769812 -12.804816 0 CFG=1
M  V30 17 O 8.141700 3.481542 -12.792952 0
M  V30 18 N 8.173886 5.990065 -10.701334 0 CFG=1 CHG=1
M  V30 19 O 11.738524 9.329946 -2.483500 0
M  V30 20 C 7.907529 0.566031 -18.424796 0
M  V30 21 O 10.246987 9.123691 -5.753385 0
M  V30 22 C 6.263218 5.699543 -14.066572 0
M  V30 23 C 12.397438 7.968069 -8.044092 0
M  V30 24 N 9.908858 7.201526 -7.940673 0
M  V30 25 C 11.847265 9.567703 -3.875601 0
M  V30 26 N 8.842861 3.536058 -17.291599 0 CHG=1
M  V30 27 C 6.459549 5.782299 -12.537490 0
M  V30 28 C 9.064235 4.989489 -17.326591 0
M  V30 29 C 7.771781 5.589752 -16.778920 0
M  V30 30 O 8.210723 1.435125 -19.241321 0
M  V30 31 C 8.529068 5.165581 -8.522962 0
M  V30 32 C 7.177625 1.915980 -16.247872 0
M  V30 33 O 8.638351 0.317969 -17.378294 0
M  V30 34 N 6.989253 4.509030 -16.206292 0
M  V30 35 C 9.520335 8.389095 -8.700156 0
M  V30 36 C 12.656510 8.387833 -1.964297 0
M  V30 37 C 9.726740 6.062120 -8.850405 0 CFG=1
M  V30 38 H 10.263415 6.213237 -10.954929 0
M  V30 39 H 10.918391 7.577541 -4.369264 0
M  V30 40 H 8.975388 3.609124 -14.694450 0
M  V30 41 H 12.175552 6.084831 -5.674026 0
M  V30 42 H 10.526879 5.693920 -5.979442 0
M  V30 43 H 11.773610 5.171494 -7.101734 0
M  V30 44 H 8.315596 6.818132 -12.602225 0
M  V30 45 H 6.886339 3.291438 -17.868504 0
M  V30 46 H 8.635103 8.549396 -10.704997 0
M  V30 47 H 10.381194 8.444178 -10.678586 0
M  V30 48 H 6.288973 3.639057 -14.465132 0
M  V30 49 H 11.859262 9.999145 -7.605468 0
M  V30 50 H 8.587724 3.989830 -10.317210 0
M  V30 51 H 6.938287 4.464225 -9.867386 0
M  V30 52 H 14.097867 9.992063 -7.025254 0
M  V30 53 H 9.826444 4.756874 -12.628317 0
M  V30 54 H 5.195959 5.678710 -14.294005 0
M  V30 55 H 6.624191 6.635562 -14.488925 0
M  V30 56 H 12.186549 8.211785 -9.083625 0
M  V30 57 H 13.370042 7.500554 -7.976999 0
M  V30 58 H 12.903191 9.667139 -4.103844 0
M  V30 59 H 11.373826 10.526912 -4.079959 0
M  V30 60 H 9.038877 3.113754 -18.190668 0
M  V30 61 H 6.013308 4.908775 -12.062316 0
M  V30 62 H 5.921010 6.645854 -12.145913 0
M  V30 63 H 9.259923 5.323261 -18.347863 0
M  V30 64 H 9.925586 5.254387 -16.712682 0
M  V30 65 H 7.211379 6.046884 -17.595757 0
M  V30 66 H 7.973833 6.368181 -16.046656 0
M  V30 67 H 8.816270 4.294108 -7.935456 0
M  V30 68 H 7.776651 5.718833 -7.960739 0
M  V30 69 H 7.833331 1.753668 -15.392638 0
M  V30 70 H 6.175733 1.937768 -15.837225 0
M  V30 71 H 8.575410 8.773694 -8.331265 0
M  V30 72 H 10.215904 9.190081 -8.554520 0
M  V30 73 H 12.562145 8.386025 -0.878986 0
M  V30 74 H 12.454697 7.381804 -2.332964 0
M  V30 75 H 13.688165 8.654242 -2.197181 0
M  V30 76 H 10.581174 5.404765 -8.852477 0
M  V30 77 H 7.509733 6.673375 -10.315863 0
M  V30 78 H 9.458992 3.129720 -16.603336 0
M  V30 END ATOM
M  V30 BEGIN BOND
M  V30 1 1 2 6 CFG=1
M  V30 2 1 9 3
M  V30 3 1 10 5
M  V30 4 1 13 2
M  V30 5 1 13 4
M  V30 6 1 13 11
M  V30 7 1 14 11
M  V30 8 1 15 1 CFG=3
M  V30 9 1 16 5
M  V30 10 1 16 7
M  V30 11 1 17 5
M  V30 12 1 17 16
M  V30 13 1 18 3
M  V30 14 1 18 7
M  V30 15 1 18 12
M  V30 16 1 20 15
M  V30 17 1 21 4
M  V30 18 1 13 21 CFG=3
M  V30 19 1 22 10
M  V30 20 1 23 2
M  V30 21 1 23 11
M  V30 22 1 24 2
M  V30 23 1 25 4
M  V30 24 1 25 19
M  V30 25 1 26 8
M  V30 26 1 27 7
M  V30 27 1 27 22
M  V30 28 1 28 26
M  V30 29 1 29 28
M  V30 30 2 30 20
M  V30 31 1 31 12
M  V30 32 1 32 8
M  V30 33 1 32 15
M  V30 34 1 33 15
M  V30 35 1 33 20
M  V30 36 1 34 8
M  V30 37 1 34 10
M  V30 38 1 34 29
M  V30 39 1 35 9
M  V30 40 1 35 24
M  V30 41 1 36 19
M  V30 42 1 37 3
M  V30 43 1 37 24
M  V30 44 1 37 31
M  V30 45 1 3 38 CFG=3
M  V30 46 1 4 39 CFG=1
M  V30 47 1 5 40 CFG=3
M  V30 48 1 41 6
M  V30 49 1 42 6
M  V30 50 1 43 6
M  V30 51 1 7 44 CFG=3
M  V30 52 1 8 45 CFG=3
M  V30 53 1 46 9
M  V30 54 1 47 9
M  V30 55 1 10 48 CFG=3
M  V30 56 1 11 49 CFG=3
M  V30 57 1 50 12
M  V30 58 1 51 12
M  V30 59 1 52 14
M  V30 60 1 16 53 CFG=3
M  V30 61 1 54 22
M  V30 62 1 55 22
M  V30 63 1 56 23
M  V30 64 1 57 23
M  V30 65 1 58 25
M  V30 66 1 59 25
M  V30 67 1 60 26
M  V30 68 1 61 27
M  V30 69 1 62 27
M  V30 70 1 63 28
M  V30 71 1 64 28
M  V30 72 1 65 29
M  V30 73 1 66 29
M  V30 74 1 67 31
M  V30 75 1 68 31
M  V30 76 1 69 32
M  V30 77 1 70 32
M  V30 78 1 71 35
M  V30 79 1 72 35
M  V30 80 1 73 36
M  V30 81 1 74 36
M  V30 82 1 75 36
M  V30 83 1 37 76 CFG=3
M  V30 84 1 18 77 CFG=1
M  V30 85 1 78 26
M  V30 END BOND
M  V30 END CTAB
M  END
>  <i_epik_Tot_Q>  (1) 
2

>  <i_epik_Tot_abs_Q>  (1) 
2

>  <i_i_glide_confnum>  (1) 
62

>  <i_i_glide_lignum>  (1) 
86

>  <i_i_glide_posenum>  (1) 
390

>  <i_i_glide_rotatable_bonds>  (1) 
8

>  <i_lp_mmshare_version>  (1) 
72125

>  <i_m_source_file_index>  (1) 
29

>  <i_f3d_flags>  (1) 
0

>  <num_sample>  (1) 
50

>  <b_lp_Chiralities_Consistent>  (1) 
1

>  <r_epik_Charging_Adjusted_Penalty>  (1) 
1.0492181154286748

>  <r_epik_Ionization_Penalty>  (1) 
0.8301501805432685

>  <r_epik_Ionization_Penalty_Charging>  (1) 
0.211122083805314

>  <r_epik_Ionization_Penalty_Neutral>  (1) 
0.61902809673795445

>  <r_epik_State_Penalty>  (1) 
0.83809603162336077

>  <r_glide_ring_energy>  (1) 
0.81914574756082614

>  <r_i_docking_score>  (1) 
-4.7073845659774838

>  <r_i_glide_ecoul>  (1) 
-6.5959625500749652

>  <r_i_glide_eff_state_penalty>  (1) 
0.83809603162336077

>  <r_i_glide_einternal>  (1) 
11.340495548941696

>  <r_i_glide_emodel>  (1) 
-32.322336027817968

>  <r_i_glide_emodel_strain>  (1) 
1.0093331878792355

>  <r_i_glide_energy>  (1) 
-35.096058237426149

>  <r_i_glide_erotb>  (1) 
0.44856850619138583

>  <r_i_glide_esite>  (1) 
-0.099263346205347769

>  <r_i_glide_evdw>  (1) 
-28.50009568735118

>  <r_i_glide_gscore>  (1) 
-5.5454805976008448

>  <r_i_glide_gscore_strain>  (1) 
0

>  <r_i_glide_hbond>  (1) 
-0.20000000000000001

>  <r_i_glide_ligand_efficiency>  (1) 
-0.12722660989128334

>  <r_i_glide_ligand_efficiency_ln>  (1) 
-1.0209213556087662

>  <r_i_glide_ligand_efficiency_sa>  (1) 
-0.4239472895905696

>  <r_i_glide_lipo>  (1) 
-2.4507104906902097

>  <r_i_glide_metal>  (1) 
-0

>  <r_i_glide_rewards>  (1) 
-0.82967610001786807

>  <r_lp_Energy>  (1) 
60.259107999999998

>  <s_epik_Chemistry_Notes>  (1) 
This compound has an ester and may undergo hydrolysis at high or low pH. This compound contains an acetal/aminal-like group ( X-CH(R)-Y where X, Y are N, S, or O) that may be acid/base labile, releasing an aldehyde.

>  <s_epik_cmdline>  (1) 
J2VwaWtfcHl0aG9uJywgJy1waHQnLCAnMS4wJywgJy1waCcsICc3LjQnLCAnLXRuJywgJzgnLCAnLW1hJywgJzUwMCcsICctaW1hZScsICc8aW5maWxlLm1hZT4nLCAnLW9tYWUnLCAnPG91dGZpbGUubWFlPic=

>  <s_epik_input>  (1) 
Tz1DKE8xKUMxKEYpW0NIMl1bQ0BASF0yW05IXVtDSDJdW0NIMl1OMltDQEBIXTNbQ0gyXVtDSDJdW0NASF0oW0NAQEhdKE80KVtDQEhdMzQpTjVbQ0gyXVtDSDJdW0NAQEhdKFtDQEhdNTYpTihbQ0gyXVtDSDJdNilbQ0BAXShbQ0gzXSkoW0NIMl1bQ0BASF03W09IXSlbQ0BAXTc4W0NASF0oTzgpW0NIMl1PW0NIM10=

>  <s_glide_docking_method>  (1) 
confgen

>  <s_i_glide_gridfile>  (1) 
gpcr_drd2_6luq_protein_autoprepared_prepared

>  <s_lp_Force_Field>  (1) 
S-OPLS

>  <s_lp_Variant>  (1) 
DiffSBDD_28-9

>  <s_m_source_file>  (1) 
generated_generic_title2_ligand_DiffSBDD_2026-06-23_prepared.sdf

>  <GenAI_Model>  (1) 
DiffSBDD

>  <Protein>  (1) 
generic_title2

$$$$
DiffSBDD_0
     RDKit          3D

  0  0  0  0  0  0  0  0  0  0999 V3000
M  V30 BEGIN CTAB
M  V30 COUNTS 70 74 0 0 1
M  V30 BEGIN ATOM
M  V30 1 C 10.114217 6.876254 -5.878771 0
M  V30 2 N 8.023709 4.497508 -13.965714 0
M  V30 3 C 7.547998 3.960622 -18.151099 0 CFG=1
M  V30 4 C 9.182809 6.062941 -12.492372 0
M  V30 5 F 12.148515 8.898050 -6.545407 0
M  V30 6 C 7.162768 5.492561 -14.620743 0
M  V30 7 C 9.074661 7.282385 -6.922870 0
M  V30 8 C 9.985192 7.436191 -10.748934 0
M  V30 9 C 10.922030 8.244971 -8.429099 0 CFG=1
M  V30 10 C 10.192758 4.213657 -18.303733 0
M  V30 11 C 7.932732 3.140384 -14.514729 0 CFG=2
M  V30 12 C 6.341228 0.630358 -13.146228 0
M  V30 13 C 8.890013 3.694353 -18.841259 0 CFG=1
M  V30 14 O 10.173336 6.305343 -11.585734 0
M  V30 15 C 11.948196 7.849695 -7.347846 0 CFG=2
M  V30 16 C 8.096252 2.552500 -18.222640 0 CFG=1
M  V30 17 N 7.460086 4.177654 -16.683320 0 CFG=1 CHG=1
M  V30 18 C 10.909973 7.190572 -9.553986 0
M  V30 19 C 6.175394 2.157760 -13.254887 0
M  V30 20 C 8.371097 3.266406 -15.979056 0 CFG=2
M  V30 21 O 5.256668 -0.009749 -13.788196 0
M  V30 22 C 9.556369 8.480389 -7.752735 0
M  V30 23 N 10.408154 5.533456 -18.027521 0
M  V30 24 C 7.467510 5.551310 -16.137758 0
M  V30 25 N 11.218004 3.392942 -18.068981 0
M  V30 26 O 12.213132 4.234745 -17.546038 0
M  V30 27 C 11.646854 5.456751 -17.567239 0
M  V30 28 O 6.641332 2.633817 -14.508485 0
M  V30 29 N 12.453239 6.479234 -17.095232 0
M  V30 30 C 8.993370 4.840197 -13.023740 0
M  V30 31 C 11.478777 6.629647 -6.515453 0
M  V30 32 C 13.806901 6.467979 -16.573789 0
M  V30 33 C 8.358418 1.999724 -16.829131 0
M  V30 34 H 10.207405 7.675431 -5.145682 0
M  V30 35 H 9.780833 5.990944 -5.337089 0
M  V30 36 H 6.652218 4.207136 -18.718093 0
M  V30 37 H 8.600356 6.942848 -12.720988 0
M  V30 38 H 6.125313 5.194396 -14.464900 0
M  V30 39 H 7.248195 6.488198 -14.192172 0
M  V30 40 H 8.175294 7.563089 -6.385244 0
M  V30 41 H 8.815970 6.442285 -7.568365 0
M  V30 42 H 10.226456 8.361187 -11.271216 0
M  V30 43 H 8.955774 7.496385 -10.410099 0
M  V30 44 H 11.243819 9.187717 -8.874957 0
M  V30 45 H 8.575462 2.467030 -13.948248 0
M  V30 46 H 6.324358 0.332763 -12.097245 0
M  V30 47 H 7.291091 0.293405 -13.562853 0
M  V30 48 H 8.899982 3.755557 -19.927623 0
M  V30 49 H 12.916339 7.644601 -7.804860 0
M  V30 50 H 7.639025 1.855151 -18.922484 0
M  V30 51 H 10.644339 6.218224 -9.141751 0
M  V30 52 H 11.927386 7.105107 -9.935543 0
M  V30 53 H 5.126627 2.436412 -13.185060 0
M  V30 54 H 6.681599 2.660020 -12.428710 0
M  V30 55 H 9.374936 3.687923 -15.980058 0
M  V30 56 H 5.258028 -0.951148 -13.585136 0
M  V30 57 H 9.652880 9.312893 -7.062787 0
M  V30 58 H 8.810316 8.790502 -8.479280 0
M  V30 59 H 6.736043 6.171853 -16.656386 0
M  V30 60 H 8.450045 5.989995 -16.295033 0
M  V30 61 H 12.030658 7.396285 -17.118360 0
M  V30 62 H 9.620949 4.008063 -12.735580 0
M  V30 63 H 12.175397 6.389872 -5.718343 0
M  V30 64 H 11.430721 5.735553 -7.135887 0
M  V30 65 H 14.145487 7.486470 -16.383565 0
M  V30 66 H 13.851949 5.904928 -15.640645 0
M  V30 67 H 14.488100 6.008233 -17.290183 0
M  V30 68 H 7.543823 1.329364 -16.550286 0
M  V30 69 H 9.297845 1.447460 -16.785675 0
M  V30 70 H 6.553258 3.811519 -16.427785 0
M  V30 END ATOM
M  V30 BEGIN BOND
M  V30 1 1 6 2
M  V30 2 1 7 1
M  V30 3 1 11 2
M  V30 4 1 13 3
M  V30 5 1 13 10
M  V30 6 1 14 4
M  V30 7 1 14 8
M  V30 8 1 15 5
M  V30 9 1 15 9
M  V30 10 1 16 3
M  V30 11 1 16 13
M  V30 12 1 17 3
M  V30 13 1 18 8
M  V30 14 1 18 9
M  V30 15 1 19 12
M  V30 16 1 20 11
M  V30 17 1 20 17
M  V30 18 1 21 12
M  V30 19 1 22 7
M  V30 20 1 22 9
M  V30 21 1 23 10
M  V30 22 1 24 6
M  V30 23 1 24 17
M  V30 24 2 25 10
M  V30 25 1 26 25
M  V30 26 2 27 23
M  V30 27 1 27 26
M  V30 28 1 28 11
M  V30 29 1 28 19
M  V30 30 1 29 27
M  V30 31 1 30 2
M  V30 32 2 30 4
M  V30 33 1 31 1
M  V30 34 1 31 15
M  V30 35 1 32 29
M  V30 36 1 33 16
M  V30 37 1 33 20
M  V30 38 1 34 1
M  V30 39 1 35 1
M  V30 40 1 3 36 CFG=3
M  V30 41 1 37 4
M  V30 42 1 38 6
M  V30 43 1 39 6
M  V30 44 1 40 7
M  V30 45 1 41 7
M  V30 46 1 42 8
M  V30 47 1 43 8
M  V30 48 1 9 44 CFG=3
M  V30 49 1 11 45 CFG=1
M  V30 50 1 46 12
M  V30 51 1 47 12
M  V30 52 1 13 48 CFG=3
M  V30 53 1 15 49 CFG=3
M  V30 54 1 16 50 CFG=3
M  V30 55 1 51 18
M  V30 56 1 52 18
M  V30 57 1 53 19
M  V30 58 1 54 19
M  V30 59 1 20 55 CFG=1
M  V30 60 1 56 21
M  V30 61 1 57 22
M  V30 62 1 58 22
M  V30 63 1 59 24
M  V30 64 1 60 24
M  V30 65 1 61 29
M  V30 66 1 62 30
M  V30 67 1 63 31
M  V30 68 1 64 31
M  V30 69 1 65 32
M  V30 70 1 66 32
M  V30 71 1 67 32
M  V30 72 1 68 33
M  V30 73 1 69 33
M  V30 74 1 17 70 CFG=1
M  V30 END BOND
M  V30 END CTAB
M  END
>  <i_epik_Tot_Q>  (1) 
1

>  <i_epik_Tot_abs_Q>  (1) 
1

>  <i_i_glide_confnum>  (1) 
101

>  <i_i_glide_lignum>  (1) 
2

>  <i_i_glide_posenum>  (1) 
201

>  <i_i_glide_rotatable_bonds>  (1) 
11

>  <i_lp_mmshare_version>  (1) 
72125

>  <i_m_source_file_index>  (1) 
1

>  <i_f3d_flags>  (1) 
0

>  <num_sample>  (1) 
50

>  <b_lp_Chiralities_Consistent>  (1) 
1

>  <r_epik_Charging_Adjusted_Penalty>  (1) 
0.41344222577729461

>  <r_epik_Ionization_Penalty>  (1) 
0.0027644559619576371

>  <r_epik_Ionization_Penalty_Charging>  (1) 
0.0027623868246906495

>  <r_epik_Ionization_Penalty_Neutral>  (1) 
2.0691372669875143e-06

>  <r_epik_State_Penalty>  (1) 
0.41067983895260396

>  <r_glide_ring_energy>  (1) 
1.3007136337365988

>  <r_i_docking_score>  (1) 
-4.6993059394684247

>  <r_i_glide_ecoul>  (1) 
-5.2006386016996764

>  <r_i_glide_eff_state_penalty>  (1) 
0.41067983895260396

>  <r_i_glide_einternal>  (1) 
6.0469611518698709

>  <r_i_glide_emodel>  (1) 
-45.184096112007424

>  <r_i_glide_emodel_strain>  (1) 
0.1374455372863963

>  <r_i_glide_energy>  (1) 
-36.13512380716314

>  <r_i_glide_erotb>  (1) 
0.74142510397790429

>  <r_i_glide_esite>  (1) 
0

>  <r_i_glide_evdw>  (1) 
-30.934485205463467

>  <r_i_glide_gscore>  (1) 
-5.109985778421029

>  <r_i_glide_gscore_strain>  (1) 
0

>  <r_i_glide_hbond>  (1) 
-0.16

>  <r_i_glide_ligand_efficiency>  (1) 
-0.14240321028692196

>  <r_i_glide_ligand_efficiency_ln>  (1) 
-1.0451013092338279

>  <r_i_glide_ligand_efficiency_sa>  (1) 
-0.45676318569691704

>  <r_i_glide_lipo>  (1) 
-2.1574003166105657

>  <r_i_glide_metal>  (1) 
-0

>  <r_i_glide_rewards>  (1) 
-1.2071905152602427

>  <r_lp_Energy>  (1) 
46.492728

>  <r_lp_tautomer_probability>  (1) 
0.5

>  <s_epik_Chemistry_Notes>  (1) 
This compound has an imine and may undergo hydrolysis. This compound contains an acetal/aminal-like group ( X-CH(R)-Y where X, Y are N, S, or O) that may be acid/base labile, releasing an aldehyde.

>  <s_epik_cmdline>  (1) 
J2VwaWtfcHl0aG9uJywgJy1waHQnLCAnMS4wJywgJy1waCcsICc3LjQnLCAnLXRuJywgJzgnLCAnLW1hJywgJzUwMCcsICctaW1hZScsICc8aW5maWxlLm1hZT4nLCAnLW9tYWUnLCAnPG91dGZpbGUubWFlPic=

>  <s_epik_input>  (1) 
W0NIMl0xW0NIMl1bQ0gyXVtDSDJdW0NASF0oRilbQ0BIXTFbQ0gyXVtDSDJdTy9bQ0hdPVtDSF0vTihbQ0BIXTJPW0NIMl1bQ0gyXVtPSF0pW0NIMl1bQ0gyXU4zW0NAQEhdMltDSDJdW0NAQEhdKFtDQEBIXTM0KVtDQEBIXTRjNW5jKG9uNSlbTkhdW0NIM10=

>  <s_glide_docking_method>  (1) 
confgen

>  <s_i_glide_gridfile>  (1) 
gpcr_drd2_6luq_protein_autoprepared_prepared

>  <s_lp_Force_Field>  (1) 
S-OPLS

>  <s_lp_Variant>  (1) 
DiffSBDD_0-2

>  <s_m_source_file>  (1) 
generated_generic_title2_ligand_DiffSBDD_2026-06-23_prepared.sdf

>  <GenAI_Model>  (1) 
DiffSBDD

>  <Protein>  (1) 
generic_title2

$$$$
DiffSBDD_44
     RDKit          3D

  0  0  0  0  0  0  0  0  0  0999 V3000
M  V30 BEGIN CTAB
M  V30 COUNTS 61 63 0 0 1
M  V30 BEGIN ATOM
M  V30 1 C 5.606342 3.082199 -20.558380 0
M  V30 2 C 7.935742 3.987561 -14.333795 0
M  V30 3 O 7.394916 4.130186 -22.887288 0
M  V30 4 O 4.575411 3.704433 -20.820937 0
M  V30 5 O 8.148894 1.317797 -15.155103 0
M  V30 6 C 7.207276 2.294560 -18.461199 0 CFG=2
M  V30 7 C 7.871259 3.486795 -21.723370 0
M  V30 8 C 8.603105 6.119579 -11.107609 0
M  V30 9 C 9.462615 4.674823 -17.380181 0
M  V30 10 C 6.685369 1.126229 -19.307878 0
M  V30 11 C 7.047491 5.330422 -16.885484 0
M  V30 12 C 5.279332 7.230537 -19.597046 0
M  V30 13 O 7.731960 3.304937 -19.339685 0
M  V30 14 C 6.067026 5.990802 -19.132107 0 CFG=1
M  V30 15 C 5.588440 1.564452 -20.294099 0 CFG=1
M  V30 16 N 8.975391 6.390216 -8.592369 0 CHG=1
M  V30 17 F 9.400950 8.248068 -10.386544 0
M  V30 18 C 7.724163 3.223752 -13.185011 0
M  V30 19 S 8.078385 5.692890 -13.882216 0
M  V30 20 O 4.346223 1.157380 -19.778462 0
M  V30 21 C 8.964632 7.411013 -11.343240 0
M  V30 22 C 6.819986 5.353512 -20.342408 0 CFG=1
M  V30 23 C 8.116841 4.543453 -16.656857 0
M  V30 24 C 8.657446 5.480480 -9.707870 0
M  V30 25 C 8.141424 5.237649 -12.204251 0
M  V30 26 N 7.754943 3.990189 -12.010967 0
M  V30 27 C 6.981777 6.394760 -17.946838 0
M  V30 28 F 8.927135 7.990014 -12.551896 0
M  V30 29 C 8.175418 2.223014 -15.986610 0
M  V30 30 C 8.331267 1.856639 -17.487686 0
M  V30 31 O 8.085273 2.114806 -21.976521 0
M  V30 32 F 7.995106 5.967142 -20.509710 0
M  V30 33 N 8.081619 3.561996 -15.648757 0
M  V30 34 C 6.976490 3.791839 -20.464895 0 CFG=2
M  V30 35 H 8.121275 4.239237 -23.483195 0
M  V30 36 H 6.368759 2.708775 -17.901162 0
M  V30 37 H 8.863133 3.898875 -21.532143 0
M  V30 38 H 9.401440 4.618213 -18.462649 0
M  V30 39 H 10.207269 3.961546 -17.026514 0
M  V30 40 H 9.872556 5.658696 -17.151646 0
M  V30 41 H 7.514784 0.682438 -19.858865 0
M  V30 42 H 6.316281 0.333277 -18.654506 0
M  V30 43 H 6.149399 5.185560 -16.304311 0
M  V30 44 H 5.946034 8.006582 -19.975336 0
M  V30 45 H 4.697753 7.660444 -18.780584 0
M  V30 46 H 4.575405 6.978680 -20.390765 0
M  V30 47 H 5.317456 5.286028 -18.770689 0
M  V30 48 H 5.720426 1.040911 -21.240873 0
M  V30 49 H 8.872005 5.922499 -7.704169 0
M  V30 50 H 8.274141 7.134407 -8.657619 0
M  V30 51 H 7.589456 2.157463 -13.104495 0
M  V30 52 H 3.720549 1.167215 -20.489060 0
M  V30 53 H 6.270585 5.660952 -21.233012 0
M  V30 54 H 7.678467 5.049622 -9.491221 0
M  V30 55 H 9.374874 4.658904 -9.716733 0
M  V30 56 H 7.971428 6.696984 -18.284674 0
M  V30 57 H 6.573881 7.268559 -17.439167 0
M  V30 58 H 8.375981 0.766722 -17.500990 0
M  V30 59 H 9.313161 2.134692 -17.864528 0
M  V30 60 H 7.282745 1.738603 -22.302733 0
M  V30 61 H 9.897387 6.785364 -8.693886 0
M  V30 END ATOM
M  V30 BEGIN BOND
M  V30 1 2 4 1
M  V30 2 1 7 3
M  V30 3 1 10 6
M  V30 4 1 13 6
M  V30 5 1 14 12
M  V30 6 1 15 1
M  V30 7 1 15 10
M  V30 8 2 18 2
M  V30 9 1 19 2
M  V30 10 1 20 15
M  V30 11 2 21 8
M  V30 12 1 21 17
M  V30 13 1 22 14
M  V30 14 1 23 9
M  V30 15 2 23 11
M  V30 16 1 24 8
M  V30 17 1 24 16
M  V30 18 1 25 8
M  V30 19 1 25 19
M  V30 20 1 26 18
M  V30 21 2 26 25
M  V30 22 1 27 11
M  V30 23 1 27 14
M  V30 24 1 28 21
M  V30 25 2 29 5
M  V30 26 1 30 6
M  V30 27 1 30 29
M  V30 28 1 31 7
M  V30 29 1 32 22
M  V30 30 1 33 2
M  V30 31 1 33 23
M  V30 32 1 33 29
M  V30 33 1 34 1
M  V30 34 1 34 7 CFG=3
M  V30 35 1 34 13
M  V30 36 1 34 22
M  V30 37 1 35 3
M  V30 38 1 6 36 CFG=1
M  V30 39 1 37 7
M  V30 40 1 38 9
M  V30 41 1 39 9
M  V30 42 1 40 9
M  V30 43 1 41 10
M  V30 44 1 42 10
M  V30 45 1 43 11
M  V30 46 1 44 12
M  V30 47 1 45 12
M  V30 48 1 46 12
M  V30 49 1 14 47 CFG=1
M  V30 50 1 15 48 CFG=3
M  V30 51 1 49 16
M  V30 52 1 50 16
M  V30 53 1 51 18
M  V30 54 1 52 20
M  V30 55 1 22 53 CFG=3
M  V30 56 1 54 24
M  V30 57 1 55 24
M  V30 58 1 56 27
M  V30 59 1 57 27
M  V30 60 1 58 30
M  V30 61 1 59 30
M  V30 62 1 60 31
M  V30 63 1 61 16
M  V30 END BOND
M  V30 END CTAB
M  END
>  <i_epik_Tot_Q>  (1) 
1

>  <i_epik_Tot_abs_Q>  (1) 
1

>  <i_i_glide_confnum>  (1) 
26

>  <i_i_glide_lignum>  (1) 
121

>  <i_i_glide_posenum>  (1) 
303

>  <i_i_glide_rotatable_bonds>  (1) 
7

>  <i_lp_mmshare_version>  (1) 
72125

>  <i_m_source_file_index>  (1) 
45

>  <i_f3d_flags>  (1) 
0

>  <num_sample>  (1) 
50

>  <b_lp_Chiralities_Consistent>  (1) 
1

>  <r_epik_Charging_Adjusted_Penalty>  (1) 
1.7853739982533117

>  <r_epik_Ionization_Penalty>  (1) 
0.89286729103917917

>  <r_epik_Ionization_Penalty_Charging>  (1) 
0.89268699912665583

>  <r_epik_Ionization_Penalty_Neutral>  (1) 
0.00018029191252335439

>  <r_epik_State_Penalty>  (1) 
0.89268699912665583

>  <r_glide_ring_energy>  (1) 
0

>  <r_i_docking_score>  (1) 
-4.6811990796355873

>  <r_i_glide_ecoul>  (1) 
-8.3386254256344863

>  <r_i_glide_eff_state_penalty>  (1) 
0.89268699912665583

>  <r_i_glide_einternal>  (1) 
5.4130483383671955

>  <r_i_glide_emodel>  (1) 
-45.390267865218497

>  <r_i_glide_emodel_strain>  (1) 
2.1142355708280007

>  <r_i_glide_energy>  (1) 
-35.166557490597427

>  <r_i_glide_erotb>  (1) 
0.22329266705310716

>  <r_i_glide_esite>  (1) 
-0.22526367143874251

>  <r_i_glide_evdw>  (1) 
-26.827932064962937

>  <r_i_glide_gscore>  (1) 
-5.5738860787622428

>  <r_i_glide_gscore_strain>  (1) 
0

>  <r_i_glide_hbond>  (1) 
-0.33125240740807271

>  <r_i_glide_ligand_efficiency>  (1) 
-0.13768232587163493

>  <r_i_glide_ligand_efficiency_ln>  (1) 
-1.0342081798781497

>  <r_i_glide_ligand_efficiency_sa>  (1) 
-0.4460372877210807

>  <r_i_glide_lipo>  (1) 
-1.3287830774337261

>  <r_i_glide_metal>  (1) 
-0

>  <r_i_glide_rewards>  (1) 
-1.3196891724414881

>  <r_lp_Energy>  (1) 
47.678134

>  <s_epik_Chemistry_Notes>  (1) 
This compound contains an acetal/aminal-like group ( X-CH(R)-Y where X, Y are N, S, or O) that may be acid/base labile, releasing an aldehyde.

>  <s_epik_cmdline>  (1) 
J2VwaWtfcHl0aG9uJywgJy1waHQnLCAnMS4wJywgJy1waCcsICc3LjQnLCAnLXRuJywgJzgnLCAnLW1hJywgJzUwMCcsICctaW1hZScsICc8aW5maWxlLm1hZT4nLCAnLW9tYWUnLCAnPG91dGZpbGUubWFlPic=

>  <s_epik_input>  (1) 
W09IXVtDSF0oW09IXSlbQ0BAXTEyQyg9TylbQ0BIXShbT0hdKVtDSDJdW0NASF0oTzEpW0NIMl1DKD1PKU4oQyhcW0NIM10pPVtDSF1cW0NIMl1bQ0BASF0oW0NIM10pW0NASF0yRiljM1tjSF1uYyhzMylDKD1DKEYpRilbQ0gyXVtOSDJd

>  <s_glide_docking_method>  (1) 
confgen

>  <s_i_glide_gridfile>  (1) 
gpcr_drd2_6luq_protein_autoprepared_prepared

>  <s_lp_Force_Field>  (1) 
S-OPLS

>  <s_lp_Variant>  (1) 
DiffSBDD_44-2

>  <s_m_source_file>  (1) 
generated_generic_title2_ligand_DiffSBDD_2026-06-23_prepared.sdf

>  <GenAI_Model>  (1) 
DiffSBDD

>  <Protein>  (1) 
generic_title2

$$$$
DiffSBDD_39
     RDKit          3D

  0  0  0  0  0  0  0  0  0  0999 V3000
M  V30 BEGIN CTAB
M  V30 COUNTS 68 71 0 0 1
M  V30 BEGIN ATOM
M  V30 1 C 7.969057 5.740020 -15.064503 0
M  V30 2 F 14.695613 3.232180 -16.710003 0
M  V30 3 F 14.324675 2.711225 -18.780827 0
M  V30 4 C 11.422843 8.820529 -9.583498 0
M  V30 5 C 7.559300 6.448313 -12.615277 0
M  V30 6 C 6.552305 4.804437 -11.050496 0 CFG=1
M  V30 7 O 12.647445 8.790215 -8.881255 0
M  V30 8 C 12.248128 5.105698 -16.798239 0 CFG=2
M  V30 9 C 7.573733 2.957535 -14.364206 0
M  V30 10 C 8.790382 5.923475 -10.447113 0 CFG=2
M  V30 11 O 12.869553 7.434371 -16.495780 0
M  V30 12 C 7.605559 3.435846 -15.825644 0
M  V30 13 N 8.423017 4.666040 -15.994689 0 CFG=2 CHG=1
M  V30 14 C 14.761448 4.967904 -18.288548 0
M  V30 15 C 7.988214 5.311970 -13.583020 0 CFG=1
M  V30 16 C 9.887465 4.399851 -15.985014 0
M  V30 17 O 14.422942 6.000454 -17.366826 0
M  V30 18 C 7.001329 3.662496 -11.987209 0
M  V30 19 N 7.468196 5.990228 -11.185030 0 CFG=1 CHG=1
M  V30 20 C 10.765215 7.439011 -9.534874 0 CFG=1
M  V30 21 C 10.346978 7.062482 -8.108155 0
M  V30 22 C 10.719299 5.404541 -16.807102 0
M  V30 23 C 7.074998 4.087191 -13.451311 0 CFG=2
M  V30 24 C 13.062297 6.319399 -17.332472 0 CFG=1
M  V30 25 C 12.637607 3.869078 -17.622479 0
M  V30 26 C 9.820834 5.633201 -8.073924 0
M  V30 27 C 14.127046 3.641648 -17.845045 0
M  V30 28 O 11.791492 3.101779 -18.083710 0
M  V30 29 C 8.602669 5.463579 -8.970740 0
M  V30 30 O 5.375424 5.215375 -11.453094 0 CHG=-1
M  V30 31 C 9.582407 7.280194 -10.522710 0
M  V30 32 H 6.957940 6.039426 -15.346557 0
M  V30 33 H 8.575409 6.615241 -15.185022 0
M  V30 34 H 10.767028 9.590212 -9.185051 0
M  V30 35 H 11.659560 9.073360 -10.609130 0
M  V30 36 H 6.584672 6.827948 -12.923969 0
M  V30 37 H 8.210771 7.310867 -12.725549 0
M  V30 38 H 6.600115 4.393982 -10.048746 0
M  V30 39 H 13.199071 9.502378 -9.185934 0
M  V30 40 H 12.575999 4.934344 -15.772944 0
M  V30 41 H 6.915405 2.092606 -14.277000 0
M  V30 42 H 8.558671 2.621447 -14.040149 0
M  V30 43 H 9.407086 5.166917 -10.932067 0
M  V30 44 H 13.240817 8.192476 -16.924566 0
M  V30 45 H 6.590188 3.678506 -16.130439 0
M  V30 46 H 7.944150 2.641188 -16.491931 0
M  V30 47 H 15.846366 4.869113 -18.323766 0
M  V30 48 H 14.438488 5.242096 -19.294936 0
M  V30 49 H 9.001667 5.029395 -13.299761 0
M  V30 50 H 10.253939 4.390241 -14.962747 0
M  V30 51 H 10.048777 3.401386 -16.385030 0
M  V30 52 H 6.320549 2.813824 -11.902112 0
M  V30 53 H 7.999783 3.332827 -11.695681 0
M  V30 54 H 11.562867 6.790229 -9.859416 0
M  V30 55 H 11.190179 7.148633 -7.422978 0
M  V30 56 H 9.580742 7.749055 -7.744108 0
M  V30 57 H 10.355484 5.444987 -17.835134 0
M  V30 58 H 10.550588 6.390232 -16.386978 0
M  V30 59 H 6.069074 4.356887 -13.777678 0
M  V30 60 H 12.731226 6.615498 -18.330852 0
M  V30 61 H 10.583006 4.925581 -8.384930 0
M  V30 62 H 9.550874 5.376902 -7.051501 0
M  V30 63 H 8.357608 4.404140 -8.924832 0
M  V30 64 H 7.775411 5.990203 -8.507086 0
M  V30 65 H 8.916672 8.127798 -10.382618 0
M  V30 66 H 9.992021 7.402435 -11.524842 0
M  V30 67 H 8.222785 4.990770 -16.930627 0
M  V30 68 H 6.975408 6.719737 -10.664176 0
M  V30 END ATOM
M  V30 BEGIN BOND
M  V30 1 1 7 4
M  V30 2 1 12 9
M  V30 3 1 13 1
M  V30 4 1 13 12
M  V30 5 1 15 1
M  V30 6 1 15 5
M  V30 7 1 16 13
M  V30 8 1 17 14
M  V30 9 1 18 6
M  V30 10 1 19 5
M  V30 11 1 19 6
M  V30 12 1 19 10
M  V30 13 1 20 4
M  V30 14 1 21 20
M  V30 15 1 22 8
M  V30 16 1 22 16
M  V30 17 1 23 9
M  V30 18 1 23 15
M  V30 19 1 23 18
M  V30 20 1 24 8
M  V30 21 1 24 11
M  V30 22 1 24 17
M  V30 23 1 25 8
M  V30 24 1 26 21
M  V30 25 1 27 2
M  V30 26 1 27 3
M  V30 27 1 27 14
M  V30 28 1 27 25
M  V30 29 2 28 25
M  V30 30 1 29 10
M  V30 31 1 29 26
M  V30 32 1 30 6
M  V30 33 1 31 10
M  V30 34 1 31 20
M  V30 35 1 32 1
M  V30 36 1 33 1
M  V30 37 1 34 4
M  V30 38 1 35 4
M  V30 39 1 36 5
M  V30 40 1 37 5
M  V30 41 1 6 38 CFG=1
M  V30 42 1 39 7
M  V30 43 1 8 40 CFG=1
M  V30 44 1 41 9
M  V30 45 1 42 9
M  V30 46 1 10 43 CFG=3
M  V30 47 1 44 11
M  V30 48 1 45 12
M  V30 49 1 46 12
M  V30 50 1 47 14
M  V30 51 1 48 14
M  V30 52 1 15 49 CFG=1
M  V30 53 1 50 16
M  V30 54 1 51 16
M  V30 55 1 52 18
M  V30 56 1 53 18
M  V30 57 1 20 54 CFG=3
M  V30 58 1 55 21
M  V30 59 1 56 21
M  V30 60 1 57 22
M  V30 61 1 58 22
M  V30 62 1 23 59 CFG=3
M  V30 63 1 24 60 CFG=3
M  V30 64 1 61 26
M  V30 65 1 62 26
M  V30 66 1 63 29
M  V30 67 1 64 29
M  V30 68 1 65 31
M  V30 69 1 66 31
M  V30 70 1 13 67 CFG=3
M  V30 71 1 19 68 CFG=1
M  V30 END BOND
M  V30 END CTAB
M  END
>  <i_epik_Tot_Q>  (1) 
1

>  <i_epik_Tot_abs_Q>  (1) 
3

>  <i_i_glide_confnum>  (1) 
282

>  <i_i_glide_lignum>  (1) 
106

>  <i_i_glide_posenum>  (1) 
168

>  <i_i_glide_rotatable_bonds>  (1) 
7

>  <i_lp_mmshare_version>  (1) 
72125

>  <i_m_source_file_index>  (1) 
40

>  <i_f3d_flags>  (1) 
0

>  <num_sample>  (1) 
50

>  <b_lp_Chiralities_Consistent>  (1) 
1

>  <r_epik_Charging_Adjusted_Penalty>  (1) 
0.43569023002306473

>  <r_epik_Ionization_Penalty>  (1) 
0.17475065349743213

>  <r_epik_Ionization_Penalty_Charging>  (1) 
0.17468327186895813

>  <r_epik_Ionization_Penalty_Neutral>  (1) 
6.7381628474014066e-05

>  <r_epik_State_Penalty>  (1) 
0.26100695815410663

>  <r_glide_ring_energy>  (1) 
0

>  <r_i_docking_score>  (1) 
-4.6784062359794296

>  <r_i_glide_ecoul>  (1) 
-9.6610925204271059

>  <r_i_glide_eff_state_penalty>  (1) 
0.26100695815410663

>  <r_i_glide_einternal>  (1) 
3.1665220649448838

>  <r_i_glide_emodel>  (1) 
-37.579206469415986

>  <r_i_glide_emodel_strain>  (1) 
0.23444964093522458

>  <r_i_glide_energy>  (1) 
-29.370835721528884

>  <r_i_glide_erotb>  (1) 
0.49989103335302049

>  <r_i_glide_esite>  (1) 
-0.12665996989114614

>  <r_i_glide_evdw>  (1) 
-19.709743201101777

>  <r_i_glide_gscore>  (1) 
-4.939413194133536

>  <r_i_glide_gscore_strain>  (1) 
0

>  <r_i_glide_hbond>  (1) 
-0.52000000000000002

>  <r_i_glide_ligand_efficiency>  (1) 
-0.15091633019288483

>  <r_i_glide_ligand_efficiency_ln>  (1) 
-1.0551239821456959

>  <r_i_glide_ligand_efficiency_sa>  (1) 
-0.47408563979783952

>  <r_i_glide_lipo>  (1) 
-0.98282748374461459

>  <r_i_glide_metal>  (1) 
-0

>  <r_i_glide_rewards>  (1) 
-1.3751657357316409

>  <r_lp_Energy>  (1) 
53.105624999999996

>  <r_lp_tautomer_probability>  (1) 
0.99995000000000001

>  <s_epik_Chemistry_Notes>  (1) 
This compound contains an acetal/aminal-like group ( X-CH(R)-Y where X, Y are N, S, or O) that may be acid/base labile, releasing an aldehyde.

>  <s_epik_cmdline>  (1) 
J2VwaWtfcHl0aG9uJywgJy1waHQnLCAnMS4wJywgJy1waCcsICc3LjQnLCAnLXRuJywgJzgnLCAnLW1hJywgJzUwMCcsICctaW1hZScsICc8aW5maWxlLm1hZT4nLCAnLW9tYWUnLCAnPG91dGZpbGUubWFlPic=

>  <s_epik_input>  (1) 
RkMxKEYpW0NIMl1PW0NASF0oW09IXSlbQ0BIXShDMT1PKVtDSDJdW0NIMl1OKFtDSDJdMilbQ0gyXVtDSDJdW0NASF0oW0NAQEhdMjMpW0NIMl1bQ0BIXShbT0hdKU4oW0NIMl0zKVtDQEBIXTRbQ0gyXVtDSDJdW0NIMl1bQ0BASF0oW0NIMl00KVtDSDJdW09IXQ==

>  <s_glide_docking_method>  (1) 
confgen

>  <s_i_glide_gridfile>  (1) 
gpcr_drd2_6luq_protein_autoprepared_prepared

>  <s_lp_Force_Field>  (1) 
S-OPLS

>  <s_lp_Variant>  (1) 
DiffSBDD_39-2

>  <s_m_source_file>  (1) 
generated_generic_title2_ligand_DiffSBDD_2026-06-23_prepared.sdf

>  <GenAI_Model>  (1) 
DiffSBDD

>  <Protein>  (1) 
generic_title2

$$$$
DiffSBDD_39
     RDKit          3D

  0  0  0  0  0  0  0  0  0  0999 V3000
M  V30 BEGIN CTAB
M  V30 COUNTS 69 72 0 0 1
M  V30 BEGIN ATOM
M  V30 1 C 7.736565 5.858751 -14.981175 0
M  V30 2 F 12.767406 3.454608 -20.171645 0
M  V30 3 F 10.944113 4.593750 -19.951235 0
M  V30 4 C 11.886365 8.774233 -9.427187 0
M  V30 5 C 7.735506 6.724046 -12.615288 0
M  V30 6 C 6.700856 5.266501 -10.883786 0 CFG=1
M  V30 7 O 13.217545 8.390240 -9.130167 0
M  V30 8 C 11.791452 5.047875 -16.953366 0 CFG=2
M  V30 9 C 7.377428 3.123203 -14.050530 0
M  V30 10 C 9.027919 6.213369 -10.469465 0 CFG=2
M  V30 11 O 14.001762 6.071889 -16.912112 0
M  V30 12 C 7.227142 3.531832 -15.518942 0
M  V30 13 N 8.054528 4.717518 -15.882638 0 CFG=2 CHG=1
M  V30 14 C 12.962332 5.709541 -19.548254 0
M  V30 15 C 7.935150 5.491541 -13.507161 0 CFG=1
M  V30 16 C 9.504792 4.406939 -16.010345 0
M  V30 17 O 12.489568 6.669130 -18.601242 0
M  V30 18 C 6.966662 4.002990 -11.702842 0
M  V30 19 N 7.704100 6.342188 -11.185024 0 CFG=1 CHG=1
M  V30 20 C 11.031930 7.502007 -9.484444 0 CFG=1
M  V30 21 C 10.710420 6.993422 -8.072188 0
M  V30 22 C 10.292386 5.419201 -16.855849 0
M  V30 23 C 6.980141 4.326061 -13.187296 0 CFG=2
M  V30 24 C 12.651600 6.297253 -17.263902 0 CFG=1
M  V30 25 C 12.047070 3.952716 -17.990398 0
M  V30 26 C 10.066898 5.610890 -8.117563 0
M  V30 27 C 12.163188 4.398056 -19.448296 0
M  V30 28 O 12.142143 2.769521 -17.665461 0
M  V30 29 C 8.865230 5.546571 -9.061514 0
M  V30 30 O 5.467202 5.878270 -11.207614 0
M  V30 31 C 9.736682 7.598261 -10.319547 0
M  V30 32 H 6.696428 6.143706 -15.149814 0
M  V30 33 H 8.293037 6.756936 -15.185036 0
M  V30 34 H 11.515551 9.481971 -8.685416 0
M  V30 35 H 11.895506 9.283831 -10.385033 0
M  V30 36 H 6.795845 7.216393 -12.871069 0
M  V30 37 H 8.507651 7.467032 -12.806888 0
M  V30 38 H 6.592795 5.013931 -9.833971 0
M  V30 39 H 13.780111 9.146718 -9.255210 0
M  V30 40 H 12.119886 4.676202 -15.984621 0
M  V30 41 H 6.723957 2.275575 -13.837239 0
M  V30 42 H 8.393217 2.796812 -13.827989 0
M  V30 43 H 9.670950 5.562060 -11.063195 0
M  V30 44 H 14.072287 6.103043 -15.969353 0
M  V30 45 H 6.183628 3.829538 -15.585025 0
M  V30 46 H 7.393680 2.695857 -16.200236 0
M  V30 47 H 14.029035 5.527595 -19.410112 0
M  V30 48 H 12.857907 6.132862 -20.547446 0
M  V30 49 H 8.957020 5.159954 -13.328112 0
M  V30 50 H 9.967982 4.390240 -15.026989 0
M  V30 51 H 9.619576 3.412962 -16.444446 0
M  V30 52 H 6.205799 3.248768 -11.492453 0
M  V30 53 H 7.936332 3.590309 -11.426795 0
M  V30 54 H 11.661592 6.790265 -9.997697 0
M  V30 55 H 11.614252 6.948228 -7.463007 0
M  V30 56 H 10.034996 7.690919 -7.574725 0
M  V30 57 H 9.847381 5.526091 -17.846281 0
M  V30 58 H 10.208094 6.390055 -16.385196 0
M  V30 59 H 5.962478 4.619639 -13.453617 0
M  V30 60 H 12.328042 7.152489 -16.667915 0
M  V30 61 H 10.794074 4.856046 -8.384984 0
M  V30 62 H 9.735891 5.342026 -7.116826 0
M  V30 63 H 8.618033 4.491374 -9.174752 0
M  V30 64 H 8.032665 5.990335 -8.521186 0
M  V30 65 H 4.955484 5.941253 -10.411882 0
M  V30 66 H 9.063716 8.322191 -9.857552 0
M  V30 67 H 9.988885 8.002747 -11.298503 0
M  V30 68 H 7.754618 4.986508 -16.810236 0
M  V30 69 H 7.312532 7.130003 -10.647928 0
M  V30 END ATOM
M  V30 BEGIN BOND
M  V30 1 1 7 4
M  V30 2 1 12 9
M  V30 3 1 13 1
M  V30 4 1 13 12
M  V30 5 1 15 1
M  V30 6 1 15 5
M  V30 7 1 16 13
M  V30 8 1 17 14
M  V30 9 1 18 6
M  V30 10 1 19 5
M  V30 11 1 19 6
M  V30 12 1 19 10
M  V30 13 1 20 4
M  V30 14 1 21 20
M  V30 15 1 22 8
M  V30 16 1 22 16
M  V30 17 1 23 9
M  V30 18 1 23 15
M  V30 19 1 23 18
M  V30 20 1 24 8
M  V30 21 1 24 11
M  V30 22 1 24 17
M  V30 23 1 25 8
M  V30 24 1 26 21
M  V30 25 1 27 2
M  V30 26 1 27 3
M  V30 27 1 27 14
M  V30 28 1 27 25
M  V30 29 2 28 25
M  V30 30 1 29 10
M  V30 31 1 29 26
M  V30 32 1 30 6
M  V30 33 1 31 10
M  V30 34 1 31 20
M  V30 35 1 32 1
M  V30 36 1 33 1
M  V30 37 1 34 4
M  V30 38 1 35 4
M  V30 39 1 36 5
M  V30 40 1 37 5
M  V30 41 1 6 38 CFG=1
M  V30 42 1 39 7
M  V30 43 1 8 40 CFG=1
M  V30 44 1 41 9
M  V30 45 1 42 9
M  V30 46 1 10 43 CFG=3
M  V30 47 1 44 11
M  V30 48 1 45 12
M  V30 49 1 46 12
M  V30 50 1 47 14
M  V30 51 1 48 14
M  V30 52 1 15 49 CFG=3
M  V30 53 1 50 16
M  V30 54 1 51 16
M  V30 55 1 52 18
M  V30 56 1 53 18
M  V30 57 1 20 54 CFG=3
M  V30 58 1 55 21
M  V30 59 1 56 21
M  V30 60 1 57 22
M  V30 61 1 58 22
M  V30 62 1 23 59 CFG=3
M  V30 63 1 24 60 CFG=1
M  V30 64 1 61 26
M  V30 65 1 62 26
M  V30 66 1 63 29
M  V30 67 1 64 29
M  V30 68 1 65 30
M  V30 69 1 66 31
M  V30 70 1 67 31
M  V30 71 1 13 68 CFG=3
M  V30 72 1 19 69 CFG=1
M  V30 END BOND
M  V30 END CTAB
M  END
>  <i_epik_Tot_Q>  (1) 
2

>  <i_epik_Tot_abs_Q>  (1) 
2

>  <i_i_glide_confnum>  (1) 
77

>  <i_i_glide_lignum>  (1) 
112

>  <i_i_glide_posenum>  (1) 
304

>  <i_i_glide_rotatable_bonds>  (1) 
8

>  <i_lp_mmshare_version>  (1) 
72125

>  <i_m_source_file_index>  (1) 
40

>  <i_f3d_flags>  (1) 
0

>  <num_sample>  (1) 
50

>  <b_lp_Chiralities_Consistent>  (1) 
1

>  <r_epik_Charging_Adjusted_Penalty>  (1) 
1.743801429740254

>  <r_epik_Ionization_Penalty>  (1) 
1.6051069046209219

>  <r_epik_Ionization_Penalty_Charging>  (1) 
0.6098477401054202

>  <r_epik_Ionization_Penalty_Neutral>  (1) 
0.99525916451550167

>  <r_epik_State_Penalty>  (1) 
1.1339536896348337

>  <r_glide_ring_energy>  (1) 
1.2534239858202167

>  <r_i_docking_score>  (1) 
-4.676553859655499

>  <r_i_glide_ecoul>  (1) 
-13.415334200580045

>  <r_i_glide_eff_state_penalty>  (1) 
1.1339536896348337

>  <r_i_glide_einternal>  (1) 
6.501031354958875

>  <r_i_glide_emodel>  (1) 
-43.432868242049629

>  <r_i_glide_emodel_strain>  (1) 
0.46104019323770729

>  <r_i_glide_energy>  (1) 
-35.193516277525873

>  <r_i_glide_erotb>  (1) 
0.49785121930328097

>  <r_i_glide_esite>  (1) 
-0.17782133339734146

>  <r_i_glide_evdw>  (1) 
-21.778182076945832

>  <r_i_glide_gscore>  (1) 
-5.8105075492903326

>  <r_i_glide_gscore_strain>  (1) 
0

>  <r_i_glide_hbond>  (1) 
-0.48856373255748042

>  <r_i_glide_ligand_efficiency>  (1) 
-0.15085657611791933

>  <r_i_glide_ligand_efficiency_ln>  (1) 
-1.0547062145161328

>  <r_i_glide_ligand_efficiency_sa>  (1) 
-0.47389792950284132

>  <r_i_glide_lipo>  (1) 
-1.2815671917063305

>  <r_i_glide_metal>  (1) 
-0

>  <r_i_glide_rewards>  (1) 
-1.2591972769981623

>  <r_lp_Energy>  (1) 
50.801770999999995

>  <r_lp_tautomer_probability>  (1) 
0.99995000000000001

>  <s_epik_Chemistry_Notes>  (1) 
This compound contains an acetal/aminal-like group ( X-CH(R)-Y where X, Y are N, S, or O) that may be acid/base labile, releasing an aldehyde.

>  <s_epik_cmdline>  (1) 
J2VwaWtfcHl0aG9uJywgJy1waHQnLCAnMS4wJywgJy1waCcsICc3LjQnLCAnLXRuJywgJzgnLCAnLW1hJywgJzUwMCcsICctaW1hZScsICc8aW5maWxlLm1hZT4nLCAnLW9tYWUnLCAnPG91dGZpbGUubWFlPic=

>  <s_epik_input>  (1) 
RkMxKEYpW0NIMl1PW0NASF0oW09IXSlbQ0BIXShDMT1PKVtDSDJdW0NIMl1OKFtDSDJdMilbQ0gyXVtDSDJdW0NASF0oW0NAQEhdMjMpW0NIMl1bQ0BIXShbT0hdKU4oW0NIMl0zKVtDQEBIXTRbQ0gyXVtDSDJdW0NIMl1bQ0BASF0oW0NIMl00KVtDSDJdW09IXQ==

>  <s_glide_docking_method>  (1) 
confgen

>  <s_i_glide_gridfile>  (1) 
gpcr_drd2_6luq_protein_autoprepared_prepared

>  <s_lp_Force_Field>  (1) 
S-OPLS

>  <s_lp_Variant>  (1) 
DiffSBDD_39-8

>  <s_m_source_file>  (1) 
generated_generic_title2_ligand_DiffSBDD_2026-06-23_prepared.sdf

>  <GenAI_Model>  (1) 
DiffSBDD

>  <Protein>  (1) 
generic_title2

$$$$
DiffSBDD_16
     RDKit          3D

  0  0  0  0  0  0  0  0  0  0999 V3000
M  V30 BEGIN CTAB
M  V30 COUNTS 40 42 0 0 1
M  V30 BEGIN ATOM
M  V30 1 O 7.058165 -2.988237 -19.164686 0 CHG=-1
M  V30 2 O 4.175417 -2.584812 -18.785020 0
M  V30 3 C 6.713712 6.085680 -14.123604 0
M  V30 4 C 7.340678 0.685285 -16.339976 0 CFG=1
M  V30 5 C 6.479641 4.617162 -12.067848 0
M  V30 6 S 5.028279 -0.809782 -16.920875 0
M  V30 7 F 6.309053 7.183463 -14.784796 0
M  V30 8 C 6.335919 3.253028 -12.765937 0
M  V30 9 C 6.657131 -0.315368 -17.273595 0
M  V30 10 C 5.114702 -1.878700 -18.416640 0
M  V30 11 C 6.136443 5.811618 -12.939131 0
M  V30 12 C 7.355947 2.073238 -17.007082 0
M  V30 13 C 7.691856 1.398415 -13.896517 0
M  V30 14 C 8.110035 3.186727 -16.257383 0
M  V30 15 C 7.224611 -0.846967 -18.343690 0
M  V30 16 C 6.466420 -1.819792 -19.201923 0 CFG=1
M  V30 17 C 7.375348 3.764540 -15.023911 0 CFG=2
M  V30 18 C 7.798834 5.230211 -14.757318 0
M  V30 19 C 7.501277 2.924772 -13.723257 0 CFG=1
M  V30 20 C 6.770366 0.698129 -14.903741 0
M  V30 21 H 8.373950 0.341601 -16.270665 0
M  V30 22 H 5.798474 4.643901 -11.216172 0
M  V30 23 H 7.479205 4.745188 -11.650772 0
M  V30 24 H 6.282582 2.496433 -11.985025 0
M  V30 25 H 5.376354 3.187242 -13.279962 0
M  V30 26 H 5.375066 6.476577 -12.558047 0
M  V30 27 H 7.825638 1.967895 -17.986067 0
M  V30 28 H 6.336523 2.390224 -17.219109 0
M  V30 29 H 7.571235 0.917843 -12.924792 0
M  V30 30 H 8.727687 1.190219 -14.160005 0
M  V30 31 H 9.108610 2.860068 -15.998953 0
M  V30 32 H 8.253834 3.983932 -16.986816 0
M  V30 33 H 8.234650 -0.593394 -18.628874 0
M  V30 34 H 6.255417 -1.301288 -20.137491 0
M  V30 35 H 6.323381 3.798191 -15.295668 0
M  V30 36 H 8.050599 5.728322 -15.693415 0
M  V30 37 H 8.704489 5.279905 -14.151644 0
M  V30 38 H 8.418008 3.231208 -13.216709 0
M  V30 39 H 6.659595 -0.336009 -14.572105 0
M  V30 40 H 5.775399 1.135820 -14.870918 0
M  V30 END ATOM
M  V30 BEGIN BOND
M  V30 1 1 7 3
M  V30 2 1 8 5
M  V30 3 1 9 4
M  V30 4 1 9 6
M  V30 5 2 10 2
M  V30 6 1 10 6
M  V30 7 2 11 3
M  V30 8 1 11 5
M  V30 9 1 12 4
M  V30 10 1 14 12
M  V30 11 2 15 9
M  V30 12 1 16 1
M  V30 13 1 16 10
M  V30 14 1 16 15
M  V30 15 1 17 14
M  V30 16 1 18 3
M  V30 17 1 18 17
M  V30 18 1 19 8
M  V30 19 1 19 13
M  V30 20 1 19 17
M  V30 21 1 20 4
M  V30 22 1 20 13
M  V30 23 1 4 21 CFG=1
M  V30 24 1 22 5
M  V30 25 1 23 5
M  V30 26 1 24 8
M  V30 27 1 25 8
M  V30 28 1 26 11
M  V30 29 1 27 12
M  V30 30 1 28 12
M  V30 31 1 29 13
M  V30 32 1 30 13
M  V30 33 1 31 14
M  V30 34 1 32 14
M  V30 35 1 33 15
M  V30 36 1 16 34 CFG=3
M  V30 37 1 17 35 CFG=3
M  V30 38 1 36 18
M  V30 39 1 37 18
M  V30 40 1 19 38 CFG=1
M  V30 41 1 39 20
M  V30 42 1 40 20
M  V30 END BOND
M  V30 END CTAB
M  END
>  <i_epik_Tot_Q>  (1) 
-1

>  <i_epik_Tot_abs_Q>  (1) 
1

>  <i_i_glide_confnum>  (1) 
2

>  <i_i_glide_lignum>  (1) 
58

>  <i_i_glide_posenum>  (1) 
183

>  <i_i_glide_rotatable_bonds>  (1) 
1

>  <i_lp_mmshare_version>  (1) 
72125

>  <i_m_source_file_index>  (1) 
17

>  <i_f3d_flags>  (1) 
0

>  <num_sample>  (1) 
50

>  <b_lp_Chiralities_Consistent>  (1) 
1

>  <r_epik_Charging_Adjusted_Penalty>  (1) 
0.29503530446885118

>  <r_epik_Ionization_Penalty>  (1) 
0.14751765223442562

>  <r_epik_Ionization_Penalty_Charging>  (1) 
0.14751765223442562

>  <r_epik_Ionization_Penalty_Neutral>  (1) 
0

>  <r_epik_State_Penalty>  (1) 
0.14751765223442559

>  <r_glide_ring_energy>  (1) 
0

>  <r_i_docking_score>  (1) 
-4.6760182941867834

>  <r_i_glide_ecoul>  (1) 
1.4826667390593042

>  <r_i_glide_eff_state_penalty>  (1) 
0.14751765223442559

>  <r_i_glide_einternal>  (1) 
0.54200605480621333

>  <r_i_glide_emodel>  (1) 
-34.48775117637765

>  <r_i_glide_emodel_strain>  (1) 
0.21819415381713725

>  <r_i_glide_energy>  (1) 
-27.308366838754008

>  <r_i_glide_erotb>  (1) 
0.20975943134131059

>  <r_i_glide_esite>  (1) 
0

>  <r_i_glide_evdw>  (1) 
-28.791033577813312

>  <r_i_glide_gscore>  (1) 
-4.8235359464212086

>  <r_i_glide_gscore_strain>  (1) 
0

>  <r_i_glide_hbond>  (1) 
0

>  <r_i_glide_ligand_efficiency>  (1) 
-0.23380091470933917

>  <r_i_glide_ligand_efficiency_ln>  (1) 
-1.1702531536297638

>  <r_i_glide_ligand_efficiency_sa>  (1) 
-0.63463332166303354

>  <r_i_glide_lipo>  (1) 
-1.6422287411110177

>  <r_i_glide_metal>  (1) 
-0

>  <r_i_glide_rewards>  (1) 
-2.1739149686197314

>  <r_lp_Energy>  (1) 
23.813070999999997

>  <s_epik_cmdline>  (1) 
J2VwaWtfcHl0aG9uJywgJy1waHQnLCAnMS4wJywgJy1waCcsICc3LjQnLCAnLXRuJywgJzgnLCAnLW1hJywgJzUwMCcsICctaW1hZScsICc8aW5maWxlLm1hZT4nLCAnLW9tYWUnLCAnPG91dGZpbGUubWFlPic=

>  <s_epik_input>  (1) 
Tz1DKFMxKVtDQEhdKFtPSF0pW0NIXT1DMVtDQEBIXShbQ0gyXVtDSDJdMilbQ0gyXVtDSDJdW0NAQEhdKFtDQEhdMjMpW0NIMl1bQ0gyXVtDSF09QyhGKVtDSDJdMw==

>  <s_glide_docking_method>  (1) 
confgen

>  <s_i_glide_gridfile>  (1) 
gpcr_drd2_6luq_protein_autoprepared_prepared

>  <s_lp_Force_Field>  (1) 
S-OPLS

>  <s_lp_Variant>  (1) 
DiffSBDD_16-1

>  <s_m_source_file>  (1) 
generated_generic_title2_ligand_DiffSBDD_2026-06-23_prepared.sdf

>  <GenAI_Model>  (1) 
DiffSBDD

>  <Protein>  (1) 
generic_title2

$$$$
DiffSBDD_16
     RDKit          3D

  0  0  0  0  0  0  0  0  0  0999 V3000
M  V30 BEGIN CTAB
M  V30 COUNTS 40 42 0 0 1
M  V30 BEGIN ATOM
M  V30 1 O 11.496251 7.286112 -7.761247 0 CHG=-1
M  V30 2 O 13.050782 8.390227 -9.960084 0
M  V30 3 C 6.755948 5.784756 -16.742964 0
M  V30 4 C 8.577124 6.201775 -11.242976 0 CFG=1
M  V30 5 C 7.530354 3.413212 -16.259516 0
M  V30 6 S 11.162076 7.190227 -11.496497 0
M  V30 7 F 6.677557 6.790221 -17.629803 0
M  V30 8 C 8.175406 3.636323 -14.890373 0
M  V30 9 C 9.754403 6.891620 -10.560988 0
M  V30 10 C 11.904087 7.949514 -9.985026 0
M  V30 11 C 7.375401 4.651320 -17.125884 0
M  V30 12 C 7.880969 7.213207 -12.183255 0
M  V30 13 C 7.823943 4.039663 -12.414392 0
M  V30 14 C 6.674085 6.684567 -12.976622 0
M  V30 15 C 9.775410 7.287346 -9.296031 0
M  V30 16 C 10.975927 7.990230 -8.735280 0 CFG=1
M  V30 17 C 7.104184 5.827054 -14.188241 0 CFG=2
M  V30 18 C 6.130159 5.993632 -15.373663 0
M  V30 19 C 7.292362 4.328984 -13.839832 0 CFG=1
M  V30 20 C 9.010272 4.899928 -11.951857 0
M  V30 21 H 7.869842 5.935170 -10.455705 0
M  V30 22 H 8.162236 2.723919 -16.820462 0
M  V30 23 H 6.575410 2.902232 -16.149345 0
M  V30 24 H 8.433528 2.644754 -14.518532 0
M  V30 25 H 9.116411 4.174504 -15.006435 0
M  V30 26 H 7.787161 4.588937 -18.122837 0
M  V30 27 H 7.538025 8.057088 -11.585024 0
M  V30 28 H 8.603793 7.647064 -12.872298 0
M  V30 29 H 8.119610 2.991523 -12.362252 0
M  V30 30 H 7.012204 4.125571 -11.691113 0
M  V30 31 H 5.971926 6.156001 -12.330871 0
M  V30 32 H 6.131524 7.563614 -13.323644 0
M  V30 33 H 8.930737 7.134167 -8.645835 0
M  V30 34 H 10.682090 9.031647 -8.609838 0
M  V30 35 H 8.062730 6.227142 -14.522132 0
M  V30 36 H 5.729665 7.007337 -15.391007 0
M  V30 37 H 5.269519 5.342863 -15.254831 0
M  V30 38 H 6.315230 3.844519 -13.871154 0
M  V30 39 H 9.592187 4.311145 -11.240902 0
M  V30 40 H 9.680387 5.100856 -12.788008 0
M  V30 END ATOM
M  V30 BEGIN BOND
M  V30 1 1 7 3
M  V30 2 1 8 5
M  V30 3 1 9 4
M  V30 4 1 9 6
M  V30 5 2 10 2
M  V30 6 1 10 6
M  V30 7 2 11 3
M  V30 8 1 11 5
M  V30 9 1 12 4
M  V30 10 1 14 12
M  V30 11 2 15 9
M  V30 12 1 16 1
M  V30 13 1 16 10
M  V30 14 1 16 15
M  V30 15 1 17 14
M  V30 16 1 18 3
M  V30 17 1 18 17
M  V30 18 1 19 8
M  V30 19 1 19 13
M  V30 20 1 19 17
M  V30 21 1 20 4
M  V30 22 1 20 13
M  V30 23 1 4 21 CFG=1
M  V30 24 1 22 5
M  V30 25 1 23 5
M  V30 26 1 24 8
M  V30 27 1 25 8
M  V30 28 1 26 11
M  V30 29 1 27 12
M  V30 30 1 28 12
M  V30 31 1 29 13
M  V30 32 1 30 13
M  V30 33 1 31 14
M  V30 34 1 32 14
M  V30 35 1 33 15
M  V30 36 1 16 34 CFG=1
M  V30 37 1 17 35 CFG=3
M  V30 38 1 36 18
M  V30 39 1 37 18
M  V30 40 1 19 38 CFG=1
M  V30 41 1 39 20
M  V30 42 1 40 20
M  V30 END BOND
M  V30 END CTAB
M  END
>  <i_epik_Tot_Q>  (1) 
-1

>  <i_epik_Tot_abs_Q>  (1) 
1

>  <i_i_glide_confnum>  (1) 
2

>  <i_i_glide_lignum>  (1) 
58

>  <i_i_glide_posenum>  (1) 
229

>  <i_i_glide_rotatable_bonds>  (1) 
1

>  <i_lp_mmshare_version>  (1) 
72125

>  <i_m_source_file_index>  (1) 
17

>  <i_f3d_flags>  (1) 
0

>  <num_sample>  (1) 
50

>  <b_lp_Chiralities_Consistent>  (1) 
1

>  <r_epik_Charging_Adjusted_Penalty>  (1) 
0.29503530446885118

>  <r_epik_Ionization_Penalty>  (1) 
0.14751765223442562

>  <r_epik_Ionization_Penalty_Charging>  (1) 
0.14751765223442562

>  <r_epik_Ionization_Penalty_Neutral>  (1) 
0

>  <r_epik_State_Penalty>  (1) 
0.14751765223442559

>  <r_glide_ring_energy>  (1) 
0

>  <r_i_docking_score>  (1) 
-4.6758114597151099

>  <r_i_glide_ecoul>  (1) 
-0.0057129265716215349

>  <r_i_glide_eff_state_penalty>  (1) 
0.14751765223442559

>  <r_i_glide_einternal>  (1) 
0.060676668345678308

>  <r_i_glide_emodel>  (1) 
-31.908141097075408

>  <r_i_glide_emodel_strain>  (1) 
0

>  <r_i_glide_energy>  (1) 
-24.270226743167637

>  <r_i_glide_erotb>  (1) 
0.20975943134131059

>  <r_i_glide_esite>  (1) 
0

>  <r_i_glide_evdw>  (1) 
-24.264513816596015

>  <r_i_glide_gscore>  (1) 
-4.8233291119495352

>  <r_i_glide_gscore_strain>  (1) 
0

>  <r_i_glide_hbond>  (1) 
0

>  <r_i_glide_ligand_efficiency>  (1) 
-0.23379057298575551

>  <r_i_glide_ligand_efficiency_ln>  (1) 
-1.1702013897833612

>  <r_i_glide_ligand_efficiency_sa>  (1) 
-0.63460524990635203

>  <r_i_glide_lipo>  (1) 
-1.239109620668851

>  <r_i_glide_metal>  (1) 
-0

>  <r_i_glide_rewards>  (1) 
-2.5798962928064508

>  <r_lp_Energy>  (1) 
23.813070999999997

>  <s_epik_cmdline>  (1) 
J2VwaWtfcHl0aG9uJywgJy1waHQnLCAnMS4wJywgJy1waCcsICc3LjQnLCAnLXRuJywgJzgnLCAnLW1hJywgJzUwMCcsICctaW1hZScsICc8aW5maWxlLm1hZT4nLCAnLW9tYWUnLCAnPG91dGZpbGUubWFlPic=

>  <s_epik_input>  (1) 
Tz1DKFMxKVtDQEhdKFtPSF0pW0NIXT1DMVtDQEBIXShbQ0gyXVtDSDJdMilbQ0gyXVtDSDJdW0NAQEhdKFtDQEhdMjMpW0NIMl1bQ0gyXVtDSF09QyhGKVtDSDJdMw==

>  <s_glide_docking_method>  (1) 
confgen

>  <s_i_glide_gridfile>  (1) 
gpcr_drd2_6luq_protein_autoprepared_prepared

>  <s_lp_Force_Field>  (1) 
S-OPLS

>  <s_lp_Variant>  (1) 
DiffSBDD_16-1

>  <s_m_source_file>  (1) 
generated_generic_title2_ligand_DiffSBDD_2026-06-23_prepared.sdf

>  <GenAI_Model>  (1) 
DiffSBDD

>  <Protein>  (1) 
generic_title2

$$$$
DiffSBDD_1
     RDKit          3D

  0  0  0  0  0  0  0  0  0  0999 V3000
M  V30 BEGIN CTAB
M  V30 COUNTS 90 92 0 0 1
M  V30 BEGIN ATOM
M  V30 1 O 9.641378 6.946340 -10.185608 0
M  V30 2 O 8.975940 6.153749 -7.191011 0
M  V30 3 C 7.409874 5.642086 -14.716291 0 CFG=2
M  V30 4 C 5.019103 6.475955 -15.384945 0
M  V30 5 C 4.589055 7.727520 -20.103826 0
M  V30 6 C 11.125074 10.204148 -4.222331 0
M  V30 7 C 7.956092 6.939906 -20.037333 0
M  V30 8 C 10.184821 6.857529 -6.991486 0 CFG=1
M  V30 9 C 7.457788 4.334715 -13.853448 0 CFG=1
M  V30 10 C 7.800887 5.558439 -17.888798 0 CFG=2
M  V30 11 C 4.200029 6.551672 -16.674644 0
M  V30 12 O 6.784394 0.422532 -14.839555 0 CHG=-1
M  V30 13 C 4.742648 6.488784 -19.186382 0
M  V30 14 C 7.326923 6.875700 -13.780951 0
M  V30 15 C 10.360849 7.902384 -8.116650 0
M  V30 16 C 6.930709 7.283620 -21.138493 0
M  V30 17 C 6.220259 5.618787 -15.731099 0 CFG=1
M  V30 18 C 5.886607 8.323096 -20.681833 0
M  V30 19 C 10.196165 7.478838 -5.588288 0
M  V30 20 C 8.468559 5.652538 -11.867156 0 CFG=2
M  V30 21 C 13.218620 8.991409 -3.590283 0
M  V30 22 F 9.176495 5.039524 -19.699612 0
M  V30 23 C 11.760348 8.830932 -3.954854 0
M  V30 24 C 8.415374 6.921371 -12.718132 0
M  V30 25 C 11.751216 8.164707 -10.230694 0
M  V30 26 F 8.266279 4.390934 -17.446991 0
M  V30 27 O 8.638425 1.054363 -13.184494 0
M  V30 28 O 6.208889 1.707675 -12.700195 0
M  V30 29 P 7.129642 1.434491 -13.821238 0
M  V30 30 C 11.620535 7.891087 -5.159799 0
M  V30 31 C 10.803498 7.265260 -9.436627 0 CFG=2
M  V30 32 C 6.368578 5.671768 -17.285211 0 CFG=1
M  V30 33 O 5.726966 7.986448 -17.510126 0
M  V30 34 C 9.693065 5.747886 -10.946705 0
M  V30 35 C 7.578585 3.034714 -14.707186 0
M  V30 36 C 5.289895 6.688339 -17.747672 0 CFG=2
M  V30 37 C 8.578127 4.418514 -12.788012 0
M  V30 38 C 7.961800 5.526257 -19.431029 0 CFG=2
M  V30 39 H 8.270252 6.764884 -7.379376 0
M  V30 40 H 8.349400 5.715579 -15.256273 0
M  V30 41 H 4.575412 5.987409 -14.526319 0
M  V30 42 H 5.273564 7.497022 -15.099841 0
M  V30 43 H 3.984495 7.432706 -20.961015 0
M  V30 44 H 4.015453 8.508901 -19.604194 0
M  V30 45 H 11.768263 10.788687 -4.879780 0
M  V30 46 H 10.178484 10.156071 -4.747322 0
M  V30 47 H 10.975014 10.760846 -3.297824 0
M  V30 48 H 8.950730 7.181496 -20.414994 0
M  V30 49 H 7.822485 7.590687 -19.191016 0
M  V30 50 H 10.988694 6.120495 -7.031463 0
M  V30 51 H 6.510342 4.273959 -13.316043 0
M  V30 52 H 8.467935 6.312502 -17.494691 0
M  V30 53 H 3.625978 5.639805 -16.785728 0
M  V30 54 H 3.477383 7.371201 -16.687081 0
M  V30 55 H 5.308541 5.727511 -19.708453 0
M  V30 56 H 3.774606 6.011120 -19.106697 0
M  V30 57 H 6.377396 6.882663 -13.243759 0
M  V30 58 H 7.371555 7.796785 -14.365323 0
M  V30 59 H 9.458477 8.502919 -8.253955 0
M  V30 60 H 11.125691 8.618186 -7.833926 0
M  V30 61 H 6.454609 6.397436 -21.560028 0
M  V30 62 H 7.484918 7.724283 -21.968256 0
M  V30 63 H 5.777041 4.665636 -15.552198 0
M  V30 64 H 5.607508 8.932099 -21.541812 0
M  V30 65 H 6.321910 9.037772 -19.986391 0
M  V30 66 H 9.494107 8.309611 -5.587091 0
M  V30 67 H 9.825864 6.746026 -4.869861 0
M  V30 68 H 7.558936 5.582536 -11.266468 0
M  V30 69 H 13.775326 9.485211 -4.390583 0
M  V30 70 H 13.329959 9.578238 -2.681810 0
M  V30 71 H 13.637174 7.997438 -3.406430 0
M  V30 72 H 11.375409 8.356628 -3.063183 0
M  V30 73 H 8.252226 7.794784 -12.084642 0
M  V30 74 H 9.384346 7.041056 -13.185024 0
M  V30 75 H 12.684540 8.308012 -9.684750 0
M  V30 76 H 12.001558 7.724588 -11.194113 0
M  V30 77 H 11.315405 9.147505 -10.382384 0
M  V30 78 H 8.609402 1.190624 -12.246645 0
M  V30 79 H 12.160066 6.966327 -4.938640 0
M  V30 80 H 12.135895 8.376936 -5.988110 0
M  V30 81 H 11.371182 6.387294 -9.179543 0
M  V30 82 H 5.915912 4.770603 -17.664557 0
M  V30 83 H 5.007506 8.585578 -17.650687 0
M  V30 84 H 10.574991 5.754585 -11.585070 0
M  V30 85 H 9.751804 4.879324 -10.290832 0
M  V30 86 H 6.962356 3.048231 -15.599871 0
M  V30 87 H 8.575038 2.969245 -15.116294 0
M  V30 88 H 9.541941 4.445201 -13.299377 0
M  V30 89 H 8.591504 3.518037 -12.176314 0
M  V30 90 H 7.271919 4.836090 -19.913704 0
M  V30 END ATOM
M  V30 BEGIN BOND
M  V30 1 1 8 2
M  V30 2 1 9 3
M  V30 3 1 11 4
M  V30 4 1 13 5
M  V30 5 1 14 3
M  V30 6 1 15 8
M  V30 7 1 16 7
M  V30 8 1 17 3
M  V30 9 1 17 4
M  V30 10 1 18 5
M  V30 11 1 18 16
M  V30 12 1 19 8
M  V30 13 1 23 6
M  V30 14 1 23 21
M  V30 15 1 24 14
M  V30 16 1 24 20
M  V30 17 1 26 10
M  V30 18 1 29 12
M  V30 19 1 29 27
M  V30 20 2 29 28
M  V30 21 1 30 19
M  V30 22 1 30 23
M  V30 23 1 31 1
M  V30 24 1 31 15
M  V30 25 1 31 25
M  V30 26 1 32 10
M  V30 27 1 32 17
M  V30 28 1 34 1
M  V30 29 1 34 20
M  V30 30 1 35 9
M  V30 31 1 35 29
M  V30 32 1 36 11
M  V30 33 1 36 13
M  V30 34 1 36 32
M  V30 35 1 36 33 CFG=3
M  V30 36 1 37 9
M  V30 37 1 37 20
M  V30 38 1 38 7
M  V30 39 1 38 10
M  V30 40 1 38 22
M  V30 41 1 39 2
M  V30 42 1 3 40 CFG=3
M  V30 43 1 41 4
M  V30 44 1 42 4
M  V30 45 1 43 5
M  V30 46 1 44 5
M  V30 47 1 45 6
M  V30 48 1 46 6
M  V30 49 1 47 6
M  V30 50 1 48 7
M  V30 51 1 49 7
M  V30 52 1 8 50 CFG=1
M  V30 53 1 9 51 CFG=1
M  V30 54 1 10 52 CFG=1
M  V30 55 1 53 11
M  V30 56 1 54 11
M  V30 57 1 55 13
M  V30 58 1 56 13
M  V30 59 1 57 14
M  V30 60 1 58 14
M  V30 61 1 59 15
M  V30 62 1 60 15
M  V30 63 1 61 16
M  V30 64 1 62 16
M  V30 65 1 17 63 CFG=3
M  V30 66 1 64 18
M  V30 67 1 65 18
M  V30 68 1 66 19
M  V30 69 1 67 19
M  V30 70 1 20 68 CFG=1
M  V30 71 1 69 21
M  V30 72 1 70 21
M  V30 73 1 71 21
M  V30 74 1 72 23
M  V30 75 1 73 24
M  V30 76 1 74 24
M  V30 77 1 75 25
M  V30 78 1 76 25
M  V30 79 1 77 25
M  V30 80 1 78 27
M  V30 81 1 79 30
M  V30 82 1 80 30
M  V30 83 1 31 81 CFG=1
M  V30 84 1 32 82 CFG=3
M  V30 85 1 83 33
M  V30 86 1 84 34
M  V30 87 1 85 34
M  V30 88 1 86 35
M  V30 89 1 87 35
M  V30 90 1 88 37
M  V30 91 1 89 37
M  V30 92 1 38 90 CFG=3
M  V30 END BOND
M  V30 END CTAB
M  END
>  <i_epik_Tot_Q>  (1) 
-1

>  <i_epik_Tot_abs_Q>  (1) 
1

>  <i_i_glide_confnum>  (1) 
179

>  <i_i_glide_lignum>  (1) 
18

>  <i_i_glide_posenum>  (1) 
45

>  <i_i_glide_rotatable_bonds>  (1) 
14

>  <i_lp_mmshare_version>  (1) 
72125

>  <i_m_source_file_index>  (1) 
2

>  <i_f3d_flags>  (1) 
0

>  <num_sample>  (1) 
50

>  <b_lp_Chiralities_Consistent>  (1) 
1

>  <r_epik_Charging_Adjusted_Penalty>  (1) 
0.13318820565599726

>  <r_epik_Ionization_Penalty>  (1) 
0.13318880763099702

>  <r_epik_Ionization_Penalty_Charging>  (1) 
1.1004593090013429e-05

>  <r_epik_Ionization_Penalty_Neutral>  (1) 
0.13317780303790702

>  <r_epik_State_Penalty>  (1) 
0.13317720106290726

>  <r_glide_ring_energy>  (1) 
0

>  <r_i_docking_score>  (1) 
-4.6735593309151389

>  <r_i_glide_ecoul>  (1) 
-1.2474028922689517

>  <r_i_glide_eff_state_penalty>  (1) 
0.13317720106290726

>  <r_i_glide_einternal>  (1) 
21.020576799142177

>  <r_i_glide_emodel>  (1) 
-8.4844496881212841

>  <r_i_glide_emodel_strain>  (1) 
1.4704971681122885

>  <r_i_glide_energy>  (1) 
-17.535587091713996

>  <r_i_glide_erotb>  (1) 
0.56507953808565226

>  <r_i_glide_esite>  (1) 
0

>  <r_i_glide_evdw>  (1) 
-16.288184199445045

>  <r_i_glide_gscore>  (1) 
-4.8067365319780464

>  <r_i_glide_gscore_strain>  (1) 
0

>  <r_i_glide_hbond>  (1) 
-0.34660889618521429

>  <r_i_glide_ligand_efficiency>  (1) 
-0.12298840344513523

>  <r_i_glide_ligand_efficiency_ln>  (1) 
-1.0077568739317775

>  <r_i_glide_ligand_efficiency_sa>  (1) 
-0.41348398770401362

>  <r_i_glide_lipo>  (1) 
-3.3068268081313117

>  <r_i_glide_metal>  (1) 
-0

>  <r_i_glide_rewards>  (1) 
-0.71686072193457739

>  <r_lp_Energy>  (1) 
45.276491999999998

>  <s_epik_cmdline>  (1) 
J2VwaWtfcHl0aG9uJywgJy1waHQnLCAnMS4wJywgJy1waCcsICc3LjQnLCAnLXRuJywgJzgnLCAnLW1hJywgJzUwMCcsICctaW1hZScsICc8aW5maWxlLm1hZT4nLCAnLW9tYWUnLCAnPG91dGZpbGUubWFlPic=

>  <s_epik_input>  (1) 
W0NIM11bQ0hdKFtDSDNdKVtDSDJdW0NIMl1bQ0BASF0oW09IXSlbQ0gyXVtDQEhdKFtDSDNdKU9bQ0gyXVtDQEBIXShbQ0gyXVtDSDJdMSlbQ0gyXVtDQEhdKFtDSDJdUCg9TykoW09IXSlbT0hdKVtDQEhdMVtDQEBIXShbQ0gyXVtDSDJdMilbQ0BASF0oW0NAXTIzW09IXSlbQ0BASF0oRilbQ0BIXShGKVtDSDJdW0NIMl1bQ0gyXVtDSDJdW0NIMl0z

>  <s_glide_docking_method>  (1) 
confgen

>  <s_i_glide_gridfile>  (1) 
gpcr_drd2_6luq_protein_autoprepared_prepared

>  <s_lp_Force_Field>  (1) 
S-OPLS

>  <s_lp_Variant>  (1) 
DiffSBDD_1-2

>  <s_m_source_file>  (1) 
generated_generic_title2_ligand_DiffSBDD_2026-06-23_prepared.sdf

>  <GenAI_Model>  (1) 
DiffSBDD

>  <Protein>  (1) 
generic_title2

$$$$
DiffSBDD_3
     RDKit          3D

  0  0  0  0  0  0  0  0  0  0999 V3000
M  V30 BEGIN CTAB
M  V30 COUNTS 27 27 0 0 1
M  V30 BEGIN ATOM
M  V30 1 C 8.076461 5.153185 -12.715202 0
M  V30 2 C 7.070485 6.031349 -12.244840 0
M  V30 3 C 6.654495 6.651415 -14.555291 0
M  V30 4 C 10.522433 8.218477 -8.993603 0
M  V30 5 C 9.574544 5.878167 -8.565445 0
M  V30 6 N 7.605679 5.804120 -15.009489 0
M  V30 7 C 9.712559 7.318353 -8.049669 0
M  V30 8 Cl 5.775350 7.590234 -15.702104 0
M  V30 9 C 6.353786 6.790236 -13.184610 0
M  V30 10 N 9.036022 4.483979 -10.530402 0 CHG=1
M  V30 11 C 8.660337 5.710762 -9.795724 0
M  V30 12 C 8.887786 4.272966 -11.814734 0
M  V30 13 C 8.290341 5.072475 -14.105206 0
M  V30 14 H 6.830457 6.115377 -11.205820 0
M  V30 15 H 10.705522 9.190219 -8.539276 0
M  V30 16 H 11.493243 7.779479 -9.225133 0
M  V30 17 H 9.996738 8.390610 -9.932609 0
M  V30 18 H 9.196894 5.245698 -7.761281 0
M  V30 19 H 10.575405 5.511278 -8.784933 0
M  V30 20 H 8.731239 7.751598 -7.861297 0
M  V30 21 H 10.216249 7.293154 -7.082605 0
M  V30 22 H 5.578375 7.469847 -12.860898 0
M  V30 23 H 8.765480 6.567606 -10.459758 0
M  V30 24 H 7.633333 5.590249 -9.447817 0
M  V30 25 H 9.384269 3.415715 -12.259949 0
M  V30 26 H 9.037450 4.401589 -14.504545 0
M  V30 27 H 9.568556 3.798699 -10.000982 0
M  V30 END ATOM
M  V30 BEGIN BOND
M  V30 1 1 2 1
M  V30 2 2 6 3
M  V30 3 1 7 4
M  V30 4 1 7 5
M  V30 5 1 8 3
M  V30 6 2 9 2
M  V30 7 1 9 3
M  V30 8 1 11 5
M  V30 9 1 11 10
M  V30 10 1 12 1
M  V30 11 2 12 10
M  V30 12 2 13 1
M  V30 13 1 13 6
M  V30 14 1 14 2
M  V30 15 1 15 4
M  V30 16 1 16 4
M  V30 17 1 17 4
M  V30 18 1 18 5
M  V30 19 1 19 5
M  V30 20 1 20 7
M  V30 21 1 21 7
M  V30 22 1 22 9
M  V30 23 1 23 11
M  V30 24 1 24 11
M  V30 25 1 25 12
M  V30 26 1 26 13
M  V30 27 1 27 10
M  V30 END BOND
M  V30 END CTAB
M  END
>  <i_epik_Tot_Q>  (1) 
1

>  <i_epik_Tot_abs_Q>  (1) 
1

>  <i_i_glide_confnum>  (1) 
3

>  <i_i_glide_lignum>  (1) 
26

>  <i_i_glide_posenum>  (1) 
146

>  <i_i_glide_rotatable_bonds>  (1) 
4

>  <i_lp_mmshare_version>  (1) 
72125

>  <i_m_source_file_index>  (1) 
4

>  <i_f3d_flags>  (1) 
0

>  <num_sample>  (1) 
50

>  <b_lp_Chiralities_Consistent>  (1) 
1

>  <r_epik_Charging_Adjusted_Penalty>  (1) 
0.029699158874294952

>  <r_epik_Ionization_Penalty>  (1) 
0.014849585528506534

>  <r_epik_Ionization_Penalty_Charging>  (1) 
0.014849579437147471

>  <r_epik_Ionization_Penalty_Neutral>  (1) 
6.091359062829099e-09

>  <r_epik_State_Penalty>  (1) 
0.01484957943714748

>  <r_glide_ring_energy>  (1) 
0

>  <r_i_docking_score>  (1) 
-4.6732018363820886

>  <r_i_glide_ecoul>  (1) 
-5.7435577693841031

>  <r_i_glide_eff_state_penalty>  (1) 
0.01484957943714748

>  <r_i_glide_einternal>  (1) 
4.2523298101763078

>  <r_i_glide_emodel>  (1) 
-35.479363032031195

>  <r_i_glide_emodel_strain>  (1) 
0.34443358007416691

>  <r_i_glide_energy>  (1) 
-26.303849135729259

>  <r_i_glide_erotb>  (1) 
0.83262420793162661

>  <r_i_glide_esite>  (1) 
0

>  <r_i_glide_evdw>  (1) 
-20.560291366345155

>  <r_i_glide_gscore>  (1) 
-4.6880514158192357

>  <r_i_glide_gscore_strain>  (1) 
0

>  <r_i_glide_hbond>  (1) 
0

>  <r_i_glide_ligand_efficiency>  (1) 
-0.35947706433708376

>  <r_i_glide_ligand_efficiency_ln>  (1) 
-1.3108746766909742

>  <r_i_glide_ligand_efficiency_sa>  (1) 
-0.84525089081581162

>  <r_i_glide_lipo>  (1) 
-0.71935820758367564

>  <r_i_glide_metal>  (1) 
-0

>  <r_i_glide_rewards>  (1) 
-2.9117691824423133

>  <r_lp_Energy>  (1) 
25.723572999999998

>  <s_epik_Chemistry_Notes>  (1) 
This compound has an imine and may undergo hydrolysis.

>  <s_epik_cmdline>  (1) 
J2VwaWtfcHl0aG9uJywgJy1waHQnLCAnMS4wJywgJy1waCcsICc3LjQnLCAnLXRuJywgJzgnLCAnLW1hJywgJzUwMCcsICctaW1hZScsICc8aW5maWxlLm1hZT4nLCAnLW9tYWUnLCAnPG91dGZpbGUubWFlPic=

>  <s_epik_input>  (1) 
W2NIXTFuYyhDbClbY0hdW2NIXWMxL1tDSF09TlxbQ0gyXVtDSDJdW0NIMl1bQ0gzXQ==

>  <s_glide_docking_method>  (1) 
confgen

>  <s_i_glide_gridfile>  (1) 
gpcr_drd2_6luq_protein_autoprepared_prepared

>  <s_lp_Force_Field>  (1) 
S-OPLS

>  <s_lp_Variant>  (1) 
DiffSBDD_3-2

>  <s_m_source_file>  (1) 
generated_generic_title2_ligand_DiffSBDD_2026-06-23_prepared.sdf

>  <GenAI_Model>  (1) 
DiffSBDD

>  <Protein>  (1) 
generic_title2

$$$$
DiffSBDD_36
     RDKit          3D

  0  0  0  0  0  0  0  0  0  0999 V3000
M  V30 BEGIN CTAB
M  V30 COUNTS 34 34 0 0 1
M  V30 BEGIN ATOM
M  V30 1 C 5.545993 7.318382 -12.145140 0
M  V30 2 O 9.375411 6.979523 -10.222272 0
M  V30 3 C 8.930295 6.474120 -11.460283 0 CFG=1
M  V30 4 C 5.540084 7.121327 -16.402737 0
M  V30 5 O 7.692741 4.138808 -13.289335 0
M  V30 6 C 5.209866 6.641943 -17.801523 0 CFG=1
M  V30 7 O 5.375410 7.590227 -18.689568 0 CHG=-1
M  V30 8 C 6.491348 6.500884 -15.712813 0
M  V30 9 C 10.069783 5.709461 -12.141218 0
M  V30 10 S 6.821127 4.851034 -12.343548 0
M  V30 11 C 4.767204 8.315817 -15.874890 0
M  V30 12 N 7.811999 5.590227 -11.137572 0
M  V30 13 O 6.449899 4.942933 -19.050788 0
M  V30 14 C 6.934660 6.882112 -14.305820 0
M  V30 15 C 6.297311 5.541004 -17.985032 0
M  V30 16 S 7.313566 5.190228 -16.495664 0
M  V30 17 C 6.028118 6.294196 -13.191451 0 CFG=2
M  V30 18 O 5.775398 4.120941 -11.614075 0
M  V30 19 H 4.865116 8.045962 -12.577945 0
M  V30 20 H 5.008549 6.827283 -11.333049 0
M  V30 21 H 6.369794 7.875376 -11.702020 0
M  V30 22 H 8.648539 7.450787 -9.819807 0
M  V30 23 H 8.598068 7.312497 -12.070608 0
M  V30 24 H 4.262826 6.112115 -17.703862 0
M  V30 25 H 9.844090 5.495759 -13.185029 0
M  V30 26 H 10.996609 6.282791 -12.128698 0
M  V30 27 H 10.237877 4.753152 -11.646439 0
M  V30 28 H 5.314448 9.192688 -16.205862 0
M  V30 29 H 3.739832 8.370124 -16.240206 0
M  V30 30 H 4.730251 8.354581 -14.791248 0
M  V30 31 H 7.263511 5.921924 -10.340695 0
M  V30 32 H 6.975408 7.969290 -14.240617 0
M  V30 33 H 7.966081 6.560834 -14.177074 0
M  V30 34 H 5.138557 5.878216 -13.665009 0
M  V30 END ATOM
M  V30 BEGIN BOND
M  V30 1 1 3 2
M  V30 2 1 6 4
M  V30 3 1 7 6
M  V30 4 2 8 4
M  V30 5 1 9 3
M  V30 6 2 10 5
M  V30 7 1 11 4
M  V30 8 1 12 3
M  V30 9 1 12 10
M  V30 10 1 14 8
M  V30 11 1 15 6
M  V30 12 2 15 13
M  V30 13 1 16 8
M  V30 14 1 16 15
M  V30 15 1 17 1
M  V30 16 1 17 10
M  V30 17 1 17 14
M  V30 18 2 18 10
M  V30 19 1 19 1
M  V30 20 1 20 1
M  V30 21 1 21 1
M  V30 22 1 22 2
M  V30 23 1 3 23 CFG=3
M  V30 24 1 6 24 CFG=1
M  V30 25 1 25 9
M  V30 26 1 26 9
M  V30 27 1 27 9
M  V30 28 1 28 11
M  V30 29 1 29 11
M  V30 30 1 30 11
M  V30 31 1 31 12
M  V30 32 1 32 14
M  V30 33 1 33 14
M  V30 34 1 17 34 CFG=3
M  V30 END BOND
M  V30 END CTAB
M  END
>  <i_epik_Tot_Q>  (1) 
-1

>  <i_epik_Tot_abs_Q>  (1) 
1

>  <i_i_glide_confnum>  (1) 
62

>  <i_i_glide_lignum>  (1) 
99

>  <i_i_glide_posenum>  (1) 
311

>  <i_i_glide_rotatable_bonds>  (1) 
6

>  <i_lp_mmshare_version>  (1) 
72125

>  <i_m_source_file_index>  (1) 
37

>  <i_f3d_flags>  (1) 
0

>  <num_sample>  (1) 
50

>  <b_lp_Chiralities_Consistent>  (1) 
1

>  <r_epik_Charging_Adjusted_Penalty>  (1) 
0.051395495470861363

>  <r_epik_Ionization_Penalty>  (1) 
0.025821951155603234

>  <r_epik_Ionization_Penalty_Charging>  (1) 
0.025697747735430668

>  <r_epik_Ionization_Penalty_Neutral>  (1) 
0.00012420342017256702

>  <r_epik_State_Penalty>  (1) 
0.025697747735430692

>  <r_glide_ring_energy>  (1) 
0

>  <r_i_docking_score>  (1) 
-4.653546744107623

>  <r_i_glide_ecoul>  (1) 
-5.053122541829751

>  <r_i_glide_eff_state_penalty>  (1) 
0.025697747735430692

>  <r_i_glide_einternal>  (1) 
7.5594709860749063

>  <r_i_glide_emodel>  (1) 
-36.994228691176176

>  <r_i_glide_emodel_strain>  (1) 
1.1163101882148361

>  <r_i_glide_energy>  (1) 
-32.386822497419161

>  <r_i_glide_erotb>  (1) 
1.0552049389146296

>  <r_i_glide_esite>  (1) 
-0.12731899992792292

>  <r_i_glide_evdw>  (1) 
-27.33369995558941

>  <r_i_glide_gscore>  (1) 
-4.679244491843054

>  <r_i_glide_gscore_strain>  (1) 
0

>  <r_i_glide_hbond>  (1) 
-0.23409971686711895

>  <r_i_glide_ligand_efficiency>  (1) 
-0.25853037467264572

>  <r_i_glide_ligand_efficiency_ln>  (1) 
-1.1961701949595089

>  <r_i_glide_ligand_efficiency_sa>  (1) 
-0.67754125456493797

>  <r_i_glide_lipo>  (1) 
-1.3277202380981439

>  <r_i_glide_metal>  (1) 
-0

>  <r_i_glide_rewards>  (1) 
-1.9206570968105643

>  <r_lp_Energy>  (1) 
-5.848738

>  <s_epik_Chemistry_Notes>  (1) 
This compound contains an acetal/aminal-like group ( X-CH(R)-Y where X, Y are N, S, or O) that may be acid/base labile, releasing an aldehyde.

>  <s_epik_cmdline>  (1) 
J2VwaWtfcHl0aG9uJywgJy1waHQnLCAnMS4wJywgJy1waCcsICc3LjQnLCAnLXRuJywgJzgnLCAnLW1hJywgJzUwMCcsICctaW1hZScsICc8aW5maWxlLm1hZT4nLCAnLW9tYWUnLCAnPG91dGZpbGUubWFlPic=

>  <s_epik_input>  (1) 
W09IXVtDQEBIXShbQ0gzXSlbTkhdUyg9TykoPU8pW0NAQEhdKFtDSDNdKVtDSDJdQyg9QzFbQ0gzXSlTQyg9TylbQ0BASF0xW09IXQ==

>  <s_glide_docking_method>  (1) 
confgen

>  <s_i_glide_gridfile>  (1) 
gpcr_drd2_6luq_protein_autoprepared_prepared

>  <s_lp_Force_Field>  (1) 
S-OPLS

>  <s_lp_Variant>  (1) 
DiffSBDD_36-1

>  <s_m_source_file>  (1) 
generated_generic_title2_ligand_DiffSBDD_2026-06-23_prepared.sdf

>  <GenAI_Model>  (1) 
DiffSBDD

>  <Protein>  (1) 
generic_title2

$$$$
DiffSBDD_9
     RDKit          3D

  0  0  0  0  0  0  0  0  0  0999 V3000
M  V30 BEGIN CTAB
M  V30 COUNTS 77 78 0 0 1
M  V30 BEGIN ATOM
M  V30 1 C 10.749104 6.660240 -9.241607 0
M  V30 2 F 9.775250 5.640640 -22.315845 0
M  V30 3 C 8.192136 4.378696 -16.125713 0 CFG=1
M  V30 4 O 10.110452 4.760859 -20.326030 0
M  V30 5 F 6.687370 2.380507 -13.222349 0
M  V30 6 C 7.288119 5.240485 -13.831053 0 CFG=2
M  V30 7 O 12.812434 9.190592 -4.027735 0
M  V30 8 C 8.481261 5.122875 -11.025024 0
M  V30 9 C 6.424107 4.942305 -12.585637 0 CFG=2
M  V30 10 F 8.121266 4.646834 -21.352220 0
M  V30 11 O 9.375310 4.305252 -11.236740 0
M  V30 12 C 12.431378 9.590093 -5.126828 0
M  V30 13 C 10.210224 5.672471 -18.035473 0
M  V30 14 C 8.183095 3.322606 -17.257156 0
M  V30 15 O 12.338720 3.920771 -18.992084 0
M  V30 16 F 9.791663 7.590966 -20.364382 0
M  V30 17 C 10.375824 7.548185 -8.070129 0
M  V30 18 C 10.061122 6.953680 -10.579932 0
M  V30 19 F 10.867004 2.376579 -19.725014 0
M  V30 20 O 9.640975 8.522178 -8.207802 0
M  V30 21 C 9.203934 5.424478 -21.105624 0
M  V30 22 N 8.721747 6.389684 -10.663865 0
M  V30 23 C 11.066949 3.341781 -18.793727 0
M  V30 24 C 7.039293 6.668324 -14.403025 0
M  V30 25 O 7.716773 1.584002 -15.002157 0
M  V30 26 F 11.065317 2.718265 -17.591990 0
M  V30 27 C 9.944712 4.428497 -18.927785 0 CFG=2
M  V30 28 C 7.291038 4.053219 -14.865250 0 CFG=2
M  V30 29 C 9.614370 4.790193 -15.742937 0
M  V30 30 O 6.304846 5.958772 -11.586513 0
M  V30 31 C 7.628453 2.694074 -14.143922 0 CFG=1
M  V30 32 C 5.575100 6.941278 -14.750261 0
M  V30 33 C 7.629912 7.770139 -13.506373 0
M  V30 34 C 10.969414 9.487326 -5.526136 0
M  V30 35 C 7.031957 4.789966 -11.188472 0 CFG=2
M  V30 36 C 10.495913 5.355834 -16.582983 0
M  V30 37 C 8.743312 6.810870 -20.627776 0
M  V30 38 C 10.457190 8.033638 -5.554969 0
M  V30 39 C 8.520909 3.844225 -18.671492 0
M  V30 40 C 10.971574 7.178409 -6.715288 0
M  V30 41 H 10.575700 5.622401 -8.952939 0
M  V30 42 H 11.820502 6.791899 -9.378166 0
M  V30 43 H 7.734823 5.235144 -16.614274 0
M  V30 44 H 8.319948 5.284921 -13.509048 0
M  V30 45 H 5.468373 4.462259 -12.787975 0
M  V30 46 H 13.092734 10.032720 -5.870246 0
M  V30 47 H 11.068965 6.225974 -18.416595 0
M  V30 48 H 9.375332 6.367410 -18.047389 0
M  V30 49 H 8.830301 2.485275 -17.011843 0
M  V30 50 H 7.179008 2.900464 -17.316124 0
M  V30 51 H 12.662268 3.604962 -19.820335 0
M  V30 52 H 10.669294 6.579484 -11.405272 0
M  V30 53 H 9.987429 8.028052 -10.749087 0
M  V30 54 H 7.929101 7.009169 -10.468786 0
M  V30 55 H 7.608528 6.790263 -15.314393 0
M  V30 56 H 7.212007 0.882289 -14.618023 0
M  V30 57 H 6.267885 3.955364 -15.219291 0
M  V30 58 H 9.915187 4.597471 -14.724444 0
M  V30 59 H 8.577742 2.782597 -13.622987 0
M  V30 60 H 4.975824 6.953738 -13.842264 0
M  V30 61 H 5.462278 7.911414 -15.234200 0
M  V30 62 H 5.171292 6.183873 -15.422829 0
M  V30 63 H 7.006515 7.989948 -12.641667 0
M  V30 64 H 8.614651 7.492768 -13.142300 0
M  V30 65 H 7.772563 8.695591 -14.059335 0
M  V30 66 H 10.836395 9.967915 -6.491857 0
M  V30 67 H 10.398393 10.071491 -4.807666 0
M  V30 68 H 6.540615 4.162000 -10.447336 0
M  V30 69 H 11.482664 5.607156 -16.222191 0
M  V30 70 H 8.166711 7.310260 -21.406815 0
M  V30 71 H 8.108792 6.762458 -19.744886 0
M  V30 72 H 9.369335 8.036798 -5.592626 0
M  V30 73 H 10.726619 7.526040 -4.629970 0
M  V30 74 H 7.768212 4.592481 -18.914698 0
M  V30 75 H 8.353310 3.024622 -19.370452 0
M  V30 76 H 10.725436 6.132577 -6.525970 0
M  V30 77 H 12.056970 7.236558 -6.785529 0
M  V30 END ATOM
M  V30 BEGIN BOND
M  V30 1 1 9 6
M  V30 2 2 11 8
M  V30 3 2 12 7
M  V30 4 1 14 3
M  V30 5 1 17 1
M  V30 6 1 18 1
M  V30 7 2 20 17
M  V30 8 1 21 2
M  V30 9 1 21 4
M  V30 10 1 21 10
M  V30 11 1 22 8
M  V30 12 1 22 18
M  V30 13 1 23 15
M  V30 14 1 23 19
M  V30 15 1 24 6
M  V30 16 1 26 23
M  V30 17 1 27 4 CFG=3
M  V30 18 1 27 13
M  V30 19 1 27 23
M  V30 20 1 28 3
M  V30 21 1 28 6
M  V30 22 1 29 3
M  V30 23 1 30 9
M  V30 24 1 31 5
M  V30 25 1 31 25
M  V30 26 1 31 28
M  V30 27 1 32 24
M  V30 28 1 33 24
M  V30 29 1 34 12
M  V30 30 1 35 8
M  V30 31 1 35 9
M  V30 32 1 35 30
M  V30 33 1 36 13
M  V30 34 2 36 29
M  V30 35 1 37 16
M  V30 36 1 37 21
M  V30 37 1 38 34
M  V30 38 1 39 14
M  V30 39 1 39 27
M  V30 40 1 40 17
M  V30 41 1 40 38
M  V30 42 1 41 1
M  V30 43 1 42 1
M  V30 44 1 3 43 CFG=3
M  V30 45 1 6 44 CFG=1
M  V30 46 1 9 45 CFG=3
M  V30 47 1 46 12
M  V30 48 1 47 13
M  V30 49 1 48 13
M  V30 50 1 49 14
M  V30 51 1 50 14
M  V30 52 1 51 15
M  V30 53 1 52 18
M  V30 54 1 53 18
M  V30 55 1 54 22
M  V30 56 1 55 24
M  V30 57 1 56 25
M  V30 58 1 28 57 CFG=3
M  V30 59 1 58 29
M  V30 60 1 31 59 CFG=1
M  V30 61 1 60 32
M  V30 62 1 61 32
M  V30 63 1 62 32
M  V30 64 1 63 33
M  V30 65 1 64 33
M  V30 66 1 65 33
M  V30 67 1 66 34
M  V30 68 1 67 34
M  V30 69 1 35 68 CFG=1
M  V30 70 1 69 36
M  V30 71 1 70 37
M  V30 72 1 71 37
M  V30 73 1 72 38
M  V30 74 1 73 38
M  V30 75 1 74 39
M  V30 76 1 75 39
M  V30 77 1 76 40
M  V30 78 1 77 40
M  V30 END BOND
M  V30 END CTAB
M  END
>  <i_epik_Tot_Q>  (1) 
0

>  <i_epik_Tot_abs_Q>  (1) 
0

>  <i_i_glide_confnum>  (1) 
4549

>  <i_i_glide_lignum>  (1) 
45

>  <i_i_glide_posenum>  (1) 
171

>  <i_i_glide_rotatable_bonds>  (1) 
20

>  <i_lp_mmshare_version>  (1) 
72125

>  <i_m_source_file_index>  (1) 
10

>  <i_f3d_flags>  (1) 
0

>  <num_sample>  (1) 
50

>  <b_lp_Chiralities_Consistent>  (1) 
1

>  <r_epik_Charging_Adjusted_Penalty>  (1) 
0.024791601223723252

>  <r_epik_Ionization_Penalty>  (1) 
0.024829857689501161

>  <r_epik_Ionization_Penalty_Charging>  (1) 
0

>  <r_epik_Ionization_Penalty_Neutral>  (1) 
0.024829857689501161

>  <r_epik_State_Penalty>  (1) 
0.024791601223723252

>  <r_glide_ring_energy>  (1) 
0

>  <r_i_docking_score>  (1) 
-4.6398586385988176

>  <r_i_glide_ecoul>  (1) 
-1.4608798427108776

>  <r_i_glide_eff_state_penalty>  (1) 
0.024791601223723252

>  <r_i_glide_einternal>  (1) 
10.480716221995639

>  <r_i_glide_emodel>  (1) 
-39.347764600182174

>  <r_i_glide_emodel_strain>  (1) 
1.0582878372549942

>  <r_i_glide_energy>  (1) 
-35.550924927254812

>  <r_i_glide_erotb>  (1) 
0.79596426883134463

>  <r_i_glide_esite>  (1) 
-0.13637932926437968

>  <r_i_glide_evdw>  (1) 
-34.090045084543931

>  <r_i_glide_gscore>  (1) 
-4.6646502398225405

>  <r_i_glide_gscore_strain>  (1) 
0

>  <r_i_glide_hbond>  (1) 
-0.16

>  <r_i_glide_ligand_efficiency>  (1) 
-0.11599646596497044

>  <r_i_glide_ligand_efficiency_ln>  (1) 
-0.98954530266882668

>  <r_i_glide_ligand_efficiency_sa>  (1) 
-0.39670233339920324

>  <r_i_glide_lipo>  (1) 
-1.8328767009864997

>  <r_i_glide_metal>  (1) 
-0

>  <r_i_glide_rewards>  (1) 
-1.407724247769178

>  <r_lp_Energy>  (1) 
29.47728

>  <r_lp_tautomer_probability>  (1) 
0.99989996500775002

>  <s_epik_cmdline>  (1) 
J2VwaWtfcHl0aG9uJywgJy1waHQnLCAnMS4wJywgJy1waCcsICc3LjQnLCAnLXRuJywgJzgnLCAnLW1hJywgJzUwMCcsICctaW1hZScsICc8aW5maWxlLm1hZT4nLCAnLW9tYWUnLCAnPG91dGZpbGUubWFlPic=

>  <s_epik_input>  (1) 
Tz1bQ0hdW0NIMl1bQ0gyXVtDSDJdQyg9TylbQ0gyXVtDSDJdW05IXUMoPU8pW0NASF0xT1tDQEhdMVtDQEhdKFtDSF0oW0NIM10pW0NIM10pW0NASF0oW0NAQEhdKEYpW09IXSlbQ0BIXShbQ0gyXVtDSDJdMilbQ0hdPVtDSF1bQ0gyXVtDQF0yKEMoRikoRilbT0hdKU9DKEYpKEYpW0NIMl1G

>  <s_glide_docking_method>  (1) 
confgen

>  <s_i_glide_gridfile>  (1) 
gpcr_drd2_6luq_protein_autoprepared_prepared

>  <s_lp_Force_Field>  (1) 
S-OPLS

>  <s_lp_Variant>  (1) 
DiffSBDD_9-2

>  <s_m_source_file>  (1) 
generated_generic_title2_ligand_DiffSBDD_2026-06-23_prepared.sdf

>  <GenAI_Model>  (1) 
DiffSBDD

>  <Protein>  (1) 
generic_title2

$$$$
DiffSBDD_20
     RDKit          3D

  0  0  0  0  0  0  0  0  0  0999 V3000
M  V30 BEGIN CTAB
M  V30 COUNTS 71 73 0 0 1
M  V30 BEGIN ATOM
M  V30 1 C 5.623812 6.618811 -19.972440 0
M  V30 2 C 6.637165 1.722858 -13.925624 0
M  V30 3 C 7.177638 4.320503 -16.208325 0 CFG=1
M  V30 4 C 6.266861 5.460018 -19.800608 0
M  V30 5 C 5.213979 7.592926 -18.946611 0 CFG=1
M  V30 6 C 11.484299 8.014375 -9.173712 0
M  V30 7 C 9.113314 6.894991 -10.872741 0 CFG=1
M  V30 8 F 3.978022 7.990246 -19.218008 0
M  V30 9 C 8.148943 4.663963 -11.782154 0
M  V30 10 O 9.375415 8.689501 -8.493900 0
M  V30 11 C 8.214436 5.024396 -15.320850 0
M  V30 12 C 7.925942 6.178909 -11.557849 0 CFG=2
M  V30 13 C 9.136595 6.596677 -6.348810 0
M  V30 14 C 6.732885 4.828931 -18.555343 0
M  V30 15 C 6.584855 5.246606 -17.266265 0
M  V30 16 C 5.895840 6.462612 -16.787533 0
M  V30 17 C 9.341349 6.493875 -9.381835 0 CFG=2
M  V30 18 C 7.191161 1.715142 -16.487434 0
M  V30 19 N 8.575408 4.198458 -14.149073 0 CHG=1
M  V30 20 C 7.563004 1.246402 -15.063910 0
M  V30 21 C 11.558917 6.174004 -6.783353 0
M  V30 22 C 7.572155 4.040620 -13.070510 0 CFG=1
M  V30 23 O 7.663914 6.896893 -12.746907 0
M  V30 24 C 10.165965 7.524812 -8.530662 0 CFG=1
M  V30 25 S 7.578685 3.314710 -18.715455 0
M  V30 26 C 5.318526 7.444795 -17.484619 0
M  V30 27 C 10.389288 7.135901 -7.037564 0
M  V30 28 C 7.293718 2.542628 -12.805093 0
M  V30 29 C 7.783926 3.072387 -16.926725 0 CFG=1
M  V30 30 O 9.775407 5.163516 -9.248848 0
M  V30 31 N 10.327042 6.789925 -11.707340 0
M  V30 32 H 5.369007 6.901036 -20.984256 0
M  V30 33 H 6.215404 0.829261 -13.462099 0
M  V30 34 H 5.775414 2.256918 -14.292755 0
M  V30 35 H 6.345433 4.026398 -15.577308 0
M  V30 36 H 6.474218 4.907728 -20.706137 0
M  V30 37 H 5.775404 8.490446 -19.186436 0
M  V30 38 H 12.142953 7.190063 -9.439659 0
M  V30 39 H 12.032106 8.672410 -8.498020 0
M  V30 40 H 11.305952 8.590154 -10.082229 0
M  V30 41 H 8.834943 7.949213 -10.848068 0
M  V30 42 H 9.208143 4.411303 -11.729184 0
M  V30 43 H 7.720351 4.170141 -10.908926 0
M  V30 44 H 8.471630 8.433727 -8.688497 0
M  V30 45 H 9.118888 5.219559 -15.898984 0
M  V30 46 H 7.866446 5.999005 -14.996447 0
M  V30 47 H 7.025051 6.291010 -10.956021 0
M  V30 48 H 8.782308 5.663889 -6.785033 0
M  V30 49 H 8.320507 7.318137 -6.385036 0
M  V30 50 H 9.375349 6.390237 -5.305466 0
M  V30 51 H 5.848491 6.576493 -15.714726 0
M  V30 52 H 8.358210 6.390223 -8.926957 0
M  V30 53 H 7.577195 0.961911 -17.177145 0
M  V30 54 H 6.111988 1.694361 -16.628865 0
M  V30 55 H 8.809076 3.274534 -14.479177 0
M  V30 56 H 8.598039 1.476216 -14.842640 0
M  V30 57 H 7.526407 0.155571 -15.068892 0
M  V30 58 H 11.375369 5.190239 -7.208166 0
M  V30 59 H 11.719777 6.028250 -5.715206 0
M  V30 60 H 12.486474 6.573285 -7.184982 0
M  V30 61 H 6.630485 4.527002 -13.328397 0
M  V30 62 H 7.380638 7.764795 -12.494454 0
M  V30 63 H 4.867433 8.249856 -16.923330 0
M  V30 64 H 10.658003 8.052291 -6.508687 0
M  V30 65 H 6.575394 2.507308 -11.985044 0
M  V30 66 H 8.194306 2.037088 -12.451020 0
M  V30 67 H 8.862980 3.036431 -16.770387 0
M  V30 68 H 10.720221 5.154875 -9.221359 0
M  V30 69 H 10.620086 5.817346 -11.765746 0
M  V30 70 H 10.098760 7.084909 -12.655544 0
M  V30 71 H 9.403469 4.601453 -13.733115 0
M  V30 END ATOM
M  V30 BEGIN BOND
M  V30 1 2 4 1
M  V30 2 1 5 1
M  V30 3 1 8 5
M  V30 4 1 11 3
M  V30 5 1 12 7
M  V30 6 1 12 9
M  V30 7 1 14 4
M  V30 8 1 15 3
M  V30 9 2 15 14
M  V30 10 1 16 15
M  V30 11 1 17 7
M  V30 12 1 19 11
M  V30 13 1 20 2
M  V30 14 1 20 18
M  V30 15 1 22 9
M  V30 16 1 22 19
M  V30 17 1 23 12
M  V30 18 1 24 6
M  V30 19 1 24 10 CFG=1
M  V30 20 1 24 17
M  V30 21 1 25 14
M  V30 22 1 26 5
M  V30 23 2 26 16
M  V30 24 1 27 13
M  V30 25 1 27 21
M  V30 26 1 27 24
M  V30 27 1 28 2
M  V30 28 1 28 22
M  V30 29 1 29 3
M  V30 30 1 29 18
M  V30 31 1 29 25
M  V30 32 1 30 17
M  V30 33 1 31 7
M  V30 34 1 32 1
M  V30 35 1 33 2
M  V30 36 1 34 2
M  V30 37 1 3 35 CFG=1
M  V30 38 1 36 4
M  V30 39 1 5 37 CFG=3
M  V30 40 1 38 6
M  V30 41 1 39 6
M  V30 42 1 40 6
M  V30 43 1 7 41 CFG=1
M  V30 44 1 42 9
M  V30 45 1 43 9
M  V30 46 1 44 10
M  V30 47 1 45 11
M  V30 48 1 46 11
M  V30 49 1 12 47 CFG=1
M  V30 50 1 48 13
M  V30 51 1 49 13
M  V30 52 1 50 13
M  V30 53 1 51 16
M  V30 54 1 17 52 CFG=1
M  V30 55 1 53 18
M  V30 56 1 54 18
M  V30 57 1 55 19
M  V30 58 1 56 20
M  V30 59 1 57 20
M  V30 60 1 58 21
M  V30 61 1 59 21
M  V30 62 1 60 21
M  V30 63 1 22 61 CFG=3
M  V30 64 1 62 23
M  V30 65 1 63 26
M  V30 66 1 64 27
M  V30 67 1 65 28
M  V30 68 1 66 28
M  V30 69 1 29 67 CFG=3
M  V30 70 1 68 30
M  V30 71 1 69 31
M  V30 72 1 70 31
M  V30 73 1 71 19
M  V30 END BOND
M  V30 END CTAB
M  END
>  <i_epik_Tot_Q>  (1) 
1

>  <i_epik_Tot_abs_Q>  (1) 
1

>  <i_i_glide_confnum>  (1) 
72

>  <i_i_glide_lignum>  (1) 
66

>  <i_i_glide_posenum>  (1) 
295

>  <i_i_glide_rotatable_bonds>  (1) 
9

>  <i_lp_mmshare_version>  (1) 
72125

>  <i_m_source_file_index>  (1) 
21

>  <i_f3d_flags>  (1) 
0

>  <num_sample>  (1) 
50

>  <b_lp_Chiralities_Consistent>  (1) 
1

>  <r_epik_Charging_Adjusted_Penalty>  (1) 
1.0900107648315034

>  <r_epik_Ionization_Penalty>  (1) 
1.0648013143729294

>  <r_epik_Ionization_Penalty_Charging>  (1) 
0.018420486395911647

>  <r_epik_Ionization_Penalty_Neutral>  (1) 
1.0463808279770177

>  <r_epik_State_Penalty>  (1) 
1.0715902784355917

>  <r_glide_ring_energy>  (1) 
0

>  <r_i_docking_score>  (1) 
-4.639472949900548

>  <r_i_glide_ecoul>  (1) 
-8.4021636880721839

>  <r_i_glide_eff_state_penalty>  (1) 
1.0715902784355917

>  <r_i_glide_einternal>  (1) 
21.904455132935666

>  <r_i_glide_emodel>  (1) 
-28.265530024468433

>  <r_i_glide_emodel_strain>  (1) 
3.9104705826332236

>  <r_i_glide_energy>  (1) 
-32.00108361849604

>  <r_i_glide_erotb>  (1) 
0.38705737007943358

>  <r_i_glide_esite>  (1) 
0

>  <r_i_glide_evdw>  (1) 
-23.598919930423857

>  <r_i_glide_gscore>  (1) 
-5.7110632283361396

>  <r_i_glide_gscore_strain>  (1) 
0

>  <r_i_glide_hbond>  (1) 
-0.16

>  <r_i_glide_ligand_efficiency>  (1) 
-0.14966041773872735

>  <r_i_glide_ligand_efficiency_ln>  (1) 
-1.0463433329729832

>  <r_i_glide_ligand_efficiency_sa>  (1) 
-0.47014034071325184

>  <r_i_glide_lipo>  (1) 
-2.5939607660844994

>  <r_i_glide_metal>  (1) 
-0

>  <r_i_glide_rewards>  (1) 
-0.90388928259905232

>  <r_lp_Energy>  (1) 
43.646164999999996

>  <s_epik_cmdline>  (1) 
J2VwaWtfcHl0aG9uJywgJy1waHQnLCAnMS4wJywgJy1waCcsICc3LjQnLCAnLXRuJywgJzgnLCAnLW1hJywgJzUwMCcsICctaW1hZScsICc8aW5maWxlLm1hZT4nLCAnLW9tYWUnLCAnPG91dGZpbGUubWFlPic=

>  <s_epik_input>  (1) 
W0NIXTE9W0NIXVtDQEhdKEYpW0NIXT1bQ0hdQyg9QzFbQ0BIXTIzKVNbQ0BASF0zW0NIMl1bQ0gyXVtDSDJdW0NIMl1bQ0BIXShbTkhdW0NIMl0yKVtDSDJdW0NASF0oW09IXSlbQ0BIXShbTkgyXSlbQ0BASF0oW09IXSlbQ0BAXShbQ0gzXSkoW09IXSlbQ0hdKFtDSDNdKVtDSDNd

>  <s_glide_docking_method>  (1) 
confgen

>  <s_i_glide_gridfile>  (1) 
gpcr_drd2_6luq_protein_autoprepared_prepared

>  <s_lp_Force_Field>  (1) 
S-OPLS

>  <s_lp_Variant>  (1) 
DiffSBDD_20-3

>  <s_m_source_file>  (1) 
generated_generic_title2_ligand_DiffSBDD_2026-06-23_prepared.sdf

>  <GenAI_Model>  (1) 
DiffSBDD

>  <Protein>  (1) 
generic_title2

$$$$
DiffSBDD_39
     RDKit          3D

  0  0  0  0  0  0  0  0  0  0999 V3000
M  V30 BEGIN CTAB
M  V30 COUNTS 69 72 0 0 1
M  V30 BEGIN ATOM
M  V30 1 C 7.716871 5.821581 -15.052088 0
M  V30 2 F 6.279287 3.222555 -21.591702 0
M  V30 3 F 5.812641 3.356480 -19.486332 0
M  V30 4 C 11.512983 8.823568 -9.586548 0
M  V30 5 C 7.533523 6.479153 -12.588594 0
M  V30 6 C 6.674060 4.778775 -10.997890 0 CFG=1
M  V30 7 O 12.740191 8.790224 -8.888042 0
M  V30 8 C 7.231026 6.156359 -19.500465 0 CFG=2
M  V30 9 C 7.554152 3.009515 -14.373736 0
M  V30 10 C 8.870507 5.945398 -10.463716 0 CFG=2
M  V30 11 O 6.193084 7.554222 -21.211032 0
M  V30 12 C 7.596328 3.484202 -15.836908 0
M  V30 13 N 8.281134 4.799043 -15.973990 0 CFG=1 CHG=1
M  V30 14 C 4.925418 5.009233 -20.891919 0
M  V30 15 C 7.895346 5.369951 -13.600168 0 CFG=1
M  V30 16 C 8.421964 5.248687 -17.383798 0
M  V30 17 O 4.863240 6.089319 -19.956965 0
M  V30 18 C 7.034380 3.653944 -11.985027 0
M  V30 19 N 7.536277 5.990227 -11.176346 0 CFG=1 CHG=1
M  V30 20 C 10.847438 7.444620 -9.551668 0 CFG=1
M  V30 21 C 10.440947 7.061671 -8.122706 0
M  V30 22 C 7.132760 5.854341 -17.988449 0
M  V30 23 C 7.029940 4.111526 -13.434933 0 CFG=2
M  V30 24 C 5.975902 6.937867 -19.959531 0 CFG=1
M  V30 25 C 7.374930 4.878475 -20.332120 0
M  V30 26 C 9.890738 5.641609 -8.082910 0
M  V30 27 C 6.101681 4.068638 -20.576442 0
M  V30 28 O 8.466060 4.517356 -20.771171 0
M  V30 29 C 8.677477 5.475671 -8.989520 0
M  V30 30 O 5.377767 5.298180 -11.211509 0
M  V30 31 C 9.639642 7.315764 -10.514221 0
M  V30 32 H 6.656922 5.973370 -15.266034 0
M  V30 33 H 8.175409 6.790225 -15.185018 0
M  V30 34 H 10.856190 9.590227 -9.185084 0
M  V30 35 H 11.747600 9.087349 -10.609965 0
M  V30 36 H 6.536319 6.857155 -12.819349 0
M  V30 37 H 8.181742 7.343306 -12.715271 0
M  V30 38 H 6.640328 4.388527 -9.985043 0
M  V30 39 H 13.285326 9.511803 -9.185085 0
M  V30 40 H 8.100459 6.791083 -19.676649 0
M  V30 41 H 6.927696 2.119492 -14.296673 0
M  V30 42 H 8.550359 2.703088 -14.054615 0
M  V30 43 H 9.493857 5.201306 -10.961145 0
M  V30 44 H 6.775978 8.288647 -21.088341 0
M  V30 45 H 6.578518 3.559874 -16.205049 0
M  V30 46 H 8.096677 2.734610 -16.451911 0
M  V30 47 H 4.995107 5.389489 -21.912080 0
M  V30 48 H 3.987322 4.455831 -20.838984 0
M  V30 49 H 8.944253 5.112849 -13.435192 0
M  V30 50 H 9.219934 5.990219 -17.431353 0
M  V30 51 H 8.774662 4.403436 -17.975439 0
M  V30 52 H 6.337383 2.820512 -11.880666 0
M  V30 53 H 8.039444 3.293489 -11.759358 0
M  V30 54 H 11.631821 6.790227 -9.897229 0
M  V30 55 H 11.295022 7.130512 -7.448131 0
M  V30 56 H 9.690121 7.758976 -7.747280 0
M  V30 57 H 6.282385 5.196933 -17.807050 0
M  V30 58 H 6.902350 6.784747 -17.469474 0
M  V30 59 H 5.997613 4.341925 -13.707567 0
M  V30 60 H 5.746128 7.745856 -19.263960 0
M  V30 61 H 10.649230 4.923126 -8.374938 0
M  V30 62 H 9.610638 5.397912 -7.059944 0
M  V30 63 H 8.439979 4.414326 -8.953874 0
M  V30 64 H 7.835159 5.990226 -8.530384 0
M  V30 65 H 4.888538 5.204467 -10.404522 0
M  V30 66 H 8.975410 8.144359 -10.288222 0
M  V30 67 H 10.002658 7.495668 -11.525790 0
M  V30 68 H 9.228212 4.637999 -15.658418 0
M  V30 69 H 7.064380 6.716062 -10.628990 0
M  V30 END ATOM
M  V30 BEGIN BOND
M  V30 1 1 7 4
M  V30 2 1 12 9
M  V30 3 1 13 1
M  V30 4 1 13 12
M  V30 5 1 15 1
M  V30 6 1 15 5
M  V30 7 1 16 13
M  V30 8 1 17 14
M  V30 9 1 18 6
M  V30 10 1 19 5
M  V30 11 1 19 6
M  V30 12 1 19 10
M  V30 13 1 20 4
M  V30 14 1 21 20
M  V30 15 1 22 8
M  V30 16 1 22 16
M  V30 17 1 23 9
M  V30 18 1 23 15
M  V30 19 1 23 18
M  V30 20 1 24 8
M  V30 21 1 24 11
M  V30 22 1 24 17
M  V30 23 1 25 8
M  V30 24 1 26 21
M  V30 25 1 27 2
M  V30 26 1 27 3
M  V30 27 1 27 14
M  V30 28 1 27 25
M  V30 29 2 28 25
M  V30 30 1 29 10
M  V30 31 1 29 26
M  V30 32 1 30 6
M  V30 33 1 31 10
M  V30 34 1 31 20
M  V30 35 1 32 1
M  V30 36 1 33 1
M  V30 37 1 34 4
M  V30 38 1 35 4
M  V30 39 1 36 5
M  V30 40 1 37 5
M  V30 41 1 6 38 CFG=1
M  V30 42 1 39 7
M  V30 43 1 8 40 CFG=1
M  V30 44 1 41 9
M  V30 45 1 42 9
M  V30 46 1 10 43 CFG=3
M  V30 47 1 44 11
M  V30 48 1 45 12
M  V30 49 1 46 12
M  V30 50 1 47 14
M  V30 51 1 48 14
M  V30 52 1 15 49 CFG=3
M  V30 53 1 50 16
M  V30 54 1 51 16
M  V30 55 1 52 18
M  V30 56 1 53 18
M  V30 57 1 20 54 CFG=3
M  V30 58 1 55 21
M  V30 59 1 56 21
M  V30 60 1 57 22
M  V30 61 1 58 22
M  V30 62 1 23 59 CFG=3
M  V30 63 1 24 60 CFG=1
M  V30 64 1 61 26
M  V30 65 1 62 26
M  V30 66 1 63 29
M  V30 67 1 64 29
M  V30 68 1 65 30
M  V30 69 1 66 31
M  V30 70 1 67 31
M  V30 71 1 13 68 CFG=1
M  V30 72 1 19 69 CFG=1
M  V30 END BOND
M  V30 END CTAB
M  END
>  <i_epik_Tot_Q>  (1) 
2

>  <i_epik_Tot_abs_Q>  (1) 
2

>  <i_i_glide_confnum>  (1) 
94

>  <i_i_glide_lignum>  (1) 
111

>  <i_i_glide_posenum>  (1) 
300

>  <i_i_glide_rotatable_bonds>  (1) 
8

>  <i_lp_mmshare_version>  (1) 
72125

>  <i_m_source_file_index>  (1) 
40

>  <i_f3d_flags>  (1) 
0

>  <num_sample>  (1) 
50

>  <b_lp_Chiralities_Consistent>  (1) 
1

>  <r_epik_Charging_Adjusted_Penalty>  (1) 
1.743801429740254

>  <r_epik_Ionization_Penalty>  (1) 
1.6051069046209219

>  <r_epik_Ionization_Penalty_Charging>  (1) 
0.6098477401054202

>  <r_epik_Ionization_Penalty_Neutral>  (1) 
0.99525916451550167

>  <r_epik_State_Penalty>  (1) 
1.1339536896348337

>  <r_glide_ring_energy>  (1) 
1.2534239858202134

>  <r_i_docking_score>  (1) 
-4.6394153892431147

>  <r_i_glide_ecoul>  (1) 
-10.836970653325581

>  <r_i_glide_eff_state_penalty>  (1) 
1.1339536896348337

>  <r_i_glide_einternal>  (1) 
6.7726435286400992

>  <r_i_glide_emodel>  (1) 
-43.060658553849187

>  <r_i_glide_emodel_strain>  (1) 
0.43407356523254492

>  <r_i_glide_energy>  (1) 
-34.240181452574028

>  <r_i_glide_erotb>  (1) 
0.49785121930328097

>  <r_i_glide_esite>  (1) 
-0.13075021312593216

>  <r_i_glide_evdw>  (1) 
-23.403210799248448

>  <r_i_glide_gscore>  (1) 
-5.7733690788779484

>  <r_i_glide_gscore_strain>  (1) 
0

>  <r_i_glide_hbond>  (1) 
-0.52776903955664278

>  <r_i_glide_ligand_efficiency>  (1) 
-0.14965856094332627

>  <r_i_glide_ligand_efficiency_ln>  (1) 
-1.0463303512807096

>  <r_i_glide_ligand_efficiency_sa>  (1) 
-0.47013450781210342

>  <r_i_glide_lipo>  (1) 
-1.322878816021545

>  <r_i_glide_metal>  (1) 
-0

>  <r_i_glide_rewards>  (1) 
-1.4941160915158498

>  <r_lp_Energy>  (1) 
49.421470999999997

>  <r_lp_tautomer_probability>  (1) 
0.99995000000000001

>  <s_epik_Chemistry_Notes>  (1) 
This compound contains an acetal/aminal-like group ( X-CH(R)-Y where X, Y are N, S, or O) that may be acid/base labile, releasing an aldehyde.

>  <s_epik_cmdline>  (1) 
J2VwaWtfcHl0aG9uJywgJy1waHQnLCAnMS4wJywgJy1waCcsICc3LjQnLCAnLXRuJywgJzgnLCAnLW1hJywgJzUwMCcsICctaW1hZScsICc8aW5maWxlLm1hZT4nLCAnLW9tYWUnLCAnPG91dGZpbGUubWFlPic=

>  <s_epik_input>  (1) 
RkMxKEYpW0NIMl1PW0NASF0oW09IXSlbQ0BIXShDMT1PKVtDSDJdW0NIMl1OKFtDSDJdMilbQ0gyXVtDSDJdW0NASF0oW0NAQEhdMjMpW0NIMl1bQ0BIXShbT0hdKU4oW0NIMl0zKVtDQEBIXTRbQ0gyXVtDSDJdW0NIMl1bQ0BASF0oW0NIMl00KVtDSDJdW09IXQ==

>  <s_glide_docking_method>  (1) 
confgen

>  <s_i_glide_gridfile>  (1) 
gpcr_drd2_6luq_protein_autoprepared_prepared

>  <s_lp_Force_Field>  (1) 
S-OPLS

>  <s_lp_Variant>  (1) 
DiffSBDD_39-7

>  <s_m_source_file>  (1) 
generated_generic_title2_ligand_DiffSBDD_2026-06-23_prepared.sdf

>  <GenAI_Model>  (1) 
DiffSBDD

>  <Protein>  (1) 
generic_title2

$$$$
DiffSBDD_9
     RDKit          3D

  0  0  0  0  0  0  0  0  0  0999 V3000
M  V30 BEGIN CTAB
M  V30 COUNTS 77 78 0 0 1
M  V30 BEGIN ATOM
M  V30 1 C 10.194241 6.488647 -7.422443 0
M  V30 2 F 11.329656 2.680510 -17.587431 0
M  V30 3 C 8.156044 5.420543 -15.593431 0 CFG=2
M  V30 4 O 9.537244 3.416680 -18.776245 0
M  V30 5 F 5.333746 5.710053 -14.384979 0
M  V30 6 C 7.739327 4.291857 -13.181474 0 CFG=2
M  V30 7 O 12.975409 9.046018 -3.576612 0
M  V30 8 C 9.369563 5.847276 -10.752675 0
M  V30 9 C 9.153553 4.107657 -12.734786 0 CFG=2
M  V30 10 F 9.276731 2.197742 -16.913472 0
M  V30 11 O 8.975377 6.964397 -11.079862 0
M  V30 12 C 12.428669 8.348314 -2.725011 0
M  V30 13 C 8.265294 5.446962 -18.662453 0
M  V30 14 C 9.625263 5.019327 -15.809737 0
M  V30 15 O 10.068967 5.010937 -20.939604 0
M  V30 16 F 10.841202 1.224802 -19.880668 0
M  V30 17 C 9.968330 7.671596 -6.469954 0
M  V30 18 C 8.981656 6.209204 -8.334614 0
M  V30 19 F 11.836916 4.788486 -19.547184 0
M  V30 20 O 8.976745 8.390227 -6.561322 0
M  V30 21 C 10.059986 2.434484 -17.992261 0
M  V30 22 N 9.375425 5.397524 -9.479652 0
M  V30 23 C 10.597977 5.323568 -19.668323 0
M  V30 24 C 7.140829 2.935641 -13.717992 0
M  V30 25 O 6.192382 6.839585 -12.626450 0
M  V30 26 F 10.739344 6.670760 -19.593566 0
M  V30 27 C 9.672753 4.828445 -18.508901 0 CFG=2
M  V30 28 C 7.691818 5.564461 -14.104236 0 CFG=2
M  V30 29 C 7.139057 4.776243 -16.492581 0
M  V30 30 O 9.375414 3.590201 -11.431980 0
M  V30 31 C 6.403995 6.411666 -13.957036 0 CFG=1
M  V30 32 C 7.930124 1.637062 -13.435113 0
M  V30 33 C 5.726608 2.740628 -13.184996 0
M  V30 34 C 11.857831 6.966448 -3.078892 0
M  V30 35 C 9.924413 4.888839 -11.730513 0 CFG=2
M  V30 36 C 7.182258 4.782902 -17.836336 0
M  V30 37 C 10.073389 1.127106 -18.795074 0
M  V30 38 C 11.403525 6.708012 -4.542798 0
M  V30 39 C 10.304275 5.311263 -17.161330 0
M  V30 40 C 11.031129 7.935073 -5.408345 0
M  V30 41 H 10.456682 5.593684 -6.858441 0
M  V30 42 H 11.060116 6.740405 -8.034879 0
M  V30 43 H 8.101892 6.390228 -15.985948 0
M  V30 44 H 7.202659 4.533810 -12.262814 0
M  V30 45 H 9.775396 3.672480 -13.478024 0
M  V30 46 H 12.312133 8.651719 -1.684314 0
M  V30 47 H 8.284163 6.516045 -18.444127 0
M  V30 48 H 7.922613 5.371273 -19.694224 0
M  V30 49 H 9.737413 3.990227 -15.584985 0
M  V30 50 H 10.227281 5.526034 -15.054747 0
M  V30 51 H 9.913624 5.824895 -21.392594 0
M  V30 52 H 8.575464 7.154438 -8.655697 0
M  V30 53 H 8.191804 5.696768 -7.783622 0
M  V30 54 H 9.709201 4.461384 -9.299066 0
M  V30 55 H 7.106417 2.926713 -14.795538 0
M  V30 56 H 7.018664 6.886272 -12.160505 0
M  V30 57 H 8.436736 6.242825 -13.685136 0
M  V30 58 H 6.319152 4.303531 -15.997165 0
M  V30 59 H 6.490228 7.311804 -14.565046 0
M  V30 60 H 8.151580 1.504927 -12.384997 0
M  V30 61 H 7.364365 0.758370 -13.749859 0
M  V30 62 H 8.872939 1.590318 -13.972081 0
M  V30 63 H 5.775421 2.646478 -12.099809 0
M  V30 64 H 5.070678 3.575639 -13.415756 0
M  V30 65 H 5.266222 1.835771 -13.584335 0
M  V30 66 H 11.011455 6.792540 -2.415079 0
M  V30 67 H 12.597596 6.218208 -2.794502 0
M  V30 68 H 10.975327 4.966181 -11.985024 0
M  V30 69 H 6.393091 4.296662 -18.389439 0
M  V30 70 H 10.462554 0.305465 -18.196577 0
M  V30 71 H 9.070094 0.859267 -19.127480 0
M  V30 72 H 10.552026 6.028132 -4.491898 0
M  V30 73 H 12.175321 6.140198 -5.060145 0
M  V30 74 H 11.337824 4.975933 -17.091125 0
M  V30 75 H 10.402403 6.390234 -17.211834 0
M  V30 76 H 11.913607 8.357490 -5.886766 0
M  V30 77 H 10.623041 8.727382 -4.784621 0
M  V30 END ATOM
M  V30 BEGIN BOND
M  V30 1 1 9 6
M  V30 2 2 11 8
M  V30 3 2 12 7
M  V30 4 1 14 3
M  V30 5 1 17 1
M  V30 6 1 18 1
M  V30 7 2 20 17
M  V30 8 1 21 2
M  V30 9 1 21 4
M  V30 10 1 21 10
M  V30 11 1 22 8
M  V30 12 1 22 18
M  V30 13 1 23 15
M  V30 14 1 23 19
M  V30 15 1 24 6
M  V30 16 1 26 23
M  V30 17 1 27 4 CFG=1
M  V30 18 1 27 13
M  V30 19 1 27 23
M  V30 20 1 28 3
M  V30 21 1 28 6
M  V30 22 1 29 3
M  V30 23 1 30 9
M  V30 24 1 31 5
M  V30 25 1 31 25
M  V30 26 1 31 28
M  V30 27 1 32 24
M  V30 28 1 33 24
M  V30 29 1 34 12
M  V30 30 1 35 8
M  V30 31 1 35 9
M  V30 32 1 35 30
M  V30 33 1 36 13
M  V30 34 2 36 29
M  V30 35 1 37 16
M  V30 36 1 37 21
M  V30 37 1 38 34
M  V30 38 1 39 14
M  V30 39 1 39 27
M  V30 40 1 40 17
M  V30 41 1 40 38
M  V30 42 1 41 1
M  V30 43 1 42 1
M  V30 44 1 3 43 CFG=3
M  V30 45 1 6 44 CFG=1
M  V30 46 1 9 45 CFG=3
M  V30 47 1 46 12
M  V30 48 1 47 13
M  V30 49 1 48 13
M  V30 50 1 49 14
M  V30 51 1 50 14
M  V30 52 1 51 15
M  V30 53 1 52 18
M  V30 54 1 53 18
M  V30 55 1 54 22
M  V30 56 1 55 24
M  V30 57 1 56 25
M  V30 58 1 28 57 CFG=1
M  V30 59 1 58 29
M  V30 60 1 31 59 CFG=3
M  V30 61 1 60 32
M  V30 62 1 61 32
M  V30 63 1 62 32
M  V30 64 1 63 33
M  V30 65 1 64 33
M  V30 66 1 65 33
M  V30 67 1 66 34
M  V30 68 1 67 34
M  V30 69 1 35 68 CFG=3
M  V30 70 1 69 36
M  V30 71 1 70 37
M  V30 72 1 71 37
M  V30 73 1 72 38
M  V30 74 1 73 38
M  V30 75 1 74 39
M  V30 76 1 75 39
M  V30 77 1 76 40
M  V30 78 1 77 40
M  V30 END BOND
M  V30 END CTAB
M  END
>  <i_epik_Tot_Q>  (1) 
0

>  <i_epik_Tot_abs_Q>  (1) 
0

>  <i_i_glide_confnum>  (1) 
795

>  <i_i_glide_lignum>  (1) 
44

>  <i_i_glide_posenum>  (1) 
10

>  <i_i_glide_rotatable_bonds>  (1) 
20

>  <i_lp_mmshare_version>  (1) 
72125

>  <i_m_source_file_index>  (1) 
10

>  <i_f3d_flags>  (1) 
0

>  <num_sample>  (1) 
50

>  <b_lp_Chiralities_Consistent>  (1) 
1

>  <r_epik_Charging_Adjusted_Penalty>  (1) 
0.024791601223723252

>  <r_epik_Ionization_Penalty>  (1) 
0.024829857689501161

>  <r_epik_Ionization_Penalty_Charging>  (1) 
0

>  <r_epik_Ionization_Penalty_Neutral>  (1) 
0.024829857689501161

>  <r_epik_State_Penalty>  (1) 
0.024791601223723252

>  <r_glide_ring_energy>  (1) 
0

>  <r_i_docking_score>  (1) 
-4.6339901740462057

>  <r_i_glide_ecoul>  (1) 
-0.16464866319235827

>  <r_i_glide_eff_state_penalty>  (1) 
0.024791601223723252

>  <r_i_glide_einternal>  (1) 
25.745379252815574

>  <r_i_glide_emodel>  (1) 
-25.58298235368807

>  <r_i_glide_emodel_strain>  (1) 
5.3245410097496659

>  <r_i_glide_energy>  (1) 
-31.190507007404133

>  <r_i_glide_erotb>  (1) 
0.79596426883134463

>  <r_i_glide_esite>  (1) 
-0.070414805604305866

>  <r_i_glide_evdw>  (1) 
-31.025858344211773

>  <r_i_glide_gscore>  (1) 
-4.6587817752699285

>  <r_i_glide_gscore_strain>  (1) 
0.33113525243741648

>  <r_i_glide_hbond>  (1) 
0

>  <r_i_glide_ligand_efficiency>  (1) 
-0.11584975435115515

>  <r_i_glide_ligand_efficiency_ln>  (1) 
-0.98829373188095693

>  <r_i_glide_ligand_efficiency_sa>  (1) 
-0.39620058673775871

>  <r_i_glide_lipo>  (1) 
-2.8476294804250726

>  <r_i_glide_metal>  (1) 
-0

>  <r_i_glide_rewards>  (1) 
-1.2918467938198686

>  <r_lp_Energy>  (1) 
20.029204999999997

>  <r_lp_tautomer_probability>  (1) 
0.99989996500775002

>  <s_epik_cmdline>  (1) 
J2VwaWtfcHl0aG9uJywgJy1waHQnLCAnMS4wJywgJy1waCcsICc3LjQnLCAnLXRuJywgJzgnLCAnLW1hJywgJzUwMCcsICctaW1hZScsICc8aW5maWxlLm1hZT4nLCAnLW9tYWUnLCAnPG91dGZpbGUubWFlPic=

>  <s_epik_input>  (1) 
Tz1bQ0hdW0NIMl1bQ0gyXVtDSDJdQyg9TylbQ0gyXVtDSDJdW05IXUMoPU8pW0NASF0xT1tDQEhdMVtDQEhdKFtDSF0oW0NIM10pW0NIM10pW0NASF0oW0NAQEhdKEYpW09IXSlbQ0BASF0oW0NIMl1bQ0gyXTIpW0NIXT1bQ0hdW0NIMl1bQ0BdMihDKEYpKEYpW09IXSlPQyhGKShGKVtDSDJdRg==

>  <s_glide_docking_method>  (1) 
confgen

>  <s_i_glide_gridfile>  (1) 
gpcr_drd2_6luq_protein_autoprepared_prepared

>  <s_lp_Force_Field>  (1) 
S-OPLS

>  <s_lp_Variant>  (1) 
DiffSBDD_9-1

>  <s_m_source_file>  (1) 
generated_generic_title2_ligand_DiffSBDD_2026-06-23_prepared.sdf

>  <GenAI_Model>  (1) 
DiffSBDD

>  <Protein>  (1) 
generic_title2

$$$$
DiffSBDD_0
     RDKit          3D

  0  0  0  0  0  0  0  0  0  0999 V3000
M  V30 BEGIN CTAB
M  V30 COUNTS 70 74 0 0 1
M  V30 BEGIN ATOM
M  V30 1 C 10.272218 7.122276 -6.004089 0
M  V30 2 N 8.176454 3.769960 -13.372009 0
M  V30 3 C 7.087481 5.124196 -17.297173 0 CFG=1
M  V30 4 C 9.224770 4.102147 -11.182996 0
M  V30 5 F 12.331643 8.575736 -7.585022 0
M  V30 6 C 7.597783 5.114006 -13.489203 0
M  V30 7 C 9.012560 7.635586 -6.709298 0
M  V30 8 C 9.258637 6.022880 -9.807183 0
M  V30 9 C 10.372789 8.237301 -8.807090 0 CFG=1
M  V30 10 C 9.492385 4.798047 -18.350457 0
M  V30 11 C 7.869888 2.835669 -14.454438 0 CFG=2
M  V30 12 C 4.975809 0.737537 -13.604357 0
M  V30 13 C 8.000433 4.882815 -18.496639 0 CFG=1
M  V30 14 O 8.885421 5.427220 -11.054396 0
M  V30 15 C 11.609583 7.600328 -8.139186 0 CFG=2
M  V30 16 C 7.071324 3.792502 -17.984911 0 CFG=1
M  V30 17 N 7.695651 4.904347 -15.957763 0 CFG=2 CHG=1
M  V30 18 C 9.775413 7.460645 -10.021688 0
M  V30 19 C 6.404985 1.270297 -13.470434 0
M  V30 20 C 8.115310 3.484065 -15.841243 0 CFG=2
M  V30 21 O 4.846739 -0.009774 -14.788411 0
M  V30 22 C 9.377816 8.715192 -7.731056 0
M  V30 23 N 10.196015 5.590217 -17.491421 0
M  V30 24 C 6.870181 5.369770 -14.822673 0
M  V30 25 N 10.207798 3.918444 -19.052117 0
M  V30 26 O 11.527646 4.134338 -18.619276 0
M  V30 27 C 11.413517 5.127418 -17.718674 0
M  V30 28 O 6.575413 2.351383 -14.379576 0
M  V30 29 N 12.606189 5.526579 -17.143594 0
M  V30 30 C 8.899616 3.355024 -12.256641 0
M  V30 31 C 11.276470 6.572472 -7.026461 0
M  V30 32 C 12.894465 6.545502 -16.151527 0
M  V30 33 C 7.501187 2.713043 -17.024518 0
M  V30 34 H 10.731257 7.930125 -5.433169 0
M  V30 35 H 10.009091 6.347931 -5.283434 0
M  V30 36 H 6.232215 5.794788 -17.362407 0
M  V30 37 H 9.775407 3.725891 -10.338358 0
M  V30 38 H 6.914137 5.287668 -12.656621 0
M  V30 39 H 8.407583 5.839201 -13.395307 0
M  V30 40 H 8.323328 8.065290 -5.985588 0
M  V30 41 H 8.497013 6.799450 -7.171882 0
M  V30 42 H 8.386411 5.990204 -9.157179 0
M  V30 43 H 10.044406 5.458280 -9.317581 0
M  V30 44 H 10.739679 9.155281 -9.268450 0
M  V30 45 H 8.544747 1.982270 -14.364565 0
M  V30 46 H 4.241033 1.541618 -13.585028 0
M  V30 47 H 4.754343 0.054787 -12.785032 0
M  V30 48 H 7.736674 5.364837 -19.435343 0
M  V30 49 H 12.250952 7.190236 -8.913130 0
M  V30 50 H 6.227832 3.547280 -18.627558 0
M  V30 51 H 10.543451 7.414503 -10.793810 0
M  V30 52 H 8.975417 8.057448 -10.457368 0
M  V30 53 H 6.562740 1.630594 -12.453097 0
M  V30 54 H 7.124714 0.468896 -13.648845 0
M  V30 55 H 9.194845 3.503827 -15.985022 0
M  V30 56 H 4.975382 -0.926333 -14.559992 0
M  V30 57 H 9.855233 9.494659 -7.142832 0
M  V30 58 H 8.510828 9.189485 -8.184431 0
M  V30 59 H 5.911228 4.849402 -14.832546 0
M  V30 60 H 6.652904 6.432834 -14.929188 0
M  V30 61 H 13.419827 5.025265 -17.467189 0
M  V30 62 H 9.198982 2.320060 -12.312032 0
M  V30 63 H 12.176274 6.270774 -6.500933 0
M  V30 64 H 10.885842 5.647584 -7.439146 0
M  V30 65 H 13.963462 6.756041 -16.117914 0
M  V30 66 H 12.368438 7.470427 -16.390851 0
M  V30 67 H 12.577809 6.211156 -15.164180 0
M  V30 68 H 6.621930 2.130055 -16.749707 0
M  V30 69 H 8.213421 2.034585 -17.494897 0
M  V30 70 H 8.547844 5.450423 -15.930319 0
M  V30 END ATOM
M  V30 BEGIN BOND
M  V30 1 1 6 2
M  V30 2 1 7 1
M  V30 3 1 11 2
M  V30 4 1 13 3
M  V30 5 1 13 10
M  V30 6 1 14 4
M  V30 7 1 14 8
M  V30 8 1 15 5
M  V30 9 1 15 9
M  V30 10 1 16 3
M  V30 11 1 16 13
M  V30 12 1 17 3
M  V30 13 1 18 8
M  V30 14 1 18 9
M  V30 15 1 19 12
M  V30 16 1 20 11
M  V30 17 1 20 17
M  V30 18 1 21 12
M  V30 19 1 22 7
M  V30 20 1 22 9
M  V30 21 1 23 10
M  V30 22 1 24 6
M  V30 23 1 24 17
M  V30 24 2 25 10
M  V30 25 1 26 25
M  V30 26 2 27 23
M  V30 27 1 27 26
M  V30 28 1 28 11
M  V30 29 1 28 19
M  V30 30 1 29 27
M  V30 31 1 30 2
M  V30 32 2 30 4
M  V30 33 1 31 1
M  V30 34 1 31 15
M  V30 35 1 32 29
M  V30 36 1 33 16
M  V30 37 1 33 20
M  V30 38 1 34 1
M  V30 39 1 35 1
M  V30 40 1 3 36 CFG=1
M  V30 41 1 37 4
M  V30 42 1 38 6
M  V30 43 1 39 6
M  V30 44 1 40 7
M  V30 45 1 41 7
M  V30 46 1 42 8
M  V30 47 1 43 8
M  V30 48 1 9 44 CFG=3
M  V30 49 1 11 45 CFG=1
M  V30 50 1 46 12
M  V30 51 1 47 12
M  V30 52 1 13 48 CFG=3
M  V30 53 1 15 49 CFG=3
M  V30 54 1 16 50 CFG=3
M  V30 55 1 51 18
M  V30 56 1 52 18
M  V30 57 1 53 19
M  V30 58 1 54 19
M  V30 59 1 20 55 CFG=3
M  V30 60 1 56 21
M  V30 61 1 57 22
M  V30 62 1 58 22
M  V30 63 1 59 24
M  V30 64 1 60 24
M  V30 65 1 61 29
M  V30 66 1 62 30
M  V30 67 1 63 31
M  V30 68 1 64 31
M  V30 69 1 65 32
M  V30 70 1 66 32
M  V30 71 1 67 32
M  V30 72 1 68 33
M  V30 73 1 69 33
M  V30 74 1 17 70 CFG=3
M  V30 END BOND
M  V30 END CTAB
M  END
>  <i_epik_Tot_Q>  (1) 
1

>  <i_epik_Tot_abs_Q>  (1) 
1

>  <i_i_glide_confnum>  (1) 
134

>  <i_i_glide_lignum>  (1) 
3

>  <i_i_glide_posenum>  (1) 
88

>  <i_i_glide_rotatable_bonds>  (1) 
11

>  <i_lp_mmshare_version>  (1) 
72125

>  <i_m_source_file_index>  (1) 
1

>  <i_f3d_flags>  (1) 
0

>  <num_sample>  (1) 
50

>  <b_lp_Chiralities_Consistent>  (1) 
1

>  <r_epik_Charging_Adjusted_Penalty>  (1) 
0.41344222577729461

>  <r_epik_Ionization_Penalty>  (1) 
0.0027644559619576371

>  <r_epik_Ionization_Penalty_Charging>  (1) 
0.0027623868246906495

>  <r_epik_Ionization_Penalty_Neutral>  (1) 
2.0691372669875143e-06

>  <r_epik_State_Penalty>  (1) 
0.41067983895260396

>  <r_glide_ring_energy>  (1) 
1.2880141380397463

>  <r_i_docking_score>  (1) 
-4.6321062091850438

>  <r_i_glide_ecoul>  (1) 
-2.7888515381313574

>  <r_i_glide_eff_state_penalty>  (1) 
0.41067983895260396

>  <r_i_glide_einternal>  (1) 
11.763826290802301

>  <r_i_glide_emodel>  (1) 
-41.575502515125656

>  <r_i_glide_emodel_strain>  (1) 
0.92733179475668237

>  <r_i_glide_energy>  (1) 
-36.655917498179804

>  <r_i_glide_erotb>  (1) 
0.74142510397790429

>  <r_i_glide_esite>  (1) 
0

>  <r_i_glide_evdw>  (1) 
-33.86706596004845

>  <r_i_glide_gscore>  (1) 
-5.0427860481376481

>  <r_i_glide_gscore_strain>  (1) 
0

>  <r_i_glide_hbond>  (1) 
-0.16

>  <r_i_glide_ligand_efficiency>  (1) 
-0.14036685482378922

>  <r_i_glide_ligand_efficiency_ln>  (1) 
-1.030156437160386

>  <r_i_glide_ligand_efficiency_sa>  (1) 
-0.45023150564084419

>  <r_i_glide_lipo>  (1) 
-2.0713853821366897

>  <r_i_glide_metal>  (1) 
-0

>  <r_i_glide_rewards>  (1) 
-1.4411447412567371

>  <r_lp_Energy>  (1) 
41.293589999999995

>  <r_lp_tautomer_probability>  (1) 
0.5

>  <s_epik_Chemistry_Notes>  (1) 
This compound has an imine and may undergo hydrolysis. This compound contains an acetal/aminal-like group ( X-CH(R)-Y where X, Y are N, S, or O) that may be acid/base labile, releasing an aldehyde.

>  <s_epik_cmdline>  (1) 
J2VwaWtfcHl0aG9uJywgJy1waHQnLCAnMS4wJywgJy1waCcsICc3LjQnLCAnLXRuJywgJzgnLCAnLW1hJywgJzUwMCcsICctaW1hZScsICc8aW5maWxlLm1hZT4nLCAnLW9tYWUnLCAnPG91dGZpbGUubWFlPic=

>  <s_epik_input>  (1) 
W0NIMl0xW0NIMl1bQ0gyXVtDSDJdW0NASF0oRilbQ0BIXTFbQ0gyXVtDSDJdTy9bQ0hdPVtDSF1cTihbQ0BIXTJPW0NIMl1bQ0gyXVtPSF0pW0NIMl1bQ0gyXU4zW0NAQEhdMltDSDJdW0NAQEhdKFtDQEBIXTM0KVtDQEBIXTRjNW5jKG9uNSlbTkhdW0NIM10=

>  <s_glide_docking_method>  (1) 
confgen

>  <s_i_glide_gridfile>  (1) 
gpcr_drd2_6luq_protein_autoprepared_prepared

>  <s_lp_Force_Field>  (1) 
S-OPLS

>  <s_lp_Variant>  (1) 
DiffSBDD_0-3

>  <s_m_source_file>  (1) 
generated_generic_title2_ligand_DiffSBDD_2026-06-23_prepared.sdf

>  <GenAI_Model>  (1) 
DiffSBDD

>  <Protein>  (1) 
generic_title2

$$$$
DiffSBDD_39
     RDKit          3D

  0  0  0  0  0  0  0  0  0  0999 V3000
M  V30 BEGIN CTAB
M  V30 COUNTS 68 71 0 0 1
M  V30 BEGIN ATOM
M  V30 1 C 8.724276 5.374379 -15.295525 0
M  V30 2 F 13.123377 1.731060 -19.753248 0
M  V30 3 F 11.841256 3.381984 -20.301036 0
M  V30 4 C 11.608298 8.823589 -9.253677 0
M  V30 5 C 8.200078 6.473937 -13.022857 0
M  V30 6 C 6.681212 5.312683 -11.433094 0 CFG=1
M  V30 7 O 12.700940 8.790232 -10.147892 0
M  V30 8 C 11.851633 4.177276 -17.252118 0 CFG=2
M  V30 9 C 7.681762 2.834968 -14.326260 0
M  V30 10 C 8.998800 6.142244 -10.640982 0 CFG=2
M  V30 11 O 14.163533 4.469842 -16.528506 0
M  V30 12 C 7.912712 3.097409 -15.825638 0
M  V30 13 N 8.975388 4.114343 -16.044642 0 CFG=1 CHG=1
M  V30 14 C 13.904702 3.900693 -19.317918 0
M  V30 15 C 8.492292 5.148093 -13.784672 0 CFG=1
M  V30 16 C 9.261894 4.337326 -17.488184 0
M  V30 17 O 13.544880 5.132086 -18.688723 0
M  V30 18 C 7.026430 3.978232 -12.118352 0
M  V30 19 N 7.818858 6.276326 -11.584821 0 CFG=1 CHG=1
M  V30 20 C 10.835735 7.502388 -9.381628 0 CFG=1
M  V30 21 C 10.283594 7.014464 -8.038162 0
M  V30 22 C 10.637001 5.000990 -17.746139 0
M  V30 23 C 7.338662 4.149117 -13.613127 0 CFG=2
M  V30 24 C 13.151838 5.013094 -17.352186 0 CFG=1
M  V30 25 C 12.003748 2.865488 -18.027610 0
M  V30 26 C 9.752506 5.589022 -8.189658 0
M  V30 27 C 12.703369 2.942123 -19.383801 0
M  V30 28 O 11.566701 1.804467 -17.585222 0
M  V30 29 C 8.649381 5.511055 -9.254020 0
M  V30 30 O 5.685035 5.862021 -12.078175 0 CHG=-1
M  V30 31 C 9.711499 7.519960 -10.444927 0
M  V30 32 H 7.878957 5.906349 -15.735954 0
M  V30 33 H 9.603799 5.990240 -15.421877 0
M  V30 34 H 12.013135 8.946470 -8.248507 0
M  V30 35 H 10.975000 9.682848 -9.458328 0
M  V30 36 H 7.392294 7.005307 -13.527754 0
M  V30 37 H 9.045784 7.144772 -13.089378 0
M  V30 38 H 6.502232 5.077637 -10.388406 0
M  V30 39 H 13.262240 9.543308 -9.985037 0
M  V30 40 H 11.709276 3.947008 -16.196850 0
M  V30 41 H 6.865288 2.122109 -14.202668 0
M  V30 42 H 8.563892 2.376160 -13.874996 0
M  V30 43 H 9.715165 5.464136 -11.105716 0
M  V30 44 H 13.985011 4.721010 -15.633757 0
M  V30 45 H 6.984034 3.431491 -16.291481 0
M  V30 46 H 8.191966 2.162966 -16.314524 0
M  V30 47 H 14.744402 3.434999 -18.799636 0
M  V30 48 H 14.256675 4.118391 -20.326665 0
M  V30 49 H 9.398114 4.708809 -13.362763 0
M  V30 50 H 9.222209 3.384810 -18.018136 0
M  V30 51 H 8.467981 4.948166 -17.920964 0
M  V30 52 H 6.215458 3.261490 -11.979674 0
M  V30 53 H 7.907003 3.577745 -11.620572 0
M  V30 54 H 11.585145 6.790226 -9.694012 0
M  V30 55 H 11.062504 7.025248 -7.275256 0
M  V30 56 H 9.490591 7.678395 -7.689423 0
M  V30 57 H 10.736027 5.181897 -18.817277 0
M  V30 58 H 10.661792 5.996103 -17.305675 0
M  V30 59 H 6.448734 4.550587 -14.102127 0
M  V30 60 H 12.986055 6.029618 -16.991798 0
M  V30 61 H 10.569129 4.908897 -8.426062 0
M  V30 62 H 9.350997 5.251732 -7.234227 0
M  V30 63 H 8.387715 4.460648 -9.378525 0
M  V30 64 H 7.775465 5.990216 -8.821260 0
M  V30 65 H 8.975384 8.272566 -10.161233 0
M  V30 66 H 10.143973 7.865689 -11.382271 0
M  V30 67 H 9.816534 3.716243 -15.653706 0
M  V30 68 H 7.375531 7.132393 -11.268846 0
M  V30 END ATOM
M  V30 BEGIN BOND
M  V30 1 1 7 4
M  V30 2 1 12 9
M  V30 3 1 13 1
M  V30 4 1 13 12
M  V30 5 1 15 1
M  V30 6 1 15 5
M  V30 7 1 16 13
M  V30 8 1 17 14
M  V30 9 1 18 6
M  V30 10 1 19 5
M  V30 11 1 19 6
M  V30 12 1 19 10
M  V30 13 1 20 4
M  V30 14 1 21 20
M  V30 15 1 22 8
M  V30 16 1 22 16
M  V30 17 1 23 9
M  V30 18 1 23 15
M  V30 19 1 23 18
M  V30 20 1 24 8
M  V30 21 1 24 11
M  V30 22 1 24 17
M  V30 23 1 25 8
M  V30 24 1 26 21
M  V30 25 1 27 2
M  V30 26 1 27 3
M  V30 27 1 27 14
M  V30 28 1 27 25
M  V30 29 2 28 25
M  V30 30 1 29 10
M  V30 31 1 29 26
M  V30 32 1 30 6
M  V30 33 1 31 10
M  V30 34 1 31 20
M  V30 35 1 32 1
M  V30 36 1 33 1
M  V30 37 1 34 4
M  V30 38 1 35 4
M  V30 39 1 36 5
M  V30 40 1 37 5
M  V30 41 1 6 38 CFG=1
M  V30 42 1 39 7
M  V30 43 1 8 40 CFG=1
M  V30 44 1 41 9
M  V30 45 1 42 9
M  V30 46 1 10 43 CFG=3
M  V30 47 1 44 11
M  V30 48 1 45 12
M  V30 49 1 46 12
M  V30 50 1 47 14
M  V30 51 1 48 14
M  V30 52 1 15 49 CFG=1
M  V30 53 1 50 16
M  V30 54 1 51 16
M  V30 55 1 52 18
M  V30 56 1 53 18
M  V30 57 1 20 54 CFG=3
M  V30 58 1 55 21
M  V30 59 1 56 21
M  V30 60 1 57 22
M  V30 61 1 58 22
M  V30 62 1 23 59 CFG=3
M  V30 63 1 24 60 CFG=1
M  V30 64 1 61 26
M  V30 65 1 62 26
M  V30 66 1 63 29
M  V30 67 1 64 29
M  V30 68 1 65 31
M  V30 69 1 66 31
M  V30 70 1 13 67 CFG=1
M  V30 71 1 19 68 CFG=1
M  V30 END BOND
M  V30 END CTAB
M  END
>  <i_epik_Tot_Q>  (1) 
1

>  <i_epik_Tot_abs_Q>  (1) 
3

>  <i_i_glide_confnum>  (1) 
66

>  <i_i_glide_lignum>  (1) 
105

>  <i_i_glide_posenum>  (1) 
33

>  <i_i_glide_rotatable_bonds>  (1) 
7

>  <i_lp_mmshare_version>  (1) 
72125

>  <i_m_source_file_index>  (1) 
40

>  <i_f3d_flags>  (1) 
0

>  <num_sample>  (1) 
50

>  <b_lp_Chiralities_Consistent>  (1) 
1

>  <r_epik_Charging_Adjusted_Penalty>  (1) 
0.43569023002306473

>  <r_epik_Ionization_Penalty>  (1) 
0.17475065349743213

>  <r_epik_Ionization_Penalty_Charging>  (1) 
0.17468327186895813

>  <r_epik_Ionization_Penalty_Neutral>  (1) 
6.7381628474014066e-05

>  <r_epik_State_Penalty>  (1) 
0.26100695815410663

>  <r_glide_ring_energy>  (1) 
1.2534239858202438

>  <r_i_docking_score>  (1) 
-4.6256080160747652

>  <r_i_glide_ecoul>  (1) 
-9.0635142152520718

>  <r_i_glide_eff_state_penalty>  (1) 
0.26100695815410663

>  <r_i_glide_einternal>  (1) 
5.3710165350933909

>  <r_i_glide_emodel>  (1) 
-37.469362057933608

>  <r_i_glide_emodel_strain>  (1) 
0.93494130675952647

>  <r_i_glide_energy>  (1) 
-32.614364901605938

>  <r_i_glide_erotb>  (1) 
0.49989103335302049

>  <r_i_glide_esite>  (1) 
-0.1437244689331981

>  <r_i_glide_evdw>  (1) 
-23.550850686353865

>  <r_i_glide_gscore>  (1) 
-4.8866149742288716

>  <r_i_glide_gscore_strain>  (1) 
0

>  <r_i_glide_hbond>  (1) 
-0.45415432500563396

>  <r_i_glide_ligand_efficiency>  (1) 
-0.1492131618088634

>  <r_i_glide_ligand_efficiency_ln>  (1) 
-1.0432163654860771

>  <r_i_glide_ligand_efficiency_sa>  (1) 
-0.46873533958850988

>  <r_i_glide_lipo>  (1) 
-0.95269126789220748

>  <r_i_glide_metal>  (1) 
-0

>  <r_i_glide_rewards>  (1) 
-1.298866279145348

>  <r_lp_Energy>  (1) 
47.853707

>  <r_lp_tautomer_probability>  (1) 
0.99995000000000001

>  <s_epik_Chemistry_Notes>  (1) 
This compound contains an acetal/aminal-like group ( X-CH(R)-Y where X, Y are N, S, or O) that may be acid/base labile, releasing an aldehyde.

>  <s_epik_cmdline>  (1) 
J2VwaWtfcHl0aG9uJywgJy1waHQnLCAnMS4wJywgJy1waCcsICc3LjQnLCAnLXRuJywgJzgnLCAnLW1hJywgJzUwMCcsICctaW1hZScsICc8aW5maWxlLm1hZT4nLCAnLW9tYWUnLCAnPG91dGZpbGUubWFlPic=

>  <s_epik_input>  (1) 
RkMxKEYpW0NIMl1PW0NASF0oW09IXSlbQ0BIXShDMT1PKVtDSDJdW0NIMl1OKFtDSDJdMilbQ0gyXVtDSDJdW0NASF0oW0NAQEhdMjMpW0NIMl1bQ0BIXShbT0hdKU4oW0NIMl0zKVtDQEBIXTRbQ0gyXVtDSDJdW0NIMl1bQ0BASF0oW0NIMl00KVtDSDJdW09IXQ==

>  <s_glide_docking_method>  (1) 
confgen

>  <s_i_glide_gridfile>  (1) 
gpcr_drd2_6luq_protein_autoprepared_prepared

>  <s_lp_Force_Field>  (1) 
S-OPLS

>  <s_lp_Variant>  (1) 
DiffSBDD_39-1

>  <s_m_source_file>  (1) 
generated_generic_title2_ligand_DiffSBDD_2026-06-23_prepared.sdf

>  <GenAI_Model>  (1) 
DiffSBDD

>  <Protein>  (1) 
generic_title2

$$$$
DiffSBDD_8
     RDKit          3D

  0  0  0  0  0  0  0  0  0  0999 V3000
M  V30 BEGIN CTAB
M  V30 COUNTS 69 72 0 0 1
M  V30 BEGIN ATOM
M  V30 1 N 7.334977 3.317255 -15.362564 0
M  V30 2 C 10.127182 3.512272 -17.263410 0
M  V30 3 C 7.169463 6.354972 -12.729546 0 CFG=1
M  V30 4 N 9.717907 4.507809 -19.356087 0
M  V30 5 O 8.942811 3.623541 -13.089190 0
M  V30 6 C 9.006160 6.406688 -9.239104 0
M  V30 7 F 7.507377 5.106769 -19.106809 0
M  V30 8 C 10.089818 5.797834 -8.345112 0
M  V30 9 N 9.287024 6.223251 -10.661113 0
M  V30 10 C 8.775444 4.975606 -11.224775 0 CFG=1
M  V30 11 C 8.664965 4.974009 -18.459120 0 CFG=1
M  V30 12 C 12.524063 9.130364 -3.955180 0
M  V30 13 C 7.422271 5.074554 -11.935846 0 CFG=2
M  V30 14 O 10.175408 5.590288 -13.125989 0
M  V30 15 O 10.190013 5.535818 -20.298019 0
M  V30 16 C 10.091836 6.370746 -6.912352 0
M  V30 17 C 6.723254 2.698206 -12.913274 0
M  V30 18 C 7.238138 1.925163 -15.821820 0
M  V30 19 C 6.681360 3.630308 -14.117139 0 CFG=1
M  V30 20 C 8.633974 3.840318 -17.424989 0 CFG=2
M  V30 21 C 7.964484 4.271557 -16.097951 0
M  V30 22 C 5.790070 6.961924 -12.767245 0
M  V30 23 C 9.703373 4.513118 -12.349201 0 CFG=2
M  V30 24 C 7.568576 3.943508 -12.930008 0 CFG=2
M  V30 25 O 11.775427 9.388748 -2.786725 0
M  V30 26 O 8.018231 5.448429 -15.740382 0
M  V30 27 C 11.662270 9.318696 -5.212791 0
M  V30 28 C 10.285285 6.848554 -19.740071 0
M  V30 29 C 10.823284 4.089221 -18.505287 0
M  V30 30 O 10.976029 8.108338 -5.511816 0
M  V30 31 C 10.759623 7.746260 -6.788205 0
M  V30 32 N 6.863844 7.551421 -11.985021 0 CHG=1
M  V30 33 O 11.059426 8.419880 -7.775382 0
M  V30 34 H 10.553422 3.968711 -16.369497 0
M  V30 35 H 10.281773 2.435330 -17.190993 0
M  V30 36 H 7.875561 6.617900 -13.511484 0
M  V30 37 H 8.031394 5.990279 -8.973213 0
M  V30 38 H 8.975396 7.476434 -9.036710 0
M  V30 39 H 11.063898 5.990456 -8.784555 0
M  V30 40 H 9.972724 4.715032 -8.324383 0
M  V30 41 H 10.282078 6.298943 -10.845677 0
M  V30 42 H 8.755563 4.176667 -10.481794 0
M  V30 43 H 8.896021 5.916572 -17.965996 0
M  V30 44 H 13.361577 9.828147 -3.974612 0
M  V30 45 H 12.948934 8.127081 -3.911133 0
M  V30 46 H 6.595438 4.884532 -11.249722 0
M  V30 47 H 10.917281 5.251083 -13.614700 0
M  V30 48 H 10.644737 5.691216 -6.264596 0
M  V30 49 H 9.075006 6.424140 -6.521456 0
M  V30 50 H 7.253643 1.750333 -12.980324 0
M  V30 51 H 5.851975 2.693515 -12.264271 0
M  V30 52 H 6.673958 1.861417 -16.752654 0
M  V30 53 H 8.225475 1.485195 -15.969605 0
M  V30 54 H 6.703641 1.286626 -15.119786 0
M  V30 55 H 5.776053 4.227021 -14.210326 0
M  V30 56 H 8.129791 3.003875 -17.905332 0
M  V30 57 H 5.506021 7.590275 -13.606841 0
M  V30 58 H 5.006058 6.614670 -12.096423 0
M  V30 59 H 10.575308 3.990300 -11.985022 0
M  V30 60 H 11.550768 10.306333 -2.754705 0
M  V30 61 H 10.957777 10.143802 -5.097383 0
M  V30 62 H 12.329379 9.580578 -6.035953 0
M  V30 63 H 10.800034 7.490247 -20.455816 0
M  V30 64 H 9.302417 7.293576 -19.583835 0
M  V30 65 H 10.856632 6.890758 -18.813190 0
M  V30 66 H 11.459210 4.924830 -18.216835 0
M  V30 67 H 11.444190 3.352268 -19.014791 0
M  V30 68 H 6.865955 7.444736 -10.963219 0
M  V30 69 H 7.317892 8.368381 -12.362449 0
M  V30 END ATOM
M  V30 BEGIN BOND
M  V30 1 1 8 6
M  V30 2 1 9 6
M  V30 3 1 10 9
M  V30 4 1 11 4
M  V30 5 1 11 7
M  V30 6 1 13 3
M  V30 7 1 13 10
M  V30 8 1 15 4
M  V30 9 1 16 8
M  V30 10 1 18 1
M  V30 11 1 19 1
M  V30 12 1 19 17
M  V30 13 1 20 2
M  V30 14 1 20 11
M  V30 15 1 21 1
M  V30 16 1 21 20
M  V30 17 1 22 3
M  V30 18 1 23 5
M  V30 19 1 23 10
M  V30 20 1 23 14
M  V30 21 1 24 5 CFG=3
M  V30 22 1 24 13
M  V30 23 1 24 17
M  V30 24 1 24 19
M  V30 25 1 25 12
M  V30 26 2 26 21
M  V30 27 1 27 12
M  V30 28 1 28 15
M  V30 29 1 29 2
M  V30 30 1 29 4
M  V30 31 1 30 27
M  V30 32 1 31 16
M  V30 33 1 31 30
M  V30 34 1 32 3
M  V30 35 1 32 22
M  V30 36 2 33 31
M  V30 37 1 34 2
M  V30 38 1 35 2
M  V30 39 1 3 36 CFG=3
M  V30 40 1 37 6
M  V30 41 1 38 6
M  V30 42 1 39 8
M  V30 43 1 40 8
M  V30 44 1 41 9
M  V30 45 1 10 42 CFG=1
M  V30 46 1 11 43 CFG=1
M  V30 47 1 44 12
M  V30 48 1 45 12
M  V30 49 1 13 46 CFG=1
M  V30 50 1 47 14
M  V30 51 1 48 16
M  V30 52 1 49 16
M  V30 53 1 50 17
M  V30 54 1 51 17
M  V30 55 1 52 18
M  V30 56 1 53 18
M  V30 57 1 54 18
M  V30 58 1 19 55 CFG=3
M  V30 59 1 20 56 CFG=3
M  V30 60 1 57 22
M  V30 61 1 58 22
M  V30 62 1 23 59 CFG=1
M  V30 63 1 60 25
M  V30 64 1 61 27
M  V30 65 1 62 27
M  V30 66 1 63 28
M  V30 67 1 64 28
M  V30 68 1 65 28
M  V30 69 1 66 29
M  V30 70 1 67 29
M  V30 71 1 68 32
M  V30 72 1 69 32
M  V30 END BOND
M  V30 END CTAB
M  END
>  <i_epik_Tot_Q>  (1) 
1

>  <i_epik_Tot_abs_Q>  (1) 
1

>  <i_i_glide_confnum>  (1) 
8051

>  <i_i_glide_lignum>  (1) 
37

>  <i_i_glide_posenum>  (1) 
180

>  <i_i_glide_rotatable_bonds>  (1) 
15

>  <i_lp_mmshare_version>  (1) 
72125

>  <i_m_source_file_index>  (1) 
9

>  <i_f3d_flags>  (1) 
0

>  <num_sample>  (1) 
50

>  <b_lp_Chiralities_Consistent>  (1) 
1

>  <r_epik_Charging_Adjusted_Penalty>  (1) 
1.2103720943885907

>  <r_epik_Ionization_Penalty>  (1) 
0.55446808147534954

>  <r_epik_Ionization_Penalty_Charging>  (1) 
0.13553905892425583

>  <r_epik_Ionization_Penalty_Neutral>  (1) 
0.41892902255109377

>  <r_epik_State_Penalty>  (1) 
1.074833035464335

>  <r_glide_ring_energy>  (1) 
0

>  <r_i_docking_score>  (1) 
-4.6196463235223977

>  <r_i_glide_ecoul>  (1) 
-10.576769029068505

>  <r_i_glide_eff_state_penalty>  (1) 
1.074833035464335

>  <r_i_glide_einternal>  (1) 
30.807481833825733

>  <r_i_glide_emodel>  (1) 
-44.509690179756255

>  <r_i_glide_emodel_strain>  (1) 
1.3881842270683933

>  <r_i_glide_energy>  (1) 
-43.778147239027049

>  <r_i_glide_erotb>  (1) 
1.0741905119875848

>  <r_i_glide_esite>  (1) 
-0.10000000000000001

>  <r_i_glide_evdw>  (1) 
-33.201378209958548

>  <r_i_glide_gscore>  (1) 
-5.6944793589867331

>  <r_i_glide_gscore_strain>  (1) 
0

>  <r_i_glide_hbond>  (1) 
-0.49075762174053822

>  <r_i_glide_ligand_efficiency>  (1) 
-0.13998928253098175

>  <r_i_glide_ligand_efficiency_ln>  (1) 
-1.0273854231028487

>  <r_i_glide_ligand_efficiency_sa>  (1) 
-0.44902042954960902

>  <r_i_glide_lipo>  (1) 
-1.7714714210715916

>  <r_i_glide_metal>  (1) 
-0

>  <r_i_glide_rewards>  (1) 
-1.1598565633039839

>  <r_lp_Energy>  (1) 
37.411439999999999

>  <s_epik_Chemistry_Notes>  (1) 
This compound has an ester and may undergo hydrolysis at high or low pH. This compound contains an acetal/aminal-like group ( X-CH(R)-Y where X, Y are N, S, or O) that may be acid/base labile, releasing an aldehyde. This compound has a N-S or N-O group and may undergo hydrolysis at high or low pH.

>  <s_epik_cmdline>  (1) 
J2VwaWtfcHl0aG9uJywgJy1waHQnLCAnMS4wJywgJy1waCcsICc3LjQnLCAnLXRuJywgJzgnLCAnLW1hJywgJzUwMCcsICctaW1hZScsICc8aW5maWxlLm1hZT4nLCAnLW9tYWUnLCAnPG91dGZpbGUubWFlPic=

>  <s_epik_input>  (1) 
W0NIM11PTjFbQ0BIXShGKVtDQEBIXShbQ0gyXVtDSDJdMSlDKD1PKU4oW0NIM10pW0NASF0yW0NIMl1DMjNPW0NAQEhdKFtPSF0pW0NASF0oW0NASF0zW0NASF00W0NIMl1bTkhdNClbTkhdW0NIMl1bQ0gyXVtDSDJdQyg9TylPW0NIMl1bQ0gyXVtPSF0=

>  <s_glide_docking_method>  (1) 
confgen

>  <s_i_glide_gridfile>  (1) 
gpcr_drd2_6luq_protein_autoprepared_prepared

>  <s_lp_Force_Field>  (1) 
S-OPLS

>  <s_lp_Variant>  (1) 
DiffSBDD_8-6

>  <s_m_source_file>  (1) 
generated_generic_title2_ligand_DiffSBDD_2026-06-23_prepared.sdf

>  <GenAI_Model>  (1) 
DiffSBDD

>  <Protein>  (1) 
generic_title2

$$$$
DiffSBDD_0
     RDKit          3D

  0  0  0  0  0  0  0  0  0  0999 V3000
M  V30 BEGIN CTAB
M  V30 COUNTS 70 74 0 0 1
M  V30 BEGIN ATOM
M  V30 1 C 10.673167 8.995395 -6.372957 0
M  V30 2 N 7.637593 4.785505 -13.956646 0
M  V30 3 C 7.319264 5.034572 -18.116847 0 CFG=1
M  V30 4 C 9.099433 5.989659 -12.424358 0
M  V30 5 F 9.784198 6.255308 -6.567161 0
M  V30 6 C 6.863374 5.952628 -14.383271 0
M  V30 7 C 11.775440 8.939028 -7.444302 0
M  V30 8 C 10.673383 7.278047 -11.233727 0
M  V30 9 C 10.510985 7.043634 -8.650998 0 CFG=1
M  V30 10 C 9.860707 4.510886 -18.514381 0
M  V30 11 C 7.372452 3.570805 -14.714691 0 CFG=1
M  V30 12 C 6.403018 0.604022 -13.869953 0
M  V30 13 C 8.439194 4.489909 -18.994024 0 CFG=1
M  V30 14 O 10.175414 5.993451 -11.585008 0
M  V30 15 C 9.449349 7.103251 -7.536159 0 CFG=2
M  V30 16 C 7.368401 3.568333 -18.420530 0 CFG=1
M  V30 17 N 7.635835 5.177382 -16.670512 0 CFG=2 CHG=1
M  V30 18 C 10.048900 7.781306 -9.926723 0
M  V30 19 C 7.201177 1.739594 -13.214503 0
M  V30 20 C 7.959251 3.828428 -16.111450 0 CFG=2
M  V30 21 O 5.585941 -0.009774 -12.901259 0
M  V30 22 C 11.864048 7.557174 -8.106621 0
M  V30 23 N 10.411171 5.590235 -17.885754 0
M  V30 24 C 6.610487 5.947595 -15.911123 0
M  V30 25 N 10.659257 3.454448 -18.669651 0
M  V30 26 O 11.869562 3.856209 -18.079729 0
M  V30 27 C 11.623811 5.110763 -17.659684 0
M  V30 28 O 7.959232 2.416061 -14.205244 0
M  V30 29 N 12.691363 5.730467 -17.036142 0
M  V30 30 C 8.713131 4.879941 -13.073439 0
M  V30 31 C 9.322520 8.502832 -6.920320 0
M  V30 32 C 12.822158 7.052751 -16.454857 0
M  V30 33 C 7.528153 2.784364 -17.144553 0
M  V30 34 H 10.964405 8.373796 -5.525041 0
M  V30 35 H 10.575715 10.009214 -5.985337 0
M  V30 36 H 6.532411 5.663593 -18.530094 0
M  V30 37 H 8.618576 6.953941 -12.496682 0
M  V30 38 H 5.922061 5.994775 -13.833455 0
M  V30 39 H 7.394738 6.874140 -14.154795 0
M  V30 40 H 12.736404 9.190230 -6.994653 0
M  V30 41 H 11.602931 9.682211 -8.217488 0
M  V30 42 H 11.757742 7.220258 -11.140924 0
M  V30 43 H 10.475277 7.990228 -12.032844 0
M  V30 44 H 10.617272 5.990258 -8.911665 0
M  V30 45 H 6.289923 3.440702 -14.765143 0
M  V30 46 H 7.080170 -0.138573 -14.293893 0
M  V30 47 H 5.775534 0.974854 -14.680138 0
M  V30 48 H 8.394991 4.706527 -20.059394 0
M  V30 49 H 8.490890 6.752367 -7.912953 0
M  V30 50 H 6.655504 3.161810 -19.135507 0
M  V30 51 H 10.231692 8.847718 -9.823997 0
M  V30 52 H 8.975413 7.685811 -10.034599 0
M  V30 53 H 6.555252 2.424162 -12.660844 0
M  V30 54 H 7.898939 1.312722 -12.493066 0
M  V30 55 H 9.044940 3.793240 -16.007679 0
M  V30 56 H 5.375407 -0.904631 -13.185009 0
M  V30 57 H 12.215073 6.846200 -7.358404 0
M  V30 58 H 12.614585 7.590224 -8.896662 0
M  V30 59 H 5.632182 5.508922 -16.101935 0
M  V30 60 H 6.558425 6.970297 -16.286706 0
M  V30 61 H 13.526003 5.167106 -16.968491 0
M  V30 62 H 9.246772 3.949359 -12.943877 0
M  V30 63 H 8.576164 8.486039 -6.125935 0
M  V30 64 H 8.944348 9.190280 -7.675139 0
M  V30 65 H 13.850853 7.230670 -16.141454 0
M  V30 66 H 12.544510 7.820131 -17.178729 0
M  V30 67 H 12.175618 7.146522 -15.582239 0
M  V30 68 H 6.575395 2.327079 -16.882986 0
M  V30 69 H 8.264312 1.987936 -17.261990 0
M  V30 70 H 8.494049 5.711450 -16.605222 0
M  V30 END ATOM
M  V30 BEGIN BOND
M  V30 1 1 6 2
M  V30 2 1 7 1
M  V30 3 1 11 2
M  V30 4 1 13 3
M  V30 5 1 13 10
M  V30 6 1 14 4
M  V30 7 1 14 8
M  V30 8 1 15 5
M  V30 9 1 15 9
M  V30 10 1 16 3
M  V30 11 1 16 13
M  V30 12 1 17 3
M  V30 13 1 18 8
M  V30 14 1 18 9
M  V30 15 1 19 12
M  V30 16 1 20 11
M  V30 17 1 20 17
M  V30 18 1 21 12
M  V30 19 1 22 7
M  V30 20 1 22 9
M  V30 21 1 23 10
M  V30 22 1 24 6
M  V30 23 1 24 17
M  V30 24 2 25 10
M  V30 25 1 26 25
M  V30 26 2 27 23
M  V30 27 1 27 26
M  V30 28 1 28 11
M  V30 29 1 28 19
M  V30 30 1 29 27
M  V30 31 1 30 2
M  V30 32 2 30 4
M  V30 33 1 31 1
M  V30 34 1 31 15
M  V30 35 1 32 29
M  V30 36 1 33 16
M  V30 37 1 33 20
M  V30 38 1 34 1
M  V30 39 1 35 1
M  V30 40 1 3 36 CFG=3
M  V30 41 1 37 4
M  V30 42 1 38 6
M  V30 43 1 39 6
M  V30 44 1 40 7
M  V30 45 1 41 7
M  V30 46 1 42 8
M  V30 47 1 43 8
M  V30 48 1 9 44 CFG=3
M  V30 49 1 11 45 CFG=3
M  V30 50 1 46 12
M  V30 51 1 47 12
M  V30 52 1 13 48 CFG=3
M  V30 53 1 15 49 CFG=3
M  V30 54 1 16 50 CFG=3
M  V30 55 1 51 18
M  V30 56 1 52 18
M  V30 57 1 53 19
M  V30 58 1 54 19
M  V30 59 1 20 55 CFG=1
M  V30 60 1 56 21
M  V30 61 1 57 22
M  V30 62 1 58 22
M  V30 63 1 59 24
M  V30 64 1 60 24
M  V30 65 1 61 29
M  V30 66 1 62 30
M  V30 67 1 63 31
M  V30 68 1 64 31
M  V30 69 1 65 32
M  V30 70 1 66 32
M  V30 71 1 67 32
M  V30 72 1 68 33
M  V30 73 1 69 33
M  V30 74 1 17 70 CFG=3
M  V30 END BOND
M  V30 END CTAB
M  END
>  <i_epik_Tot_Q>  (1) 
1

>  <i_epik_Tot_abs_Q>  (1) 
1

>  <i_i_glide_confnum>  (1) 
330

>  <i_i_glide_lignum>  (1) 
5

>  <i_i_glide_posenum>  (1) 
46

>  <i_i_glide_rotatable_bonds>  (1) 
11

>  <i_lp_mmshare_version>  (1) 
72125

>  <i_m_source_file_index>  (1) 
1

>  <i_f3d_flags>  (1) 
0

>  <num_sample>  (1) 
50

>  <b_lp_Chiralities_Consistent>  (1) 
1

>  <r_epik_Charging_Adjusted_Penalty>  (1) 
0.41344222577729461

>  <r_epik_Ionization_Penalty>  (1) 
0.0027644559619576371

>  <r_epik_Ionization_Penalty_Charging>  (1) 
0.0027623868246906495

>  <r_epik_Ionization_Penalty_Neutral>  (1) 
2.0691372669875143e-06

>  <r_epik_State_Penalty>  (1) 
0.41067983895260396

>  <r_glide_ring_energy>  (1) 
1.2887488819258046

>  <r_i_docking_score>  (1) 
-4.6132238809326864

>  <r_i_glide_ecoul>  (1) 
-3.9399968510292016

>  <r_i_glide_eff_state_penalty>  (1) 
0.41067983895260396

>  <r_i_glide_einternal>  (1) 
6.7145436624315726

>  <r_i_glide_emodel>  (1) 
-46.307020990597493

>  <r_i_glide_emodel_strain>  (1) 
0.34239980999360853

>  <r_i_glide_energy>  (1) 
-37.34488926637632

>  <r_i_glide_erotb>  (1) 
0.74142510397790429

>  <r_i_glide_esite>  (1) 
0

>  <r_i_glide_evdw>  (1) 
-33.404892415347121

>  <r_i_glide_gscore>  (1) 
-5.0239037198852907

>  <r_i_glide_gscore_strain>  (1) 
0

>  <r_i_glide_hbond>  (1) 
-0.16

>  <r_i_glide_ligand_efficiency>  (1) 
-0.13979466305856625

>  <r_i_glide_ligand_efficiency_ln>  (1) 
-1.0259571051245249

>  <r_i_glide_ligand_efficiency_sa>  (1) 
-0.44839618091055067

>  <r_i_glide_lipo>  (1) 
-2.0619527976578094

>  <r_i_glide_metal>  (1) 
-0

>  <r_i_glide_rewards>  (1) 
-1.2821318777836488

>  <r_lp_Energy>  (1) 
43.260881999999995

>  <r_lp_tautomer_probability>  (1) 
0.5

>  <s_epik_Chemistry_Notes>  (1) 
This compound has an imine and may undergo hydrolysis. This compound contains an acetal/aminal-like group ( X-CH(R)-Y where X, Y are N, S, or O) that may be acid/base labile, releasing an aldehyde.

>  <s_epik_cmdline>  (1) 
J2VwaWtfcHl0aG9uJywgJy1waHQnLCAnMS4wJywgJy1waCcsICc3LjQnLCAnLXRuJywgJzgnLCAnLW1hJywgJzUwMCcsICctaW1hZScsICc8aW5maWxlLm1hZT4nLCAnLW9tYWUnLCAnPG91dGZpbGUubWFlPic=

>  <s_epik_input>  (1) 
W0NIMl0xW0NIMl1bQ0gyXVtDSDJdW0NASF0oRilbQ0BIXTFbQ0gyXVtDSDJdTy9bQ0hdPVtDSF0vTihbQ0BIXTJPW0NIMl1bQ0gyXVtPSF0pW0NIMl1bQ0gyXU4zW0NAQEhdMltDSDJdW0NAQEhdKFtDQEBIXTM0KVtDQEBIXTRjNW5jKG9uNSlbTkhdW0NIM10=

>  <s_glide_docking_method>  (1) 
confgen

>  <s_i_glide_gridfile>  (1) 
gpcr_drd2_6luq_protein_autoprepared_prepared

>  <s_lp_Force_Field>  (1) 
S-OPLS

>  <s_lp_Variant>  (1) 
DiffSBDD_0-5

>  <s_m_source_file>  (1) 
generated_generic_title2_ligand_DiffSBDD_2026-06-23_prepared.sdf

>  <GenAI_Model>  (1) 
DiffSBDD

>  <Protein>  (1) 
generic_title2

$$$$
DiffSBDD_0
     RDKit          3D

  0  0  0  0  0  0  0  0  0  0999 V3000
M  V30 BEGIN CTAB
M  V30 COUNTS 70 74 0 0 1
M  V30 BEGIN ATOM
M  V30 1 C 10.126273 6.859420 -5.865775 0
M  V30 2 N 7.579783 4.650119 -14.035813 0
M  V30 3 C 7.759037 5.048597 -18.176248 0 CFG=1
M  V30 4 C 8.763604 5.944469 -12.346694 0
M  V30 5 F 12.158754 8.866266 -6.631543 0
M  V30 6 C 6.732785 5.743630 -14.509907 0
M  V30 7 C 9.078192 7.226566 -6.911127 0
M  V30 8 C 9.590739 7.073688 -10.480782 0
M  V30 9 C 10.874325 8.164508 -8.460055 0 CFG=1
M  V30 10 C 10.329967 4.496826 -18.296986 0
M  V30 11 C 7.485027 3.429789 -14.823623 0 CFG=1
M  V30 12 C 6.488906 0.523325 -13.901081 0
M  V30 13 C 8.971841 4.516905 -18.933047 0 CFG=1
M  V30 14 O 9.775364 6.046590 -11.438374 0
M  V30 15 C 11.934851 7.796923 -7.399056 0 CFG=2
M  V30 16 C 7.827017 3.593258 -18.528937 0 CFG=1
M  V30 17 N 7.863941 5.118607 -16.692867 0 CFG=2 CHG=1
M  V30 18 C 10.819647 7.087706 -9.567632 0
M  V30 19 C 7.318228 1.650214 -13.267485 0
M  V30 20 C 8.165963 3.751239 -16.165515 0 CFG=2
M  V30 21 O 5.614946 -0.009774 -12.932501 0
M  V30 22 C 9.538025 8.426221 -7.742615 0
M  V30 23 N 11.110942 3.379452 -18.253053 0
M  V30 24 C 6.684101 5.774594 -16.057475 0
M  V30 25 N 10.840568 5.590216 -17.727758 0
M  V30 26 O 12.082159 5.163191 -17.229402 0
M  V30 27 C 12.144295 3.866545 -17.585012 0
M  V30 28 O 8.091259 2.308127 -14.261702 0
M  V30 29 N 13.296007 3.213340 -17.185041 0
M  V30 30 C 8.576081 4.833816 -13.077719 0
M  V30 31 C 11.482998 6.602315 -6.512163 0
M  V30 32 C 13.718386 1.836041 -17.349790 0
M  V30 33 C 7.814413 2.757053 -17.274176 0
M  V30 34 H 10.219930 7.679826 -5.157009 0
M  V30 35 H 9.804973 5.990374 -5.293974 0
M  V30 36 H 7.041191 5.708332 -18.660955 0
M  V30 37 H 8.158077 6.837549 -12.402531 0
M  V30 38 H 5.730316 5.648813 -14.090691 0
M  V30 39 H 7.113804 6.707961 -14.180691 0
M  V30 40 H 8.175398 7.499157 -6.385030 0
M  V30 41 H 8.838037 6.373656 -7.546322 0
M  V30 42 H 9.432486 8.047500 -10.947312 0
M  V30 43 H 8.709496 6.790828 -9.906248 0
M  V30 44 H 11.171839 9.097923 -8.940550 0
M  V30 45 H 6.424914 3.222006 -14.970629 0
M  V30 46 H 7.142816 -0.265113 -14.276005 0
M  V30 47 H 5.899782 0.882821 -14.744684 0
M  V30 48 H 9.056876 4.774677 -19.987086 0
M  V30 49 H 12.890716 7.590234 -7.880420 0
M  V30 50 H 7.202213 3.226697 -19.341006 0
M  V30 51 H 10.861975 6.099641 -9.118339 0
M  V30 52 H 11.715607 7.190235 -10.180987 0
M  V30 53 H 6.686866 2.355043 -12.722771 0
M  V30 54 H 8.004953 1.219803 -12.537627 0
M  V30 55 H 9.240729 3.724250 -15.985211 0
M  V30 56 H 5.375408 -0.906503 -13.184976 0
M  V30 57 H 9.669329 9.252840 -7.051121 0
M  V30 58 H 8.772504 8.760790 -8.437939 0
M  V30 59 H 5.788489 5.249166 -16.384928 0
M  V30 60 H 6.577451 6.799946 -16.413334 0
M  V30 61 H 13.948549 3.785844 -16.670893 0
M  V30 62 H 9.222458 3.976014 -12.959322 0
M  V30 63 H 12.175408 6.390009 -5.706342 0
M  V30 64 H 11.434182 5.681079 -7.090460 0
M  V30 65 H 14.674794 1.666051 -16.854990 0
M  V30 66 H 12.980234 1.162427 -16.913861 0
M  V30 67 H 13.823607 1.595628 -18.408304 0
M  V30 68 H 6.815946 2.339596 -17.138540 0
M  V30 69 H 8.527651 1.934532 -17.339036 0
M  V30 70 H 8.663106 5.693801 -16.460581 0
M  V30 END ATOM
M  V30 BEGIN BOND
M  V30 1 1 6 2
M  V30 2 1 7 1
M  V30 3 1 11 2
M  V30 4 1 13 3
M  V30 5 1 13 10
M  V30 6 1 14 4
M  V30 7 1 14 8
M  V30 8 1 15 5
M  V30 9 1 15 9
M  V30 10 1 16 3
M  V30 11 1 16 13
M  V30 12 1 17 3
M  V30 13 1 18 8
M  V30 14 1 18 9
M  V30 15 1 19 12
M  V30 16 1 20 11
M  V30 17 1 20 17
M  V30 18 1 21 12
M  V30 19 1 22 7
M  V30 20 1 22 9
M  V30 21 1 23 10
M  V30 22 1 24 6
M  V30 23 1 24 17
M  V30 24 2 25 10
M  V30 25 1 26 25
M  V30 26 2 27 23
M  V30 27 1 27 26
M  V30 28 1 28 11
M  V30 29 1 28 19
M  V30 30 1 29 27
M  V30 31 1 30 2
M  V30 32 2 30 4
M  V30 33 1 31 1
M  V30 34 1 31 15
M  V30 35 1 32 29
M  V30 36 1 33 16
M  V30 37 1 33 20
M  V30 38 1 34 1
M  V30 39 1 35 1
M  V30 40 1 3 36 CFG=3
M  V30 41 1 37 4
M  V30 42 1 38 6
M  V30 43 1 39 6
M  V30 44 1 40 7
M  V30 45 1 41 7
M  V30 46 1 42 8
M  V30 47 1 43 8
M  V30 48 1 9 44 CFG=3
M  V30 49 1 11 45 CFG=3
M  V30 50 1 46 12
M  V30 51 1 47 12
M  V30 52 1 13 48 CFG=3
M  V30 53 1 15 49 CFG=3
M  V30 54 1 16 50 CFG=3
M  V30 55 1 51 18
M  V30 56 1 52 18
M  V30 57 1 53 19
M  V30 58 1 54 19
M  V30 59 1 20 55 CFG=1
M  V30 60 1 56 21
M  V30 61 1 57 22
M  V30 62 1 58 22
M  V30 63 1 59 24
M  V30 64 1 60 24
M  V30 65 1 61 29
M  V30 66 1 62 30
M  V30 67 1 63 31
M  V30 68 1 64 31
M  V30 69 1 65 32
M  V30 70 1 66 32
M  V30 71 1 67 32
M  V30 72 1 68 33
M  V30 73 1 69 33
M  V30 74 1 17 70 CFG=3
M  V30 END BOND
M  V30 END CTAB
M  END
>  <i_epik_Tot_Q>  (1) 
1

>  <i_epik_Tot_abs_Q>  (1) 
1

>  <i_i_glide_confnum>  (1) 
146

>  <i_i_glide_lignum>  (1) 
5

>  <i_i_glide_posenum>  (1) 
327

>  <i_i_glide_rotatable_bonds>  (1) 
11

>  <i_lp_mmshare_version>  (1) 
72125

>  <i_m_source_file_index>  (1) 
1

>  <i_f3d_flags>  (1) 
0

>  <num_sample>  (1) 
50

>  <b_lp_Chiralities_Consistent>  (1) 
1

>  <r_epik_Charging_Adjusted_Penalty>  (1) 
0.41344222577729461

>  <r_epik_Ionization_Penalty>  (1) 
0.0027644559619576371

>  <r_epik_Ionization_Penalty_Charging>  (1) 
0.0027623868246906495

>  <r_epik_Ionization_Penalty_Neutral>  (1) 
2.0691372669875143e-06

>  <r_epik_State_Penalty>  (1) 
0.41067983895260396

>  <r_glide_ring_energy>  (1) 
1.2887488819258046

>  <r_i_docking_score>  (1) 
-4.5905770965542541

>  <r_i_glide_ecoul>  (1) 
-4.5737861460500246

>  <r_i_glide_eff_state_penalty>  (1) 
0.41067983895260396

>  <r_i_glide_einternal>  (1) 
6.8379391158463871

>  <r_i_glide_emodel>  (1) 
-44.249568505854867

>  <r_i_glide_emodel_strain>  (1) 
1.2845974760184191

>  <r_i_glide_energy>  (1) 
-36.348409130184955

>  <r_i_glide_erotb>  (1) 
0.74142510397790429

>  <r_i_glide_esite>  (1) 
0

>  <r_i_glide_evdw>  (1) 
-31.774622984134933

>  <r_i_glide_gscore>  (1) 
-5.0012569355068583

>  <r_i_glide_gscore_strain>  (1) 
0

>  <r_i_glide_hbond>  (1) 
-0.16

>  <r_i_glide_ligand_efficiency>  (1) 
-0.13910839686528043

>  <r_i_glide_ligand_efficiency_ln>  (1) 
-1.0209205775375356

>  <r_i_glide_ligand_efficiency_sa>  (1) 
-0.44619495853607083

>  <r_i_glide_lipo>  (1) 
-1.9543340658641146

>  <r_i_glide_metal>  (1) 
-0

>  <r_i_glide_rewards>  (1) 
-1.3535489025063978

>  <r_lp_Energy>  (1) 
43.260881999999995

>  <r_lp_tautomer_probability>  (1) 
0.5

>  <s_epik_Chemistry_Notes>  (1) 
This compound has an imine and may undergo hydrolysis. This compound contains an acetal/aminal-like group ( X-CH(R)-Y where X, Y are N, S, or O) that may be acid/base labile, releasing an aldehyde.

>  <s_epik_cmdline>  (1) 
J2VwaWtfcHl0aG9uJywgJy1waHQnLCAnMS4wJywgJy1waCcsICc3LjQnLCAnLXRuJywgJzgnLCAnLW1hJywgJzUwMCcsICctaW1hZScsICc8aW5maWxlLm1hZT4nLCAnLW9tYWUnLCAnPG91dGZpbGUubWFlPic=

>  <s_epik_input>  (1) 
W0NIMl0xW0NIMl1bQ0gyXVtDSDJdW0NASF0oRilbQ0BIXTFbQ0gyXVtDSDJdTy9bQ0hdPVtDSF0vTihbQ0BIXTJPW0NIMl1bQ0gyXVtPSF0pW0NIMl1bQ0gyXU4zW0NAQEhdMltDSDJdW0NAQEhdKFtDQEBIXTM0KVtDQEBIXTRjNW5jKG9uNSlbTkhdW0NIM10=

>  <s_glide_docking_method>  (1) 
confgen

>  <s_i_glide_gridfile>  (1) 
gpcr_drd2_6luq_protein_autoprepared_prepared

>  <s_lp_Force_Field>  (1) 
S-OPLS

>  <s_lp_Variant>  (1) 
DiffSBDD_0-5

>  <s_m_source_file>  (1) 
generated_generic_title2_ligand_DiffSBDD_2026-06-23_prepared.sdf

>  <GenAI_Model>  (1) 
DiffSBDD

>  <Protein>  (1) 
generic_title2

$$$$
DiffSBDD_4
     RDKit          3D

  0  0  0  0  0  0  0  0  0  0999 V3000
M  V30 BEGIN CTAB
M  V30 COUNTS 69 73 0 0 1
M  V30 BEGIN ATOM
M  V30 1 O 8.975417 7.019905 -6.648109 0
M  V30 2 C 5.287347 1.127539 -13.619950 0
M  V30 3 C 5.693391 5.798877 -13.226343 0
M  V30 4 C 10.652550 7.764869 -9.207094 0
M  V30 5 C 7.922554 7.753642 -12.033552 0
M  V30 6 C 7.198898 5.812117 -13.580365 0 CFG=2
M  V30 7 C 5.263230 4.327610 -13.086175 0
M  V30 8 C 12.993013 8.789589 -8.020122 0
M  V30 9 C 8.129003 4.504461 -8.396948 0
M  V30 10 C 10.624523 8.279939 -7.873051 0
M  V30 11 O 6.376541 -1.282527 -17.135207 0
M  V30 12 F 7.549427 0.833291 -17.175435 0
M  V30 13 C 9.446580 4.775090 -9.147050 0
M  V30 14 C 6.333134 3.492570 -13.758677 0 CFG=2
M  V30 15 C 7.964840 0.387354 -14.255058 0
M  V30 16 C 5.523873 0.483220 -15.002267 0 CFG=2
M  V30 17 C 6.774282 3.794296 -15.176910 0
M  V30 18 C 9.348295 5.757796 -10.326927 0 CFG=1
M  V30 19 C 6.429202 2.073186 -13.178945 0 CFG=2
M  V30 20 C 8.136919 5.425038 -11.213776 0
M  V30 21 C 11.864265 7.772390 -9.923974 0
M  V30 22 C 9.375419 7.238546 -9.882675 0 CFG=2
M  V30 23 C 9.008207 8.215930 -11.044481 0
M  V30 24 C 11.798567 8.784831 -7.294395 0
M  V30 25 F 4.511060 -0.332275 -15.288149 0
M  V30 26 N 7.315046 -0.409740 -16.464278 0
M  V30 27 C 7.774268 1.417636 -13.417285 0
M  V30 28 C 13.029888 8.285754 -9.331388 0
M  V30 29 C 6.861626 -0.257825 -15.080475 0 CFG=1
M  V30 30 C 7.514680 4.396796 -14.020004 0 CFG=1
M  V30 31 C 9.346785 8.301932 -7.072088 0
M  V30 32 C 8.149123 6.299353 -12.468998 0 CFG=2
M  V30 33 H 8.031776 6.947692 -6.774282 0
M  V30 34 H 4.321289 1.627463 -13.585032 0
M  V30 35 H 5.212513 0.318798 -12.891405 0
M  V30 36 H 5.138223 6.250413 -14.047996 0
M  V30 37 H 5.449575 6.370707 -12.329896 0
M  V30 38 H 6.937445 7.872829 -11.585113 0
M  V30 39 H 7.934266 8.411488 -12.903028 0
M  V30 40 H 7.347387 6.466560 -14.440449 0
M  V30 41 H 5.203614 4.071680 -12.027442 0
M  V30 42 H 4.289765 4.135584 -13.537347 0
M  V30 43 H 13.889721 9.190228 -7.572400 0
M  V30 44 H 8.307640 3.808219 -7.585026 0
M  V30 45 H 7.375476 4.041613 -9.034085 0
M  V30 46 H 7.681692 5.404968 -7.989679 0
M  V30 47 H 5.573825 -0.786116 -17.079377 0
M  V30 48 H 10.208327 5.105077 -8.440601 0
M  V30 49 H 9.799703 3.830347 -9.548428 0
M  V30 50 H 8.951358 -0.033080 -14.361164 0
M  V30 51 H 5.506746 1.190223 -15.816954 0
M  V30 52 H 7.281809 3.016839 -15.743210 0
M  V30 53 H 6.188074 4.499706 -15.759613 0
M  V30 54 H 10.175407 5.590999 -10.993815 0
M  V30 55 H 6.345872 2.168649 -12.097672 0
M  V30 56 H 8.173511 4.367709 -11.474397 0
M  V30 57 H 7.201126 5.588895 -10.676340 0
M  V30 58 H 11.896856 7.391656 -10.933416 0
M  V30 59 H 8.622725 7.190231 -9.118709 0
M  V30 60 H 8.724315 9.182052 -10.624938 0
M  V30 61 H 9.898924 8.390244 -11.643259 0
M  V30 62 H 11.779844 9.177702 -6.288387 0
M  V30 63 H 8.611914 1.815914 -12.863032 0
M  V30 64 H 13.957350 8.298503 -9.885632 0
M  V30 65 H 6.680488 -1.209772 -14.609022 0
M  V30 66 H 8.531540 4.040471 -13.860509 0
M  V30 67 H 9.479293 8.905198 -6.176045 0
M  V30 68 H 8.568378 8.792834 -7.648180 0
M  V30 69 H 9.148837 6.250136 -12.904240 0
M  V30 END ATOM
M  V30 BEGIN BOND
M  V30 1 1 6 3
M  V30 2 1 7 3
M  V30 3 1 10 4
M  V30 4 1 13 9
M  V30 5 1 14 7 CFG=3
M  V30 6 1 16 2
M  V30 7 1 17 14
M  V30 8 1 18 13
M  V30 9 1 19 2
M  V30 10 1 19 14
M  V30 11 1 20 18
M  V30 12 2 21 4
M  V30 13 1 22 4
M  V30 14 1 22 18
M  V30 15 1 23 5
M  V30 16 1 23 22
M  V30 17 1 24 8
M  V30 18 2 24 10
M  V30 19 1 25 16
M  V30 20 1 26 11
M  V30 21 1 26 12
M  V30 22 2 27 15
M  V30 23 1 27 19
M  V30 24 2 28 8
M  V30 25 1 28 21
M  V30 26 1 29 15
M  V30 27 1 29 16
M  V30 28 1 29 26
M  V30 29 1 30 6
M  V30 30 1 30 14
M  V30 31 1 30 17
M  V30 32 1 31 1
M  V30 33 1 31 10
M  V30 34 1 32 5
M  V30 35 1 32 6
M  V30 36 1 32 20
M  V30 37 1 33 1
M  V30 38 1 34 2
M  V30 39 1 35 2
M  V30 40 1 36 3
M  V30 41 1 37 3
M  V30 42 1 38 5
M  V30 43 1 39 5
M  V30 44 1 6 40 CFG=3
M  V30 45 1 41 7
M  V30 46 1 42 7
M  V30 47 1 43 8
M  V30 48 1 44 9
M  V30 49 1 45 9
M  V30 50 1 46 9
M  V30 51 1 47 11
M  V30 52 1 48 13
M  V30 53 1 49 13
M  V30 54 1 50 15
M  V30 55 1 16 51 CFG=3
M  V30 56 1 52 17
M  V30 57 1 53 17
M  V30 58 1 18 54 CFG=3
M  V30 59 1 19 55 CFG=1
M  V30 60 1 56 20
M  V30 61 1 57 20
M  V30 62 1 58 21
M  V30 63 1 22 59 CFG=1
M  V30 64 1 60 23
M  V30 65 1 61 23
M  V30 66 1 62 24
M  V30 67 1 63 27
M  V30 68 1 64 28
M  V30 69 1 29 65 CFG=1
M  V30 70 1 30 66 CFG=1
M  V30 71 1 67 31
M  V30 72 1 68 31
M  V30 73 1 32 69 CFG=3
M  V30 END BOND
M  V30 END CTAB
M  END
>  <i_epik_Tot_Q>  (1) 
0

>  <i_epik_Tot_abs_Q>  (1) 
0

>  <i_i_glide_confnum>  (1) 
371

>  <i_i_glide_lignum>  (1) 
27

>  <i_i_glide_posenum>  (1) 
274

>  <i_i_glide_rotatable_bonds>  (1) 
8

>  <i_lp_mmshare_version>  (1) 
72125

>  <i_m_source_file_index>  (1) 
5

>  <i_f3d_flags>  (1) 
0

>  <num_sample>  (1) 
50

>  <b_lp_Chiralities_Consistent>  (1) 
1

>  <r_epik_Charging_Adjusted_Penalty>  (1) 
0

>  <r_epik_Ionization_Penalty>  (1) 
0.0023293269725234308

>  <r_epik_Ionization_Penalty_Charging>  (1) 
0

>  <r_epik_Ionization_Penalty_Neutral>  (1) 
0.0023293269725234308

>  <r_epik_State_Penalty>  (1) 
-0

>  <r_glide_ring_energy>  (1) 
0

>  <r_i_docking_score>  (1) 
-4.5902292725642919

>  <r_i_glide_ecoul>  (1) 
-1.9990393820442849

>  <r_i_glide_eff_state_penalty>  (1) 
-0

>  <r_i_glide_einternal>  (1) 
6.5193871221598467

>  <r_i_glide_emodel>  (1) 
-27.552093053270593

>  <r_i_glide_emodel_strain>  (1) 
1.6970824820768016

>  <r_i_glide_energy>  (1) 
-26.996860923204352

>  <r_i_glide_erotb>  (1) 
0.50387134536734435

>  <r_i_glide_esite>  (1) 
-0.023991495580933483

>  <r_i_glide_evdw>  (1) 
-24.997821541160068

>  <r_i_glide_gscore>  (1) 
-4.5902292725642919

>  <r_i_glide_gscore_strain>  (1) 
0

>  <r_i_glide_hbond>  (1) 
-0.16

>  <r_i_glide_ligand_efficiency>  (1) 
-0.14344466476763412

>  <r_i_glide_ligand_efficiency_ln>  (1) 
-1.0278774590513773

>  <r_i_glide_ligand_efficiency_sa>  (1) 
-0.4554084235027363

>  <r_i_glide_lipo>  (1) 
-1.9793081717974303

>  <r_i_glide_metal>  (1) 
-0

>  <r_i_glide_rewards>  (1) 
-1.3810539661886265

>  <r_lp_Energy>  (1) 
42.803042999999995

>  <r_lp_tautomer_probability>  (1) 
1

>  <s_epik_Chemistry_Notes>  (1) 
This compound has a N-S or N-O group and may undergo hydrolysis at high or low pH.

>  <s_epik_cmdline>  (1) 
J2VwaWtfcHl0aG9uJywgJy1waHQnLCAnMS4wJywgJy1waCcsICc3LjQnLCAnLXRuJywgJzgnLCAnLW1hJywgJzUwMCcsICctaW1hZScsICc8aW5maWxlLm1hZT4nLCAnLW9tYWUnLCAnPG91dGZpbGUubWFlPic=

>  <s_epik_input>  (1) 
W2NIXTFbY0hdW2NIXVtjSF1jKFtDSDJdW09IXSljMVtDQEhdMltDSDJdW0NIMl1bQ0BASF0oW0NIMl1bQ0BASF0yW0NIMl1bQ0gzXSlbQ0BIXShbQ0gyXVtDSDJdMylbQ0hdKFtDSDJdNClbQ0BdMzRbQ0BIXShbQ0gyXVtDQEBIXTVGKVtDSF09W0NIXVtDQEBIXTVOKEYpW09IXQ==

>  <s_glide_docking_method>  (1) 
confgen

>  <s_i_glide_gridfile>  (1) 
gpcr_drd2_6luq_protein_autoprepared_prepared

>  <s_lp_Force_Field>  (1) 
S-OPLS

>  <s_lp_Variant>  (1) 
DiffSBDD_4-1

>  <s_m_source_file>  (1) 
generated_generic_title2_ligand_DiffSBDD_2026-06-23_prepared.sdf

>  <GenAI_Model>  (1) 
DiffSBDD

>  <Protein>  (1) 
generic_title2

$$$$
DiffSBDD_0
     RDKit          3D

  0  0  0  0  0  0  0  0  0  0999 V3000
M  V30 BEGIN CTAB
M  V30 COUNTS 70 74 0 0 1
M  V30 BEGIN ATOM
M  V30 1 C 10.243821 7.228924 -5.850456 0
M  V30 2 N 7.736879 4.535857 -13.745175 0
M  V30 3 C 7.664697 5.295237 -17.880872 0 CFG=1
M  V30 4 C 9.147693 5.179498 -11.832953 0
M  V30 5 F 12.284650 8.720939 -7.350532 0
M  V30 6 C 7.261181 5.881776 -14.086410 0
M  V30 7 C 9.019971 7.728321 -6.634423 0
M  V30 8 C 9.559396 7.409549 -11.046800 0
M  V30 9 C 10.457093 8.143104 -8.702702 0 CFG=1
M  V30 10 C 10.179064 4.626356 -18.181297 0
M  V30 11 C 7.331695 3.491563 -14.685276 0 CFG=1
M  V30 12 C 7.139609 0.199596 -13.094432 0
M  V30 13 C 8.793589 4.758900 -18.750844 0 CFG=1
M  V30 14 O 8.752488 6.493378 -11.797877 0
M  V30 15 C 11.683562 7.665486 -7.903217 0 CFG=2
M  V30 16 C 7.607012 3.878426 -18.361722 0 CFG=1
M  V30 17 N 7.910555 5.233924 -16.417150 0 CFG=2 CHG=1
M  V30 18 C 9.867429 7.009860 -9.587599 0
M  V30 19 C 6.685133 1.613756 -13.445666 0
M  V30 20 C 8.050250 3.808150 -16.006131 0 CFG=2
M  V30 21 O 6.175401 -0.409762 -12.268129 0
M  V30 22 C 9.432169 8.735909 -7.714294 0
M  V30 23 N 10.749926 5.590232 -17.399896 0
M  V30 24 C 6.949025 6.016782 -15.596010 0
M  V30 25 N 10.922283 3.542526 -18.408430 0
M  V30 26 O 12.116154 3.798330 -17.709329 0
M  V30 27 C 11.916151 5.014019 -17.162239 0
M  V30 28 O 7.645939 2.190739 -14.314953 0
M  V30 29 N 12.975879 5.498912 -16.412547 0
M  V30 30 C 8.670137 4.287294 -12.727691 0
M  V30 31 C 11.300295 6.650598 -6.804789 0
M  V30 32 C 14.274482 4.927921 -16.105014 0
M  V30 33 C 7.587484 2.942360 -17.181250 0
M  V30 34 H 10.676594 8.048953 -5.276301 0
M  V30 35 H 9.943016 6.467211 -5.130544 0
M  V30 36 H 6.970563 6.047451 -18.251154 0
M  V30 37 H 9.868450 4.937852 -11.074208 0
M  V30 38 H 6.405884 6.160819 -13.470329 0
M  V30 39 H 8.048396 6.607872 -13.899225 0
M  V30 40 H 8.295136 8.212465 -5.985080 0
M  V30 41 H 8.514877 6.866732 -7.066197 0
M  V30 42 H 10.487793 7.589421 -11.589416 0
M  V30 43 H 9.018932 8.356674 -11.045144 0
M  V30 44 H 10.795855 8.943472 -9.361921 0
M  V30 45 H 6.250040 3.570224 -14.808471 0
M  V30 46 H 8.094791 0.235729 -12.572236 0
M  V30 47 H 7.277765 -0.401989 -13.994141 0
M  V30 48 H 8.841123 5.106131 -19.781077 0
M  V30 49 H 12.414094 7.244177 -8.587505 0
M  V30 50 H 6.913527 3.632082 -19.163490 0
M  V30 51 H 8.961311 6.603452 -9.148821 0
M  V30 52 H 10.575410 6.186848 -9.584425 0
M  V30 53 H 5.712068 1.574909 -13.936529 0
M  V30 54 H 6.576196 2.214368 -12.540994 0
M  V30 55 H 9.113138 3.634478 -15.850987 0
M  V30 56 H 5.710426 -1.073564 -12.776496 0
M  V30 57 H 9.857986 9.589150 -7.184801 0
M  V30 58 H 8.575359 9.121039 -8.258494 0
M  V30 59 H 5.940858 5.653587 -15.799890 0
M  V30 60 H 6.963033 7.066132 -15.887582 0
M  V30 61 H 12.819879 6.406647 -16.000264 0
M  V30 62 H 9.008352 3.261755 -12.705234 0
M  V30 63 H 12.175415 6.335424 -6.242230 0
M  V30 64 H 10.908436 5.741684 -7.262544 0
M  V30 65 H 14.920173 5.682501 -15.655304 0
M  V30 66 H 14.175633 4.101212 -15.401679 0
M  V30 67 H 14.754432 4.555072 -17.010430 0
M  V30 68 H 6.575451 2.565175 -17.036052 0
M  V30 69 H 8.243572 2.087618 -17.350054 0
M  V30 70 H 8.817843 5.655007 -16.256102 0
M  V30 END ATOM
M  V30 BEGIN BOND
M  V30 1 1 6 2
M  V30 2 1 7 1
M  V30 3 1 11 2
M  V30 4 1 13 3
M  V30 5 1 13 10
M  V30 6 1 14 4
M  V30 7 1 14 8
M  V30 8 1 15 5
M  V30 9 1 15 9
M  V30 10 1 16 3
M  V30 11 1 16 13
M  V30 12 1 17 3
M  V30 13 1 18 8
M  V30 14 1 18 9
M  V30 15 1 19 12
M  V30 16 1 20 11
M  V30 17 1 20 17
M  V30 18 1 21 12
M  V30 19 1 22 7
M  V30 20 1 22 9
M  V30 21 1 23 10
M  V30 22 1 24 6
M  V30 23 1 24 17
M  V30 24 2 25 10
M  V30 25 1 26 25
M  V30 26 2 27 23
M  V30 27 1 27 26
M  V30 28 1 28 11
M  V30 29 1 28 19
M  V30 30 1 29 27
M  V30 31 1 30 2
M  V30 32 2 30 4
M  V30 33 1 31 1
M  V30 34 1 31 15
M  V30 35 1 32 29
M  V30 36 1 33 16
M  V30 37 1 33 20
M  V30 38 1 34 1
M  V30 39 1 35 1
M  V30 40 1 3 36 CFG=3
M  V30 41 1 37 4
M  V30 42 1 38 6
M  V30 43 1 39 6
M  V30 44 1 40 7
M  V30 45 1 41 7
M  V30 46 1 42 8
M  V30 47 1 43 8
M  V30 48 1 9 44 CFG=3
M  V30 49 1 11 45 CFG=3
M  V30 50 1 46 12
M  V30 51 1 47 12
M  V30 52 1 13 48 CFG=3
M  V30 53 1 15 49 CFG=3
M  V30 54 1 16 50 CFG=3
M  V30 55 1 51 18
M  V30 56 1 52 18
M  V30 57 1 53 19
M  V30 58 1 54 19
M  V30 59 1 20 55 CFG=1
M  V30 60 1 56 21
M  V30 61 1 57 22
M  V30 62 1 58 22
M  V30 63 1 59 24
M  V30 64 1 60 24
M  V30 65 1 61 29
M  V30 66 1 62 30
M  V30 67 1 63 31
M  V30 68 1 64 31
M  V30 69 1 65 32
M  V30 70 1 66 32
M  V30 71 1 67 32
M  V30 72 1 68 33
M  V30 73 1 69 33
M  V30 74 1 17 70 CFG=3
M  V30 END BOND
M  V30 END CTAB
M  END
>  <i_epik_Tot_Q>  (1) 
1

>  <i_epik_Tot_abs_Q>  (1) 
1

>  <i_i_glide_confnum>  (1) 
37

>  <i_i_glide_lignum>  (1) 
7

>  <i_i_glide_posenum>  (1) 
142

>  <i_i_glide_rotatable_bonds>  (1) 
11

>  <i_lp_mmshare_version>  (1) 
72125

>  <i_m_source_file_index>  (1) 
1

>  <i_f3d_flags>  (1) 
0

>  <num_sample>  (1) 
50

>  <b_lp_Chiralities_Consistent>  (1) 
1

>  <r_epik_Charging_Adjusted_Penalty>  (1) 
0.41344222577729461

>  <r_epik_Ionization_Penalty>  (1) 
0.0027644559619576371

>  <r_epik_Ionization_Penalty_Charging>  (1) 
0.0027623868246906495

>  <r_epik_Ionization_Penalty_Neutral>  (1) 
2.0691372669875143e-06

>  <r_epik_State_Penalty>  (1) 
0.41067983895260396

>  <r_glide_ring_energy>  (1) 
1.2887488819257911

>  <r_i_docking_score>  (1) 
-4.5847884442897877

>  <r_i_glide_ecoul>  (1) 
-2.8235584407435024

>  <r_i_glide_eff_state_penalty>  (1) 
0.41067983895260396

>  <r_i_glide_einternal>  (1) 
5.8553977539332784

>  <r_i_glide_emodel>  (1) 
-41.443959159815243

>  <r_i_glide_emodel_strain>  (1) 
1.4301903631650532

>  <r_i_glide_energy>  (1) 
-37.287749751896314

>  <r_i_glide_erotb>  (1) 
0.74142510397790429

>  <r_i_glide_esite>  (1) 
0

>  <r_i_glide_evdw>  (1) 
-34.46419131115281

>  <r_i_glide_gscore>  (1) 
-4.995468283242392

>  <r_i_glide_gscore_strain>  (1) 
0

>  <r_i_glide_hbond>  (1) 
-0.16

>  <r_i_glide_ligand_efficiency>  (1) 
-0.13893298316029659

>  <r_i_glide_ligand_efficiency_ln>  (1) 
-1.0196332112459556

>  <r_i_glide_ligand_efficiency_sa>  (1) 
-0.44563231305538342

>  <r_i_glide_lipo>  (1) 
-2.0140749062234482

>  <r_i_glide_metal>  (1) 
-0

>  <r_i_glide_rewards>  (1) 
-1.4160751493276826

>  <r_lp_Energy>  (1) 
39.472059000000002

>  <r_lp_tautomer_probability>  (1) 
0.5

>  <s_epik_Chemistry_Notes>  (1) 
This compound has an imine and may undergo hydrolysis. This compound contains an acetal/aminal-like group ( X-CH(R)-Y where X, Y are N, S, or O) that may be acid/base labile, releasing an aldehyde.

>  <s_epik_cmdline>  (1) 
J2VwaWtfcHl0aG9uJywgJy1waHQnLCAnMS4wJywgJy1waCcsICc3LjQnLCAnLXRuJywgJzgnLCAnLW1hJywgJzUwMCcsICctaW1hZScsICc8aW5maWxlLm1hZT4nLCAnLW9tYWUnLCAnPG91dGZpbGUubWFlPic=

>  <s_epik_input>  (1) 
W0NIMl0xW0NIMl1bQ0gyXVtDSDJdW0NASF0oRilbQ0BIXTFbQ0gyXVtDSDJdTy9bQ0hdPVtDSF1cTihbQ0BIXTJPW0NIMl1bQ0gyXVtPSF0pW0NIMl1bQ0gyXU4zW0NAQEhdMltDSDJdW0NAQEhdKFtDQEBIXTM0KVtDQEBIXTRjNW5jKG9uNSlbTkhdW0NIM10=

>  <s_glide_docking_method>  (1) 
confgen

>  <s_i_glide_gridfile>  (1) 
gpcr_drd2_6luq_protein_autoprepared_prepared

>  <s_lp_Force_Field>  (1) 
S-OPLS

>  <s_lp_Variant>  (1) 
DiffSBDD_0-7

>  <s_m_source_file>  (1) 
generated_generic_title2_ligand_DiffSBDD_2026-06-23_prepared.sdf

>  <GenAI_Model>  (1) 
DiffSBDD

>  <Protein>  (1) 
generic_title2

$$$$
DiffSBDD_39
     RDKit          3D

  0  0  0  0  0  0  0  0  0  0999 V3000
M  V30 BEGIN CTAB
M  V30 COUNTS 68 71 0 0 1
M  V30 BEGIN ATOM
M  V30 1 C 7.143382 5.891287 -11.727470 0
M  V30 2 F 11.488056 9.615286 -8.743706 0
M  V30 3 F 9.388697 9.086147 -8.741349 0
M  V30 4 C 5.779286 0.296471 -12.163914 0
M  V30 5 C 6.577979 4.848189 -14.004559 0
M  V30 6 C 8.164979 4.629339 -15.840279 0 CFG=1
M  V30 7 O 6.175414 -0.891377 -11.585023 0
M  V30 8 C 10.307978 6.235750 -7.865908 0 CFG=2
M  V30 9 C 9.831219 6.394311 -12.727530 0
M  V30 10 C 7.449468 2.612222 -14.722643 0 CFG=2
M  V30 11 O 11.375392 6.390268 -5.665737 0
M  V30 12 C 9.187615 7.208441 -11.597964 0
M  V30 13 N 8.230724 6.376814 -10.830302 0 CFG=2 CHG=1
M  V30 14 C 10.560244 8.912861 -6.703889 0
M  V30 15 C 7.684514 5.159508 -12.979209 0 CFG=1
M  V30 16 C 8.830829 5.346810 -9.926692 0
M  V30 17 O 9.701773 7.908623 -6.187105 0
M  V30 18 C 9.272717 5.202332 -14.928907 0
M  V30 19 N 7.083211 3.985289 -15.090333 0
M  V30 20 C 6.754301 0.644126 -13.273411 0 CFG=1
M  V30 21 C 6.485154 -0.165366 -14.540533 0
M  V30 22 C 8.938542 5.773863 -8.433877 0
M  V30 23 C 8.726366 5.989926 -13.720218 0 CFG=2
M  V30 24 C 10.166856 6.605634 -6.354427 0 CFG=1
M  V30 25 C 10.969685 7.389854 -8.628761 0
M  V30 26 C 7.456457 0.218778 -15.652189 0
M  V30 27 C 10.583471 8.790227 -8.229324 0
M  V30 28 O 11.775655 7.190298 -9.531044 0
M  V30 29 C 7.306252 1.707020 -15.977300 0
M  V30 30 O 7.539707 5.614016 -16.623662 0
M  V30 31 C 6.559903 2.107189 -13.573728 0
M  V30 32 H 6.567494 6.763029 -12.044382 0
M  V30 33 H 6.443540 5.263438 -11.174512 0
M  V30 34 H 4.783656 0.165884 -12.580847 0
M  V30 35 H 5.775352 1.056627 -11.382585 0
M  V30 36 H 6.208572 5.777146 -14.440715 0
M  V30 37 H 5.700257 4.422198 -13.521862 0
M  V30 38 H 8.624690 3.943964 -16.549832 0
M  V30 39 H 5.937708 -1.586770 -12.193388 0
M  V30 40 H 10.974678 5.375773 -7.920073 0
M  V30 41 H 10.629692 6.972322 -13.184880 0
M  V30 42 H 10.335078 5.506685 -12.344697 0
M  V30 43 H 8.478841 2.578704 -14.367018 0
M  V30 44 H 12.077669 6.759927 -6.176004 0
M  V30 45 H 8.642932 8.054095 -12.022045 0
M  V30 46 H 9.933316 7.672706 -10.975616 0
M  V30 47 H 11.564706 8.845989 -6.284956 0
M  V30 48 H 10.185214 9.879768 -6.385034 0
M  V30 49 H 8.169151 4.247810 -12.632953 0
M  V30 50 H 8.174663 4.476145 -9.950383 0
M  V30 51 H 9.776794 4.969482 -10.298793 0
M  V30 52 H 9.952186 5.808327 -15.529585 0
M  V30 53 H 9.884232 4.390341 -14.547409 0
M  V30 54 H 7.779856 0.484114 -12.932858 0
M  V30 55 H 6.575410 -1.209793 -14.300408 0
M  V30 56 H 5.459467 -0.013806 -14.879616 0
M  V30 57 H 8.175350 6.492665 -8.173609 0
M  V30 58 H 8.661079 4.893419 -7.852647 0
M  V30 59 H 8.185946 6.872465 -14.084373 0
M  V30 60 H 9.418830 5.989846 -5.858892 0
M  V30 61 H 8.477808 -0.000773 -15.343436 0
M  V30 62 H 7.262359 -0.383526 -16.540752 0
M  V30 63 H 8.036612 1.957403 -16.744923 0
M  V30 64 H 6.326693 1.862596 -16.431282 0
M  V30 65 H 7.770241 5.464974 -17.527457 0
M  V30 66 H 5.507847 2.264206 -13.791851 0
M  V30 67 H 6.763394 2.644296 -12.649809 0
M  V30 68 H 7.724944 7.020219 -10.192518 0
M  V30 END ATOM
M  V30 BEGIN BOND
M  V30 1 1 7 4
M  V30 2 1 12 9
M  V30 3 1 13 1
M  V30 4 1 13 12
M  V30 5 1 15 1
M  V30 6 1 15 5
M  V30 7 1 16 13
M  V30 8 1 17 14
M  V30 9 1 18 6
M  V30 10 1 19 5
M  V30 11 1 19 6
M  V30 12 1 19 10
M  V30 13 1 20 4
M  V30 14 1 21 20
M  V30 15 1 22 8
M  V30 16 1 22 16
M  V30 17 1 23 9
M  V30 18 1 23 15
M  V30 19 1 23 18
M  V30 20 1 24 8
M  V30 21 1 24 11
M  V30 22 1 24 17
M  V30 23 1 25 8
M  V30 24 1 26 21
M  V30 25 1 27 2
M  V30 26 1 27 3
M  V30 27 1 27 14
M  V30 28 1 27 25
M  V30 29 2 28 25
M  V30 30 1 29 10
M  V30 31 1 29 26
M  V30 32 1 30 6
M  V30 33 1 31 10
M  V30 34 1 31 20
M  V30 35 1 32 1
M  V30 36 1 33 1
M  V30 37 1 34 4
M  V30 38 1 35 4
M  V30 39 1 36 5
M  V30 40 1 37 5
M  V30 41 1 6 38 CFG=3
M  V30 42 1 39 7
M  V30 43 1 8 40 CFG=1
M  V30 44 1 41 9
M  V30 45 1 42 9
M  V30 46 1 10 43 CFG=1
M  V30 47 1 44 11
M  V30 48 1 45 12
M  V30 49 1 46 12
M  V30 50 1 47 14
M  V30 51 1 48 14
M  V30 52 1 15 49 CFG=1
M  V30 53 1 50 16
M  V30 54 1 51 16
M  V30 55 1 52 18
M  V30 56 1 53 18
M  V30 57 1 20 54 CFG=1
M  V30 58 1 55 21
M  V30 59 1 56 21
M  V30 60 1 57 22
M  V30 61 1 58 22
M  V30 62 1 23 59 CFG=3
M  V30 63 1 24 60 CFG=1
M  V30 64 1 61 26
M  V30 65 1 62 26
M  V30 66 1 63 29
M  V30 67 1 64 29
M  V30 68 1 65 30
M  V30 69 1 66 31
M  V30 70 1 67 31
M  V30 71 1 13 68 CFG=1
M  V30 END BOND
M  V30 END CTAB
M  END
>  <i_epik_Tot_Q>  (1) 
1

>  <i_epik_Tot_abs_Q>  (1) 
1

>  <i_i_glide_confnum>  (1) 
70

>  <i_i_glide_lignum>  (1) 
110

>  <i_i_glide_posenum>  (1) 
384

>  <i_i_glide_rotatable_bonds>  (1) 
8

>  <i_lp_mmshare_version>  (1) 
72125

>  <i_m_source_file_index>  (1) 
40

>  <i_f3d_flags>  (1) 
0

>  <num_sample>  (1) 
50

>  <b_lp_Chiralities_Consistent>  (1) 
1

>  <r_epik_Charging_Adjusted_Penalty>  (1) 
0.93182942678714009

>  <r_epik_Ionization_Penalty>  (1) 
0.32046720352224994

>  <r_epik_Ionization_Penalty_Charging>  (1) 
0.0037689991519664944

>  <r_epik_Ionization_Penalty_Neutral>  (1) 
0.31669820437028345

>  <r_epik_State_Penalty>  (1) 
0.9280604276351736

>  <r_glide_ring_energy>  (1) 
1.2534239858202048

>  <r_i_docking_score>  (1) 
-4.582938336173795

>  <r_i_glide_ecoul>  (1) 
-9.2332510589084489

>  <r_i_glide_eff_state_penalty>  (1) 
0.9280604276351736

>  <r_i_glide_einternal>  (1) 
8.8526398835549998

>  <r_i_glide_emodel>  (1) 
-37.226109097884226

>  <r_i_glide_emodel_strain>  (1) 
0.79520851302112305

>  <r_i_glide_energy>  (1) 
-30.317773033564201

>  <r_i_glide_erotb>  (1) 
0.49989103335302049

>  <r_i_glide_esite>  (1) 
-0.17031628707382918

>  <r_i_glide_evdw>  (1) 
-21.08452197465575

>  <r_i_glide_gscore>  (1) 
-5.5109987638089688

>  <r_i_glide_gscore_strain>  (1) 
0

>  <r_i_glide_hbond>  (1) 
-0.28832728853831224

>  <r_i_glide_ligand_efficiency>  (1) 
-0.14783672052173533

>  <r_i_glide_ligand_efficiency_ln>  (1) 
-1.0335930449997643

>  <r_i_glide_ligand_efficiency_sa>  (1) 
-0.46441141355997301

>  <r_i_glide_lipo>  (1) 
-1.3950294223175304

>  <r_i_glide_metal>  (1) 
-0

>  <r_i_glide_rewards>  (1) 
-1.7180030416632635

>  <r_lp_Energy>  (1) 
48.475696999999997

>  <s_epik_Chemistry_Notes>  (1) 
This compound contains an acetal/aminal-like group ( X-CH(R)-Y where X, Y are N, S, or O) that may be acid/base labile, releasing an aldehyde.

>  <s_epik_cmdline>  (1) 
J2VwaWtfcHl0aG9uJywgJy1waHQnLCAnMS4wJywgJy1waCcsICc3LjQnLCAnLXRuJywgJzgnLCAnLW1hJywgJzUwMCcsICctaW1hZScsICc8aW5maWxlLm1hZT4nLCAnLW9tYWUnLCAnPG91dGZpbGUubWFlPic=

>  <s_epik_input>  (1) 
RkMxKEYpW0NIMl1PW0NASF0oW09IXSlbQ0BIXShDMT1PKVtDSDJdW0NIMl1OKFtDSDJdMilbQ0gyXVtDSDJdW0NASF0oW0NAQEhdMjMpW0NIMl1bQ0BIXShbT0hdKU4oW0NIMl0zKVtDQEBIXTRbQ0gyXVtDSDJdW0NIMl1bQ0BASF0oW0NIMl00KVtDSDJdW09IXQ==

>  <s_glide_docking_method>  (1) 
confgen

>  <s_i_glide_gridfile>  (1) 
gpcr_drd2_6luq_protein_autoprepared_prepared

>  <s_lp_Force_Field>  (1) 
S-OPLS

>  <s_lp_Variant>  (1) 
DiffSBDD_39-6

>  <s_m_source_file>  (1) 
generated_generic_title2_ligand_DiffSBDD_2026-06-23_prepared.sdf

>  <GenAI_Model>  (1) 
DiffSBDD

>  <Protein>  (1) 
generic_title2

$$$$
DiffSBDD_21
     RDKit          3D

  0  0  0  0  0  0  0  0  0  0999 V3000
M  V30 BEGIN CTAB
M  V30 COUNTS 63 67 0 0 1
M  V30 BEGIN ATOM
M  V30 1 C 10.802685 7.711787 -7.574182 0
M  V30 2 N 11.908812 8.474488 -9.242826 0
M  V30 3 C 7.997534 5.368678 -15.408307 0 CFG=1
M  V30 4 C 6.592899 2.449111 -13.295400 0
M  V30 5 C 10.358695 7.511626 -6.158640 0
M  V30 6 C 6.743961 3.590235 -12.324035 0 CFG=2
M  V30 7 C 9.186571 3.826762 -17.197254 0 CFG=1
M  V30 8 C 7.525483 1.876584 -17.062118 0
M  V30 9 O 6.702592 5.725630 -15.849535 0
M  V30 10 C 10.387825 3.795586 -18.164063 0
M  V30 11 C 10.780239 7.190374 -11.154163 0
M  V30 12 C 10.282415 7.077714 -8.739726 0
M  V30 13 C 7.957637 4.199542 -14.385312 0 CFG=1
M  V30 14 C 8.996125 5.230407 -16.588671 0
M  V30 15 C 7.517941 4.674649 -13.017568 0 CFG=2
M  V30 16 C 9.272006 6.121623 -9.023733 0
M  V30 17 C 9.012384 5.711013 -10.355119 0
M  V30 18 C 7.849992 3.228943 -17.740842 0 CFG=2
M  V30 19 O 8.012508 4.790230 -10.595626 0
M  V30 20 C 7.051520 2.964012 -14.681047 0 CFG=1
M  V30 21 C 7.632943 1.796303 -15.518509 0
M  V30 22 C 8.088624 4.017994 -11.785742 0 CFG=1
M  V30 23 C 11.015692 7.590217 -9.831514 0
M  V30 24 C 6.378518 3.322007 -19.947322 0 CFG=1
M  V30 25 C 9.775406 6.251915 -11.422203 0
M  V30 26 C 5.766049 4.625955 -19.641365 0
M  V30 27 C 7.768007 3.155262 -19.293928 0
M  V30 28 C 5.405157 2.162152 -19.707242 0
M  V30 29 N 5.286146 5.651904 -19.406159 0
M  V30 30 N 11.775529 8.543683 -7.882045 0
M  V30 31 H 8.333394 6.252271 -14.866360 0
M  V30 32 H 7.216143 1.623393 -12.948462 0
M  V30 33 H 5.561315 2.097053 -13.318358 0
M  V30 34 H 10.555656 6.491916 -5.827328 0
M  V30 35 H 9.287196 7.686961 -6.060270 0
M  V30 36 H 10.868218 8.188736 -5.472839 0
M  V30 37 H 5.853709 3.881867 -11.769127 0
M  V30 38 H 9.541321 3.203302 -16.385183 0
M  V30 39 H 8.163519 1.100095 -17.485886 0
M  V30 40 H 6.511867 1.583902 -17.320474 0
M  V30 41 H 6.164646 5.900208 -15.092556 0
M  V30 42 H 10.305389 4.543016 -18.953015 0
M  V30 43 H 10.502819 2.814797 -18.626302 0
M  V30 44 H 11.314969 4.006994 -17.629670 0
M  V30 45 H 11.368180 7.590213 -11.959216 0
M  V30 46 H 8.975425 3.857169 -14.241198 0
M  V30 47 H 9.970591 5.556039 -16.221293 0
M  V30 48 H 8.737412 5.939416 -17.376525 0
M  V30 49 H 7.117943 5.683942 -12.934066 0
M  V30 50 H 8.685063 5.710508 -8.216094 0
M  V30 51 H 7.043460 3.893237 -17.449700 0
M  V30 52 H 6.175403 3.339352 -15.185036 0
M  V30 53 H 7.097784 0.886475 -15.242123 0
M  V30 54 H 8.652698 1.590132 -15.208670 0
M  V30 55 H 8.939005 3.339727 -11.849199 0
M  V30 56 H 6.553702 3.353547 -21.023209 0
M  V30 57 H 9.593603 5.945776 -12.438263 0
M  V30 58 H 8.245149 2.243013 -19.653891 0
M  V30 59 H 8.347056 3.972705 -19.718840 0
M  V30 60 H 4.575454 2.206293 -20.410669 0
M  V30 61 H 4.975482 2.204067 -18.709240 0
M  V30 62 H 5.892563 1.195741 -19.837517 0
M  V30 63 H 12.603878 9.034577 -9.719118 0
M  V30 END ATOM
M  V30 BEGIN BOND
M  V30 1 1 5 1
M  V30 2 1 6 4
M  V30 3 1 9 3
M  V30 4 1 10 7
M  V30 5 1 12 1
M  V30 6 1 13 3
M  V30 7 1 14 3
M  V30 8 1 14 7
M  V30 9 1 15 6
M  V30 10 1 15 13
M  V30 11 1 16 12
M  V30 12 2 17 16
M  V30 13 1 18 7
M  V30 14 1 18 8
M  V30 15 1 19 17
M  V30 16 1 20 4
M  V30 17 1 20 13
M  V30 18 1 21 8
M  V30 19 1 21 20
M  V30 20 1 22 6
M  V30 21 1 22 15
M  V30 22 1 22 19
M  V30 23 1 23 2
M  V30 24 1 23 11
M  V30 25 2 23 12
M  V30 26 2 25 11
M  V30 27 1 25 17
M  V30 28 1 26 24
M  V30 29 1 27 18
M  V30 30 1 27 24
M  V30 31 1 28 24
M  V30 32 3 29 26
M  V30 33 2 30 1
M  V30 34 1 30 2
M  V30 35 1 3 31 CFG=1
M  V30 36 1 32 4
M  V30 37 1 33 4
M  V30 38 1 34 5
M  V30 39 1 35 5
M  V30 40 1 36 5
M  V30 41 1 6 37 CFG=1
M  V30 42 1 7 38 CFG=1
M  V30 43 1 39 8
M  V30 44 1 40 8
M  V30 45 1 41 9
M  V30 46 1 42 10
M  V30 47 1 43 10
M  V30 48 1 44 10
M  V30 49 1 45 11
M  V30 50 1 13 46 CFG=1
M  V30 51 1 47 14
M  V30 52 1 48 14
M  V30 53 1 15 49 CFG=1
M  V30 54 1 50 16
M  V30 55 1 18 51 CFG=1
M  V30 56 1 20 52 CFG=3
M  V30 57 1 53 21
M  V30 58 1 54 21
M  V30 59 1 22 55 CFG=3
M  V30 60 1 24 56 CFG=3
M  V30 61 1 57 25
M  V30 62 1 58 27
M  V30 63 1 59 27
M  V30 64 1 60 28
M  V30 65 1 61 28
M  V30 66 1 62 28
M  V30 67 1 63 2
M  V30 END BOND
M  V30 END CTAB
M  END
>  <i_epik_Tot_Q>  (1) 
0

>  <i_epik_Tot_abs_Q>  (1) 
0

>  <i_i_glide_confnum>  (1) 
8

>  <i_i_glide_lignum>  (1) 
68

>  <i_i_glide_posenum>  (1) 
317

>  <i_i_glide_rotatable_bonds>  (1) 
5

>  <i_lp_mmshare_version>  (1) 
72125

>  <i_m_source_file_index>  (1) 
22

>  <i_f3d_flags>  (1) 
0

>  <num_sample>  (1) 
50

>  <b_lp_Chiralities_Consistent>  (1) 
1

>  <r_epik_Charging_Adjusted_Penalty>  (1) 
0

>  <r_epik_Ionization_Penalty>  (1) 
6.9991700099201596e-06

>  <r_epik_Ionization_Penalty_Charging>  (1) 
0

>  <r_epik_Ionization_Penalty_Neutral>  (1) 
6.9991700099201596e-06

>  <r_epik_State_Penalty>  (1) 
-0

>  <r_glide_ring_energy>  (1) 
0

>  <r_i_docking_score>  (1) 
-4.565381058237187

>  <r_i_glide_ecoul>  (1) 
-1.4012713537597543

>  <r_i_glide_eff_state_penalty>  (1) 
-0

>  <r_i_glide_einternal>  (1) 
4.4324967699855904

>  <r_i_glide_emodel>  (1) 
-39.789324097399273

>  <r_i_glide_emodel_strain>  (1) 
0

>  <r_i_glide_energy>  (1) 
-33.696159470693701

>  <r_i_glide_erotb>  (1) 
0.35530975304463774

>  <r_i_glide_esite>  (1) 
0

>  <r_i_glide_evdw>  (1) 
-32.294888116933947

>  <r_i_glide_gscore>  (1) 
-4.565381058237187

>  <r_i_glide_gscore_strain>  (1) 
0

>  <r_i_glide_hbond>  (1) 
0

>  <r_i_glide_ligand_efficiency>  (1) 
-0.15217936860790623

>  <r_i_glide_ligand_efficiency_ln>  (1) 
-1.0373043202422849

>  <r_i_glide_ligand_efficiency_sa>  (1) 
-0.47285668087402055

>  <r_i_glide_lipo>  (1) 
-1.9011142511287038

>  <r_i_glide_metal>  (1) 
-0

>  <r_i_glide_rewards>  (1) 
-1.1946414512424604

>  <r_lp_Energy>  (1) 
45.650846999999999

>  <r_lp_tautomer_probability>  (1) 
1

>  <s_epik_cmdline>  (1) 
J2VwaWtfcHl0aG9uJywgJy1waHQnLCAnMS4wJywgJy1waCcsICc3LjQnLCAnLXRuJywgJzgnLCAnLW1hJywgJzUwMCcsICctaW1hZScsICc8aW5maWxlLm1hZT4nLCAnLW9tYWUnLCAnPG91dGZpbGUubWFlPic=

>  <s_epik_input>  (1) 
W0NIM11jMVtuSF1uYyhjMTIpW2NIXVtjSF1jKFtjSF0yKU9bQ0BASF0zW0NASF0oW0NASF0zNClbQ0BIXTVbQ0BIXShbQ0gyXTQpW0NIMl1bQ0gyXVtDQEhdKFtDSDJdW0NASF0oQyNOKVtDSDNdKVtDQEBIXShbQ0gzXSlbQ0gyXVtDQEhdNVtPSF0=

>  <s_glide_docking_method>  (1) 
confgen

>  <s_i_glide_gridfile>  (1) 
gpcr_drd2_6luq_protein_autoprepared_prepared

>  <s_lp_Force_Field>  (1) 
S-OPLS

>  <s_lp_Variant>  (1) 
DiffSBDD_21-1

>  <s_m_source_file>  (1) 
generated_generic_title2_ligand_DiffSBDD_2026-06-23_prepared.sdf

>  <GenAI_Model>  (1) 
DiffSBDD

>  <Protein>  (1) 
generic_title2

$$$$
DiffSBDD_39
     RDKit          3D

  0  0  0  0  0  0  0  0  0  0999 V3000
M  V30 BEGIN CTAB
M  V30 COUNTS 69 72 0 0 1
M  V30 BEGIN ATOM
M  V30 1 C 7.647339 6.393996 -14.691393 0
M  V30 2 F 13.293609 2.984257 -19.084447 0
M  V30 3 F 11.139881 3.071004 -19.211832 0
M  V30 4 C 11.693719 8.528912 -9.641366 0
M  V30 5 C 7.452441 6.537614 -12.166488 0
M  V30 6 C 6.768681 4.554942 -10.823346 0 CFG=1
M  V30 7 O 12.975020 8.390209 -9.060653 0
M  V30 8 C 11.335181 5.873162 -17.792502 0 CFG=2
M  V30 9 C 7.253301 3.532095 -14.611870 0
M  V30 10 C 8.861724 5.802247 -10.143374 0 CFG=2
M  V30 11 O 12.822638 7.299942 -19.082792 0
M  V30 12 C 7.171792 4.352213 -15.920810 0
M  V30 13 N 8.007411 5.564813 -15.874158 0 CFG=2 CHG=1
M  V30 14 C 12.354034 4.759400 -20.297556 0
M  V30 15 C 7.821602 5.639716 -13.362098 0 CFG=1
M  V30 16 C 9.457022 5.325694 -16.114962 0
M  V30 17 O 11.398323 5.819146 -20.206025 0
M  V30 18 C 7.039973 3.651253 -12.051384 0
M  V30 19 N 7.537699 5.835287 -10.848642 0 CFG=1 CHG=1
M  V30 20 C 10.856293 7.266480 -9.372003 0 CFG=1
M  V30 21 C 10.422377 7.124467 -7.913533 0
M  V30 22 C 9.828597 5.576146 -17.591798 0
M  V30 23 C 6.914612 4.399713 -13.384574 0 CFG=2
M  V30 24 C 11.564193 6.662855 -19.104095 0 CFG=1
M  V30 25 C 12.189400 4.604289 -17.789709 0
M  V30 26 C 9.848334 5.722254 -7.726895 0
M  V30 27 C 12.244367 3.807503 -19.092711 0
M  V30 28 O 12.798001 4.241826 -16.785148 0
M  V30 29 C 8.644565 5.454427 -8.637224 0
M  V30 30 O 5.437896 5.026762 -10.785221 0
M  V30 31 C 9.634696 7.147390 -10.292945 0
M  V30 32 H 6.600949 6.686712 -14.795067 0
M  V30 33 H 8.175359 7.334050 -14.677258 0
M  V30 34 H 11.200911 9.422603 -9.257363 0
M  V30 35 H 11.837182 8.666541 -10.713190 0
M  V30 36 H 6.418599 6.865179 -12.288001 0
M  V30 37 H 8.013998 7.468397 -12.189159 0
M  V30 38 H 6.899436 3.990277 -9.905962 0
M  V30 39 H 13.492447 9.157264 -9.277221 0
M  V30 40 H 11.675609 6.517293 -16.981067 0
M  V30 41 H 6.574560 2.682128 -14.665407 0
M  V30 42 H 8.248663 3.104198 -14.501104 0
M  V30 43 H 9.472487 5.018800 -10.593809 0
M  V30 44 H 12.838332 7.938842 -19.779605 0
M  V30 45 H 6.175275 4.766973 -16.054566 0
M  V30 46 H 7.404526 3.744789 -16.796888 0
M  V30 47 H 13.365585 5.160502 -20.384879 0
M  V30 48 H 12.168115 4.208728 -21.219978 0
M  V30 49 H 8.865737 5.337115 -13.259519 0
M  V30 50 H 10.047214 5.989407 -15.493471 0
M  V30 51 H 9.751889 4.322188 -15.813156 0
M  V30 52 H 6.353203 2.804210 -12.037824 0
M  V30 53 H 8.046048 3.232736 -11.985228 0
M  V30 54 H 11.477515 6.410179 -9.584503 0
M  V30 55 H 11.273197 7.258946 -7.244318 0
M  V30 56 H 9.683577 7.882446 -7.647065 0
M  V30 57 H 9.513594 4.726290 -18.198416 0
M  V30 58 H 9.246887 6.408462 -17.981845 0
M  V30 59 H 5.876824 4.723585 -13.484355 0
M  V30 60 H 10.829955 7.463836 -19.198808 0
M  V30 61 H 10.620215 4.985488 -7.947767 0
M  V30 62 H 9.560840 5.591074 -6.685435 0
M  V30 63 H 8.404433 4.400873 -8.510884 0
M  V30 64 H 7.781231 5.990136 -8.249114 0
M  V30 65 H 5.090985 4.853956 -9.912665 0
M  V30 66 H 8.975492 7.994592 -10.103228 0
M  V30 67 H 9.987729 7.248394 -11.318143 0
M  V30 68 H 7.713779 6.115617 -16.668311 0
M  V30 69 H 7.038980 6.497129 -10.238862 0
M  V30 END ATOM
M  V30 BEGIN BOND
M  V30 1 1 7 4
M  V30 2 1 12 9
M  V30 3 1 13 1
M  V30 4 1 13 12
M  V30 5 1 15 1
M  V30 6 1 15 5
M  V30 7 1 16 13
M  V30 8 1 17 14
M  V30 9 1 18 6
M  V30 10 1 19 5
M  V30 11 1 19 6
M  V30 12 1 19 10
M  V30 13 1 20 4
M  V30 14 1 21 20
M  V30 15 1 22 8
M  V30 16 1 22 16
M  V30 17 1 23 9
M  V30 18 1 23 15
M  V30 19 1 23 18
M  V30 20 1 24 8
M  V30 21 1 24 11
M  V30 22 1 24 17
M  V30 23 1 25 8
M  V30 24 1 26 21
M  V30 25 1 27 2
M  V30 26 1 27 3
M  V30 27 1 27 14
M  V30 28 1 27 25
M  V30 29 2 28 25
M  V30 30 1 29 10
M  V30 31 1 29 26
M  V30 32 1 30 6
M  V30 33 1 31 10
M  V30 34 1 31 20
M  V30 35 1 32 1
M  V30 36 1 33 1
M  V30 37 1 34 4
M  V30 38 1 35 4
M  V30 39 1 36 5
M  V30 40 1 37 5
M  V30 41 1 6 38 CFG=1
M  V30 42 1 39 7
M  V30 43 1 8 40 CFG=1
M  V30 44 1 41 9
M  V30 45 1 42 9
M  V30 46 1 10 43 CFG=3
M  V30 47 1 44 11
M  V30 48 1 45 12
M  V30 49 1 46 12
M  V30 50 1 47 14
M  V30 51 1 48 14
M  V30 52 1 15 49 CFG=1
M  V30 53 1 50 16
M  V30 54 1 51 16
M  V30 55 1 52 18
M  V30 56 1 53 18
M  V30 57 1 20 54 CFG=3
M  V30 58 1 55 21
M  V30 59 1 56 21
M  V30 60 1 57 22
M  V30 61 1 58 22
M  V30 62 1 23 59 CFG=3
M  V30 63 1 24 60 CFG=3
M  V30 64 1 61 26
M  V30 65 1 62 26
M  V30 66 1 63 29
M  V30 67 1 64 29
M  V30 68 1 65 30
M  V30 69 1 66 31
M  V30 70 1 67 31
M  V30 71 1 13 68 CFG=3
M  V30 72 1 19 69 CFG=1
M  V30 END BOND
M  V30 END CTAB
M  END
>  <i_epik_Tot_Q>  (1) 
2

>  <i_epik_Tot_abs_Q>  (1) 
2

>  <i_i_glide_confnum>  (1) 
3

>  <i_i_glide_lignum>  (1) 
112

>  <i_i_glide_posenum>  (1) 
328

>  <i_i_glide_rotatable_bonds>  (1) 
8

>  <i_lp_mmshare_version>  (1) 
72125

>  <i_m_source_file_index>  (1) 
40

>  <i_f3d_flags>  (1) 
0

>  <num_sample>  (1) 
50

>  <b_lp_Chiralities_Consistent>  (1) 
1

>  <r_epik_Charging_Adjusted_Penalty>  (1) 
1.743801429740254

>  <r_epik_Ionization_Penalty>  (1) 
1.6051069046209219

>  <r_epik_Ionization_Penalty_Charging>  (1) 
0.6098477401054202

>  <r_epik_Ionization_Penalty_Neutral>  (1) 
0.99525916451550167

>  <r_epik_State_Penalty>  (1) 
1.1339536896348337

>  <r_glide_ring_energy>  (1) 
1.2534239858202167

>  <r_i_docking_score>  (1) 
-4.5645989409776853

>  <r_i_glide_ecoul>  (1) 
-12.477576447812641

>  <r_i_glide_eff_state_penalty>  (1) 
1.1339536896348337

>  <r_i_glide_einternal>  (1) 
8.6553877032165865

>  <r_i_glide_emodel>  (1) 
-38.941299400658991

>  <r_i_glide_emodel_strain>  (1) 
1.2011167272201959

>  <r_i_glide_energy>  (1) 
-32.749468244663895

>  <r_i_glide_erotb>  (1) 
0.49785121930328097

>  <r_i_glide_esite>  (1) 
-0.12942642648337938

>  <r_i_glide_evdw>  (1) 
-20.271891796851254

>  <r_i_glide_gscore>  (1) 
-5.6985526306125189

>  <r_i_glide_gscore_strain>  (1) 
0

>  <r_i_glide_hbond>  (1) 
-0.79249407779369485

>  <r_i_glide_ligand_efficiency>  (1) 
-0.14724512712831242

>  <r_i_glide_ligand_efficiency_ln>  (1) 
-1.0294569493480767

>  <r_i_glide_ligand_efficiency_sa>  (1) 
-0.46255299351979179

>  <r_i_glide_lipo>  (1) 
-1.0960992918408903

>  <r_i_glide_metal>  (1) 
-0

>  <r_i_glide_rewards>  (1) 
-1.2931529967833759

>  <r_lp_Energy>  (1) 
50.801770999999995

>  <r_lp_tautomer_probability>  (1) 
0.99995000000000001

>  <s_epik_Chemistry_Notes>  (1) 
This compound contains an acetal/aminal-like group ( X-CH(R)-Y where X, Y are N, S, or O) that may be acid/base labile, releasing an aldehyde.

>  <s_epik_cmdline>  (1) 
J2VwaWtfcHl0aG9uJywgJy1waHQnLCAnMS4wJywgJy1waCcsICc3LjQnLCAnLXRuJywgJzgnLCAnLW1hJywgJzUwMCcsICctaW1hZScsICc8aW5maWxlLm1hZT4nLCAnLW9tYWUnLCAnPG91dGZpbGUubWFlPic=

>  <s_epik_input>  (1) 
RkMxKEYpW0NIMl1PW0NASF0oW09IXSlbQ0BIXShDMT1PKVtDSDJdW0NIMl1OKFtDSDJdMilbQ0gyXVtDSDJdW0NASF0oW0NAQEhdMjMpW0NIMl1bQ0BIXShbT0hdKU4oW0NIMl0zKVtDQEBIXTRbQ0gyXVtDSDJdW0NIMl1bQ0BASF0oW0NIMl00KVtDSDJdW09IXQ==

>  <s_glide_docking_method>  (1) 
confgen

>  <s_i_glide_gridfile>  (1) 
gpcr_drd2_6luq_protein_autoprepared_prepared

>  <s_lp_Force_Field>  (1) 
S-OPLS

>  <s_lp_Variant>  (1) 
DiffSBDD_39-8

>  <s_m_source_file>  (1) 
generated_generic_title2_ligand_DiffSBDD_2026-06-23_prepared.sdf

>  <GenAI_Model>  (1) 
DiffSBDD

>  <Protein>  (1) 
generic_title2

$$$$
DiffSBDD_39
     RDKit          3D

  0  0  0  0  0  0  0  0  0  0999 V3000
M  V30 BEGIN CTAB
M  V30 COUNTS 68 71 0 0 1
M  V30 BEGIN ATOM
M  V30 1 C 8.025784 2.757747 -13.616514 0
M  V30 2 F 5.723464 -3.068631 -17.446708 0
M  V30 3 F 3.975351 -1.991998 -18.139733 0
M  V30 4 C 11.912420 8.835753 -9.192304 0
M  V30 5 C 9.023027 5.045986 -13.052983 0
M  V30 6 C 7.545983 6.834015 -12.224127 0 CFG=1
M  V30 7 O 12.975399 8.790213 -10.125181 0
M  V30 8 C 6.955283 -0.344451 -16.620553 0 CFG=2
M  V30 9 C 5.775419 3.393750 -11.966964 0
M  V30 10 C 9.621194 6.218667 -10.938031 0 CFG=2
M  V30 11 O 8.892823 0.300451 -17.933276 0
M  V30 12 C 5.775435 2.067957 -12.784941 0
M  V30 13 N 7.122552 1.649895 -13.227795 0 CFG=1 CHG=1
M  V30 14 C 6.019779 -1.480476 -19.146263 0
M  V30 15 C 8.028387 3.947758 -12.648523 0 CFG=1
M  V30 16 C 7.111864 0.492401 -14.172822 0
M  V30 17 O 7.374030 -1.144393 -18.853457 0
M  V30 18 C 6.452374 5.815362 -11.858382 0
M  V30 19 N 8.885235 6.241515 -12.211352 0
M  V30 20 C 11.089938 7.560414 -9.394220 0 CFG=1
M  V30 21 C 10.286155 7.110322 -8.166449 0
M  V30 22 C 7.071884 0.877734 -15.673428 0
M  V30 23 C 6.603018 4.484883 -12.613587 0 CFG=2
M  V30 24 C 7.525126 -0.025231 -18.030594 0 CFG=1
M  V30 25 C 5.513757 -0.837777 -16.785269 0
M  V30 26 C 9.749932 5.686146 -8.390677 0
M  V30 27 C 5.274085 -1.886346 -17.866228 0
M  V30 28 O 4.596402 -0.409818 -16.081690 0
M  V30 29 C 8.943628 5.555636 -9.696794 0
M  V30 30 O 7.338664 7.277866 -13.548752 0
M  V30 31 C 10.155833 7.621645 -10.614648 0
M  V30 32 H 7.830982 3.124926 -14.622995 0
M  V30 33 H 8.975410 2.272445 -13.585035 0
M  V30 34 H 12.337112 8.871709 -8.188877 0
M  V30 35 H 11.315022 9.736273 -9.331642 0
M  V30 36 H 8.851329 5.329055 -14.091580 0
M  V30 37 H 10.044995 4.671017 -13.020080 0
M  V30 38 H 7.494895 7.711946 -11.585109 0
M  V30 39 H 13.549162 9.542621 -9.985035 0
M  V30 40 H 7.551927 -1.167559 -16.229040 0
M  V30 41 H 4.788272 3.843163 -11.885835 0
M  V30 42 H 6.105747 3.214301 -10.943708 0
M  V30 43 H 10.499274 5.642283 -11.187156 0
M  V30 44 H 9.204834 0.504070 -18.802283 0
M  V30 45 H 5.068641 2.178458 -13.585034 0
M  V30 46 H 5.409393 1.202007 -12.219352 0
M  V30 47 H 6.012308 -2.309122 -19.855588 0
M  V30 48 H 5.521465 -0.643067 -19.638177 0
M  V30 49 H 8.319938 3.582694 -11.669077 0
M  V30 50 H 8.022200 -0.082360 -13.996826 0
M  V30 51 H 6.286794 -0.178038 -13.924095 0
M  V30 52 H 5.473508 6.246750 -12.068130 0
M  V30 53 H 6.435471 5.630130 -10.789444 0
M  V30 54 H 11.829773 6.790225 -9.576982 0
M  V30 55 H 10.913277 7.123718 -7.274439 0
M  V30 56 H 9.460333 7.799185 -7.980842 0
M  V30 57 H 6.258423 1.580335 -15.863491 0
M  V30 58 H 7.986413 1.414338 -15.917019 0
M  V30 59 H 6.255705 4.654271 -13.635255 0
M  V30 60 H 7.029871 0.835560 -18.486528 0
M  V30 61 H 10.575430 4.979046 -8.390444 0
M  V30 62 H 9.122401 5.397504 -7.546967 0
M  V30 63 H 8.755296 4.500209 -9.860277 0
M  V30 64 H 7.978012 5.990206 -9.486128 0
M  V30 65 H 7.250767 8.217797 -13.528844 0
M  V30 66 H 9.340604 8.321251 -10.429941 0
M  V30 67 H 10.698338 7.990248 -11.482226 0
M  V30 68 H 7.544668 1.285067 -12.384872 0
M  V30 END ATOM
M  V30 BEGIN BOND
M  V30 1 1 7 4
M  V30 2 1 12 9
M  V30 3 1 13 1
M  V30 4 1 13 12
M  V30 5 1 15 1
M  V30 6 1 15 5
M  V30 7 1 16 13
M  V30 8 1 17 14
M  V30 9 1 18 6
M  V30 10 1 19 5
M  V30 11 1 19 6
M  V30 12 1 19 10
M  V30 13 1 20 4
M  V30 14 1 21 20
M  V30 15 1 22 8
M  V30 16 1 22 16
M  V30 17 1 23 9
M  V30 18 1 23 15
M  V30 19 1 23 18
M  V30 20 1 24 8
M  V30 21 1 24 11
M  V30 22 1 24 17
M  V30 23 1 25 8
M  V30 24 1 26 21
M  V30 25 1 27 2
M  V30 26 1 27 3
M  V30 27 1 27 14
M  V30 28 1 27 25
M  V30 29 2 28 25
M  V30 30 1 29 10
M  V30 31 1 29 26
M  V30 32 1 30 6
M  V30 33 1 31 10
M  V30 34 1 31 20
M  V30 35 1 32 1
M  V30 36 1 33 1
M  V30 37 1 34 4
M  V30 38 1 35 4
M  V30 39 1 36 5
M  V30 40 1 37 5
M  V30 41 1 6 38 CFG=1
M  V30 42 1 39 7
M  V30 43 1 8 40 CFG=1
M  V30 44 1 41 9
M  V30 45 1 42 9
M  V30 46 1 10 43 CFG=3
M  V30 47 1 44 11
M  V30 48 1 45 12
M  V30 49 1 46 12
M  V30 50 1 47 14
M  V30 51 1 48 14
M  V30 52 1 15 49 CFG=1
M  V30 53 1 50 16
M  V30 54 1 51 16
M  V30 55 1 52 18
M  V30 56 1 53 18
M  V30 57 1 20 54 CFG=3
M  V30 58 1 55 21
M  V30 59 1 56 21
M  V30 60 1 57 22
M  V30 61 1 58 22
M  V30 62 1 23 59 CFG=3
M  V30 63 1 24 60 CFG=3
M  V30 64 1 61 26
M  V30 65 1 62 26
M  V30 66 1 63 29
M  V30 67 1 64 29
M  V30 68 1 65 30
M  V30 69 1 66 31
M  V30 70 1 67 31
M  V30 71 1 13 68 CFG=1
M  V30 END BOND
M  V30 END CTAB
M  END
>  <i_epik_Tot_Q>  (1) 
1

>  <i_epik_Tot_abs_Q>  (1) 
1

>  <i_i_glide_confnum>  (1) 
284

>  <i_i_glide_lignum>  (1) 
109

>  <i_i_glide_posenum>  (1) 
190

>  <i_i_glide_rotatable_bonds>  (1) 
8

>  <i_lp_mmshare_version>  (1) 
72125

>  <i_m_source_file_index>  (1) 
40

>  <i_f3d_flags>  (1) 
0

>  <num_sample>  (1) 
50

>  <b_lp_Chiralities_Consistent>  (1) 
1

>  <r_epik_Charging_Adjusted_Penalty>  (1) 
0.93182942678714009

>  <r_epik_Ionization_Penalty>  (1) 
0.32046720352224994

>  <r_epik_Ionization_Penalty_Charging>  (1) 
0.0037689991519664944

>  <r_epik_Ionization_Penalty_Neutral>  (1) 
0.31669820437028345

>  <r_epik_State_Penalty>  (1) 
0.9280604276351736

>  <r_glide_ring_energy>  (1) 
0

>  <r_i_docking_score>  (1) 
-4.5477254145335149

>  <r_i_glide_ecoul>  (1) 
-9.0761823102742767

>  <r_i_glide_eff_state_penalty>  (1) 
0.9280604276351736

>  <r_i_glide_einternal>  (1) 
10.915711369944638

>  <r_i_glide_emodel>  (1) 
-37.440807178790365

>  <r_i_glide_emodel_strain>  (1) 
0.94067953814571581

>  <r_i_glide_energy>  (1) 
-32.846419406929812

>  <r_i_glide_erotb>  (1) 
0.49989103335302049

>  <r_i_glide_esite>  (1) 
-0.12172219103973232

>  <r_i_glide_evdw>  (1) 
-23.770237096655531

>  <r_i_glide_gscore>  (1) 
-5.4757858421686887

>  <r_i_glide_gscore_strain>  (1) 
0

>  <r_i_glide_hbond>  (1) 
-0.32000000000000001

>  <r_i_glide_ligand_efficiency>  (1) 
-0.14670081982366176

>  <r_i_glide_ligand_efficiency_ln>  (1) 
-1.0256514520234334

>  <r_i_glide_ligand_efficiency_sa>  (1) 
-0.46084311708400688

>  <r_i_glide_lipo>  (1) 
-1.5283255569540142

>  <r_i_glide_metal>  (1) 
-0

>  <r_i_glide_rewards>  (1) 
-1.4556899261540446

>  <r_lp_Energy>  (1) 
47.661428000000001

>  <s_epik_Chemistry_Notes>  (1) 
This compound contains an acetal/aminal-like group ( X-CH(R)-Y where X, Y are N, S, or O) that may be acid/base labile, releasing an aldehyde.

>  <s_epik_cmdline>  (1) 
J2VwaWtfcHl0aG9uJywgJy1waHQnLCAnMS4wJywgJy1waCcsICc3LjQnLCAnLXRuJywgJzgnLCAnLW1hJywgJzUwMCcsICctaW1hZScsICc8aW5maWxlLm1hZT4nLCAnLW9tYWUnLCAnPG91dGZpbGUubWFlPic=

>  <s_epik_input>  (1) 
RkMxKEYpW0NIMl1PW0NASF0oW09IXSlbQ0BIXShDMT1PKVtDSDJdW0NIMl1OKFtDSDJdMilbQ0gyXVtDSDJdW0NASF0oW0NAQEhdMjMpW0NIMl1bQ0BIXShbT0hdKU4oW0NIMl0zKVtDQEBIXTRbQ0gyXVtDSDJdW0NIMl1bQ0BASF0oW0NIMl00KVtDSDJdW09IXQ==

>  <s_glide_docking_method>  (1) 
confgen

>  <s_i_glide_gridfile>  (1) 
gpcr_drd2_6luq_protein_autoprepared_prepared

>  <s_lp_Force_Field>  (1) 
S-OPLS

>  <s_lp_Variant>  (1) 
DiffSBDD_39-5

>  <s_m_source_file>  (1) 
generated_generic_title2_ligand_DiffSBDD_2026-06-23_prepared.sdf

>  <GenAI_Model>  (1) 
DiffSBDD

>  <Protein>  (1) 
generic_title2

$$$$
DiffSBDD_0
     RDKit          3D

  0  0  0  0  0  0  0  0  0  0999 V3000
M  V30 BEGIN CTAB
M  V30 COUNTS 70 74 0 0 1
M  V30 BEGIN ATOM
M  V30 1 C 11.226854 9.066525 -6.653008 0
M  V30 2 N 7.793105 3.902508 -13.918075 0
M  V30 3 C 7.513413 3.831198 -18.179401 0 CFG=1
M  V30 4 C 8.600244 5.274040 -12.077092 0
M  V30 5 F 11.483150 6.163975 -5.937361 0
M  V30 6 C 6.938945 4.938682 -14.528403 0
M  V30 7 C 11.411989 8.920661 -8.172401 0
M  V30 8 C 9.417637 6.742942 -10.433294 0
M  V30 9 C 10.658493 6.505413 -8.112605 0 CFG=1
M  V30 10 C 10.136478 4.269316 -18.227909 0
M  V30 11 C 7.849773 2.629280 -14.638071 0 CFG=2
M  V30 12 C 6.931736 0.296256 -12.960508 0
M  V30 13 C 8.886565 3.721782 -18.853046 0 CFG=1
M  V30 14 O 9.374925 5.417609 -10.955418 0
M  V30 15 C 10.418495 6.628481 -6.589296 0 CFG=2
M  V30 16 C 8.157723 2.475266 -18.378425 0 CFG=1
M  V30 17 N 7.375469 3.887923 -16.699087 0 CFG=1 CHG=1
M  V30 18 C 9.353610 6.737131 -8.894755 0
M  V30 19 C 6.108832 1.479825 -13.487456 0
M  V30 20 C 8.315246 2.959811 -16.063282 0 CFG=2
M  V30 21 O 6.174942 -0.409752 -12.007171 0
M  V30 22 C 11.780897 7.481471 -8.515044 0
M  V30 23 N 11.225319 3.495115 -17.948240 0
M  V30 24 C 7.306415 5.191495 -16.009437 0
M  V30 25 N 10.242724 5.561238 -17.915231 0
M  V30 26 O 11.516628 5.665176 -17.331799 0
M  V30 27 C 12.004094 4.412075 -17.396781 0
M  V30 28 O 6.619225 1.984089 -14.718068 0
M  V30 29 N 13.268737 4.255656 -16.858281 0
M  V30 30 C 8.553264 4.125884 -12.770704 0
M  V30 31 C 10.171679 8.080503 -6.127377 0
M  V30 32 C 14.107315 3.080326 -16.716549 0
M  V30 33 C 8.424357 1.798033 -17.043725 0
M  V30 34 H 12.174909 8.876820 -6.152473 0
M  V30 35 H 10.951408 10.085921 -6.385076 0
M  V30 36 H 6.614352 4.072919 -18.743095 0
M  V30 37 H 8.050269 6.166575 -12.326318 0
M  V30 38 H 5.907233 4.593310 -14.464607 0
M  V30 39 H 6.955530 5.888105 -13.999650 0
M  V30 40 H 12.181972 9.590230 -8.536132 0
M  V30 41 H 10.506630 9.191046 -8.709344 0
M  V30 42 H 10.302926 7.248506 -10.813637 0
M  V30 43 H 8.582011 7.351860 -10.784950 0
M  V30 44 H 10.975140 5.486901 -8.322046 0
M  V30 45 H 8.575381 1.975665 -14.153429 0
M  V30 46 H 7.858767 0.634734 -12.499064 0
M  V30 47 H 7.191605 -0.385519 -13.772139 0
M  V30 48 H 8.913801 3.900562 -19.925714 0
M  V30 49 H 9.585623 5.994391 -6.282589 0
M  V30 50 H 7.775884 1.822665 -19.161804 0
M  V30 51 H 8.976070 7.708554 -8.592652 0
M  V30 52 H 8.589765 6.027229 -8.574645 0
M  V30 53 H 5.087450 1.146754 -13.676523 0
M  V30 54 H 6.034167 2.266830 -12.736163 0
M  V30 55 H 9.280509 3.456396 -15.991595 0
M  V30 56 H 5.641208 -1.049461 -12.472941 0
M  V30 57 H 12.681648 7.237485 -7.955835 0
M  V30 58 H 12.051312 7.391844 -9.565954 0
M  V30 59 H 6.556870 5.826167 -16.483115 0
M  V30 60 H 8.263487 5.708682 -16.078122 0
M  V30 61 H 13.674392 5.098872 -16.480263 0
M  V30 62 H 9.132635 3.265604 -12.463938 0
M  V30 63 H 10.175108 8.109370 -5.041873 0
M  V30 64 H 9.179275 8.404512 -6.441272 0
M  V30 65 H 14.859848 3.242595 -15.944781 0
M  V30 66 H 13.507199 2.214435 -16.431840 0
M  V30 67 H 14.610189 2.857403 -17.657523 0
M  V30 68 H 7.661416 1.039013 -16.868494 0
M  V30 69 H 9.404946 1.322314 -17.026427 0
M  V30 70 H 6.479490 3.458353 -16.512912 0
M  V30 END ATOM
M  V30 BEGIN BOND
M  V30 1 1 6 2
M  V30 2 1 7 1
M  V30 3 1 11 2
M  V30 4 1 13 3
M  V30 5 1 13 10
M  V30 6 1 14 4
M  V30 7 1 14 8
M  V30 8 1 15 5
M  V30 9 1 15 9
M  V30 10 1 16 3
M  V30 11 1 16 13
M  V30 12 1 17 3
M  V30 13 1 18 8
M  V30 14 1 18 9
M  V30 15 1 19 12
M  V30 16 1 20 11
M  V30 17 1 20 17
M  V30 18 1 21 12
M  V30 19 1 22 7
M  V30 20 1 22 9
M  V30 21 1 23 10
M  V30 22 1 24 6
M  V30 23 1 24 17
M  V30 24 2 25 10
M  V30 25 1 26 25
M  V30 26 2 27 23
M  V30 27 1 27 26
M  V30 28 1 28 11
M  V30 29 1 28 19
M  V30 30 1 29 27
M  V30 31 1 30 2
M  V30 32 2 30 4
M  V30 33 1 31 1
M  V30 34 1 31 15
M  V30 35 1 32 29
M  V30 36 1 33 16
M  V30 37 1 33 20
M  V30 38 1 34 1
M  V30 39 1 35 1
M  V30 40 1 3 36 CFG=3
M  V30 41 1 37 4
M  V30 42 1 38 6
M  V30 43 1 39 6
M  V30 44 1 40 7
M  V30 45 1 41 7
M  V30 46 1 42 8
M  V30 47 1 43 8
M  V30 48 1 9 44 CFG=1
M  V30 49 1 11 45 CFG=1
M  V30 50 1 46 12
M  V30 51 1 47 12
M  V30 52 1 13 48 CFG=3
M  V30 53 1 15 49 CFG=1
M  V30 54 1 16 50 CFG=3
M  V30 55 1 51 18
M  V30 56 1 52 18
M  V30 57 1 53 19
M  V30 58 1 54 19
M  V30 59 1 20 55 CFG=1
M  V30 60 1 56 21
M  V30 61 1 57 22
M  V30 62 1 58 22
M  V30 63 1 59 24
M  V30 64 1 60 24
M  V30 65 1 61 29
M  V30 66 1 62 30
M  V30 67 1 63 31
M  V30 68 1 64 31
M  V30 69 1 65 32
M  V30 70 1 66 32
M  V30 71 1 67 32
M  V30 72 1 68 33
M  V30 73 1 69 33
M  V30 74 1 17 70 CFG=3
M  V30 END BOND
M  V30 END CTAB
M  END
>  <i_epik_Tot_Q>  (1) 
1

>  <i_epik_Tot_abs_Q>  (1) 
1

>  <i_i_glide_confnum>  (1) 
101

>  <i_i_glide_lignum>  (1) 
2

>  <i_i_glide_posenum>  (1) 
201

>  <i_i_glide_rotatable_bonds>  (1) 
11

>  <i_lp_mmshare_version>  (1) 
72125

>  <i_m_source_file_index>  (1) 
1

>  <i_f3d_flags>  (1) 
0

>  <num_sample>  (1) 
50

>  <b_lp_Chiralities_Consistent>  (1) 
1

>  <r_epik_Charging_Adjusted_Penalty>  (1) 
0.41344222577729461

>  <r_epik_Ionization_Penalty>  (1) 
0.0027644559619576371

>  <r_epik_Ionization_Penalty_Charging>  (1) 
0.0027623868246906495

>  <r_epik_Ionization_Penalty_Neutral>  (1) 
2.0691372669875143e-06

>  <r_epik_State_Penalty>  (1) 
0.41067983895260396

>  <r_glide_ring_energy>  (1) 
1.3007136337365988

>  <r_i_docking_score>  (1) 
-4.5467451526163352

>  <r_i_glide_ecoul>  (1) 
-2.8526248564447956

>  <r_i_glide_eff_state_penalty>  (1) 
0.41067983895260396

>  <r_i_glide_einternal>  (1) 
8.4468065042509046

>  <r_i_glide_emodel>  (1) 
-42.6298003753746

>  <r_i_glide_emodel_strain>  (1) 
0.89239687863728534

>  <r_i_glide_energy>  (1) 
-35.900233769923048

>  <r_i_glide_erotb>  (1) 
0.74142510397790429

>  <r_i_glide_esite>  (1) 
-0.002400074157949024

>  <r_i_glide_evdw>  (1) 
-33.04760891347825

>  <r_i_glide_gscore>  (1) 
-4.9574249915689395

>  <r_i_glide_gscore_strain>  (1) 
0

>  <r_i_glide_hbond>  (1) 
-0.16

>  <r_i_glide_ligand_efficiency>  (1) 
-0.13778015613988895

>  <r_i_glide_ligand_efficiency_ln>  (1) 
-1.0111725801554019

>  <r_i_glide_ligand_efficiency_sa>  (1) 
-0.44193458081087905

>  <r_i_glide_lipo>  (1) 
-2.1659398737998599

>  <r_i_glide_metal>  (1) 
-0

>  <r_i_glide_rewards>  (1) 
-1.2902359734484028

>  <r_lp_Energy>  (1) 
46.492728

>  <r_lp_tautomer_probability>  (1) 
0.5

>  <s_epik_Chemistry_Notes>  (1) 
This compound has an imine and may undergo hydrolysis. This compound contains an acetal/aminal-like group ( X-CH(R)-Y where X, Y are N, S, or O) that may be acid/base labile, releasing an aldehyde.

>  <s_epik_cmdline>  (1) 
J2VwaWtfcHl0aG9uJywgJy1waHQnLCAnMS4wJywgJy1waCcsICc3LjQnLCAnLXRuJywgJzgnLCAnLW1hJywgJzUwMCcsICctaW1hZScsICc8aW5maWxlLm1hZT4nLCAnLW9tYWUnLCAnPG91dGZpbGUubWFlPic=

>  <s_epik_input>  (1) 
W0NIMl0xW0NIMl1bQ0gyXVtDSDJdW0NASF0oRilbQ0BIXTFbQ0gyXVtDSDJdTy9bQ0hdPVtDSF0vTihbQ0BIXTJPW0NIMl1bQ0gyXVtPSF0pW0NIMl1bQ0gyXU4zW0NAQEhdMltDSDJdW0NAQEhdKFtDQEBIXTM0KVtDQEBIXTRjNW5jKG9uNSlbTkhdW0NIM10=

>  <s_glide_docking_method>  (1) 
confgen

>  <s_i_glide_gridfile>  (1) 
gpcr_drd2_6luq_protein_autoprepared_prepared

>  <s_lp_Force_Field>  (1) 
S-OPLS

>  <s_lp_Variant>  (1) 
DiffSBDD_0-2

>  <s_m_source_file>  (1) 
generated_generic_title2_ligand_DiffSBDD_2026-06-23_prepared.sdf

>  <GenAI_Model>  (1) 
DiffSBDD

>  <Protein>  (1) 
generic_title2

$$$$
DiffSBDD_21
     RDKit          3D

  0  0  0  0  0  0  0  0  0  0999 V3000
M  V30 BEGIN CTAB
M  V30 COUNTS 63 67 0 0 1
M  V30 BEGIN ATOM
M  V30 1 C 10.802492 7.695677 -7.575255 0
M  V30 2 N 11.910275 8.464932 -9.239867 0
M  V30 3 C 7.935951 5.358345 -15.438947 0 CFG=1
M  V30 4 C 6.615640 2.427655 -13.290701 0
M  V30 5 C 10.357744 7.488155 -6.160980 0
M  V30 6 C 6.754182 3.579724 -12.331189 0 CFG=2
M  V30 7 C 9.182106 3.829778 -17.204087 0 CFG=1
M  V30 8 C 7.576256 1.829733 -17.049844 0
M  V30 9 O 6.624377 5.655174 -15.880370 0
M  V30 10 C 10.389325 3.819108 -18.164483 0
M  V30 11 C 10.781260 7.190227 -11.157571 0
M  V30 12 C 10.282494 7.067620 -8.743570 0
M  V30 13 C 7.944047 4.198366 -14.403381 0 CFG=1
M  V30 14 C 8.941486 5.236183 -16.617130 0
M  V30 15 C 7.509968 4.672019 -13.032948 0 CFG=2
M  V30 16 C 9.271912 6.113523 -9.031849 0
M  V30 17 C 9.012272 5.709371 -10.365011 0
M  V30 18 C 7.868031 3.181959 -17.740906 0 CFG=2
M  V30 19 O 8.012962 4.790232 -10.609911 0
M  V30 20 C 7.065983 2.935358 -14.681266 0 CFG=1
M  V30 21 C 7.675034 1.770683 -15.504779 0
M  V30 22 C 8.095463 4.023448 -11.802254 0 CFG=1
M  V30 23 C 11.016614 7.584249 -9.832890 0
M  V30 24 C 6.393201 3.287004 -19.929208 0 CFG=1
M  V30 25 C 9.775391 6.254547 -11.429692 0
M  V30 26 C 5.819949 4.601024 -19.591327 0
M  V30 27 C 7.783355 3.087779 -19.291857 0
M  V30 28 C 5.402557 2.143210 -19.682819 0
M  V30 29 N 5.375189 5.635542 -19.325533 0
M  V30 30 N 11.775768 8.528764 -7.878747 0
M  V30 31 H 8.235491 6.262410 -14.908412 0
M  V30 32 H 7.246764 1.611008 -12.936236 0
M  V30 33 H 5.587255 2.066264 -13.310865 0
M  V30 34 H 10.550557 6.465295 -5.836304 0
M  V30 35 H 9.286788 7.665706 -6.061949 0
M  V30 36 H 10.868558 8.159284 -5.470310 0
M  V30 37 H 5.865120 3.858268 -11.768271 0
M  V30 38 H 9.552788 3.226290 -16.385067 0
M  V30 39 H 8.240809 1.067470 -17.458628 0
M  V30 40 H 6.572677 1.507176 -17.316349 0
M  V30 41 H 6.653767 6.401411 -16.459963 0
M  V30 42 H 10.294758 4.555856 -18.962137 0
M  V30 43 H 10.529782 2.835921 -18.615206 0
M  V30 44 H 11.308420 4.057371 -17.627540 0
M  V30 45 H 11.370419 7.590224 -11.960836 0
M  V30 46 H 8.975466 3.890671 -14.269179 0
M  V30 47 H 9.904714 5.595611 -16.251967 0
M  V30 48 H 8.665009 5.925096 -17.416806 0
M  V30 49 H 7.096595 5.676247 -12.951228 0
M  V30 50 H 8.685025 5.698941 -8.226054 0
M  V30 51 H 7.041539 3.821310 -17.451980 0
M  V30 52 H 6.175410 3.277432 -15.185022 0
M  V30 53 H 7.158359 0.852765 -15.219527 0
M  V30 54 H 8.698100 1.590168 -15.191203 0
M  V30 55 H 8.951886 3.352993 -11.866988 0
M  V30 56 H 6.554370 3.327025 -21.006996 0
M  V30 57 H 9.592791 5.952886 -12.447313 0
M  V30 58 H 8.233833 2.158335 -19.641769 0
M  V30 59 H 8.379292 3.881832 -19.735686 0
M  V30 60 H 4.574953 2.205632 -20.385443 0
M  V30 61 H 4.976452 2.185155 -18.682226 0
M  V30 62 H 5.872545 1.169257 -19.821325 0
M  V30 63 H 12.605793 9.026576 -9.713361 0
M  V30 END ATOM
M  V30 BEGIN BOND
M  V30 1 1 5 1
M  V30 2 1 6 4
M  V30 3 1 9 3
M  V30 4 1 10 7
M  V30 5 1 12 1
M  V30 6 1 13 3
M  V30 7 1 14 3
M  V30 8 1 14 7
M  V30 9 1 15 6
M  V30 10 1 15 13
M  V30 11 1 16 12
M  V30 12 2 17 16
M  V30 13 1 18 7
M  V30 14 1 18 8
M  V30 15 1 19 17
M  V30 16 1 20 4
M  V30 17 1 20 13
M  V30 18 1 21 8
M  V30 19 1 21 20
M  V30 20 1 22 6
M  V30 21 1 22 15
M  V30 22 1 22 19
M  V30 23 1 23 2
M  V30 24 1 23 11
M  V30 25 2 23 12
M  V30 26 2 25 11
M  V30 27 1 25 17
M  V30 28 1 26 24
M  V30 29 1 27 18
M  V30 30 1 27 24
M  V30 31 1 28 24
M  V30 32 3 29 26
M  V30 33 2 30 1
M  V30 34 1 30 2
M  V30 35 1 3 31 CFG=1
M  V30 36 1 32 4
M  V30 37 1 33 4
M  V30 38 1 34 5
M  V30 39 1 35 5
M  V30 40 1 36 5
M  V30 41 1 6 37 CFG=1
M  V30 42 1 7 38 CFG=1
M  V30 43 1 39 8
M  V30 44 1 40 8
M  V30 45 1 41 9
M  V30 46 1 42 10
M  V30 47 1 43 10
M  V30 48 1 44 10
M  V30 49 1 45 11
M  V30 50 1 13 46 CFG=1
M  V30 51 1 47 14
M  V30 52 1 48 14
M  V30 53 1 15 49 CFG=1
M  V30 54 1 50 16
M  V30 55 1 18 51 CFG=1
M  V30 56 1 20 52 CFG=3
M  V30 57 1 53 21
M  V30 58 1 54 21
M  V30 59 1 22 55 CFG=3
M  V30 60 1 24 56 CFG=3
M  V30 61 1 57 25
M  V30 62 1 58 27
M  V30 63 1 59 27
M  V30 64 1 60 28
M  V30 65 1 61 28
M  V30 66 1 62 28
M  V30 67 1 63 2
M  V30 END BOND
M  V30 END CTAB
M  END
>  <i_epik_Tot_Q>  (1) 
0

>  <i_epik_Tot_abs_Q>  (1) 
0

>  <i_i_glide_confnum>  (1) 
8

>  <i_i_glide_lignum>  (1) 
68

>  <i_i_glide_posenum>  (1) 
317

>  <i_i_glide_rotatable_bonds>  (1) 
5

>  <i_lp_mmshare_version>  (1) 
72125

>  <i_m_source_file_index>  (1) 
22

>  <i_f3d_flags>  (1) 
0

>  <num_sample>  (1) 
50

>  <b_lp_Chiralities_Consistent>  (1) 
1

>  <r_epik_Charging_Adjusted_Penalty>  (1) 
0

>  <r_epik_Ionization_Penalty>  (1) 
6.9991700099201596e-06

>  <r_epik_Ionization_Penalty_Charging>  (1) 
0

>  <r_epik_Ionization_Penalty_Neutral>  (1) 
6.9991700099201596e-06

>  <r_epik_State_Penalty>  (1) 
-0

>  <r_glide_ring_energy>  (1) 
0

>  <r_i_docking_score>  (1) 
-4.5428784944566187

>  <r_i_glide_ecoul>  (1) 
-1.2161904411209281

>  <r_i_glide_eff_state_penalty>  (1) 
-0

>  <r_i_glide_einternal>  (1) 
4.6289945799629537

>  <r_i_glide_emodel>  (1) 
-39.48499508666778

>  <r_i_glide_emodel_strain>  (1) 
0

>  <r_i_glide_energy>  (1) 
-33.531036098658241

>  <r_i_glide_erotb>  (1) 
0.35530975304463774

>  <r_i_glide_esite>  (1) 
0

>  <r_i_glide_evdw>  (1) 
-32.314845657537312

>  <r_i_glide_gscore>  (1) 
-4.5428784944566187

>  <r_i_glide_gscore_strain>  (1) 
0

>  <r_i_glide_hbond>  (1) 
0

>  <r_i_glide_ligand_efficiency>  (1) 
-0.15142928314855394

>  <r_i_glide_ligand_efficiency_ln>  (1) 
-1.0321914925662696

>  <r_i_glide_ligand_efficiency_sa>  (1) 
-0.47052599095247782

>  <r_i_glide_lipo>  (1) 
-1.9055737005337632

>  <r_i_glide_metal>  (1) 
-0

>  <r_i_glide_rewards>  (1) 
-1.1944436979224888

>  <r_lp_Energy>  (1) 
45.650846999999999

>  <r_lp_tautomer_probability>  (1) 
1

>  <s_epik_cmdline>  (1) 
J2VwaWtfcHl0aG9uJywgJy1waHQnLCAnMS4wJywgJy1waCcsICc3LjQnLCAnLXRuJywgJzgnLCAnLW1hJywgJzUwMCcsICctaW1hZScsICc8aW5maWxlLm1hZT4nLCAnLW9tYWUnLCAnPG91dGZpbGUubWFlPic=

>  <s_epik_input>  (1) 
W0NIM11jMVtuSF1uYyhjMTIpW2NIXVtjSF1jKFtjSF0yKU9bQ0BASF0zW0NASF0oW0NASF0zNClbQ0BIXTVbQ0BIXShbQ0gyXTQpW0NIMl1bQ0gyXVtDQEhdKFtDSDJdW0NASF0oQyNOKVtDSDNdKVtDQEBIXShbQ0gzXSlbQ0gyXVtDQEhdNVtPSF0=

>  <s_glide_docking_method>  (1) 
confgen

>  <s_i_glide_gridfile>  (1) 
gpcr_drd2_6luq_protein_autoprepared_prepared

>  <s_lp_Force_Field>  (1) 
S-OPLS

>  <s_lp_Variant>  (1) 
DiffSBDD_21-1

>  <s_m_source_file>  (1) 
generated_generic_title2_ligand_DiffSBDD_2026-06-23_prepared.sdf

>  <GenAI_Model>  (1) 
DiffSBDD

>  <Protein>  (1) 
generic_title2

$$$$
DiffSBDD_0
     RDKit          3D

  0  0  0  0  0  0  0  0  0  0999 V3000
M  V30 BEGIN CTAB
M  V30 COUNTS 70 74 0 0 1
M  V30 BEGIN ATOM
M  V30 1 C 10.834501 8.880567 -6.290193 0
M  V30 2 N 7.535475 4.780734 -13.861849 0
M  V30 3 C 7.558855 5.094058 -18.007716 0 CFG=1
M  V30 4 C 9.061838 5.981477 -12.383939 0
M  V30 5 F 8.800468 5.990225 -7.430538 0
M  V30 6 C 6.796199 5.963139 -14.309311 0
M  V30 7 C 11.783719 8.962025 -7.497973 0
M  V30 8 C 10.546039 7.267965 -11.069304 0
M  V30 9 C 10.739635 6.842843 -8.486735 0 CFG=1
M  V30 10 C 10.105210 4.458049 -18.178297 0
M  V30 11 C 7.254302 3.581452 -14.636555 0 CFG=1
M  V30 12 C 7.162593 0.300340 -12.960084 0
M  V30 13 C 8.733913 4.519276 -18.786599 0 CFG=1
M  V30 14 O 10.174296 5.990497 -11.585024 0
M  V30 15 C 9.893765 6.716298 -7.204707 0 CFG=1
M  V30 16 C 7.572772 3.633147 -18.340703 0 CFG=1
M  V30 17 N 7.738049 5.190637 -16.535837 0 CFG=2 CHG=1
M  V30 18 C 9.964037 7.480699 -9.663632 0
M  V30 19 C 6.695383 1.722868 -13.292896 0
M  V30 20 C 7.957589 3.817940 -15.982435 0 CFG=2
M  V30 21 O 6.175412 -0.403261 -12.224620 0
M  V30 22 C 12.042528 7.590221 -8.124169 0
M  V30 23 N 10.643075 5.488735 -17.460277 0
M  V30 24 C 6.668369 5.980576 -15.855904 0
M  V30 25 N 10.867544 3.371448 -18.302090 0
M  V30 26 O 12.033178 3.692167 -17.587031 0
M  V30 27 C 11.805062 4.940078 -17.138472 0
M  V30 28 O 7.680383 2.371132 -14.092483 0
M  V30 29 N 12.832495 5.478218 -16.385125 0
M  V30 30 C 8.644619 4.868505 -13.016036 0
M  V30 31 C 9.554048 8.096097 -6.615946 0
M  V30 32 C 12.959001 6.756917 -15.715053 0
M  V30 33 C 7.569044 2.815966 -17.072276 0
M  V30 34 H 11.350808 8.391818 -5.462583 0
M  V30 35 H 10.579505 9.881684 -5.942512 0
M  V30 36 H 6.847084 5.770161 -18.478889 0
M  V30 37 H 8.579810 6.945634 -12.443389 0
M  V30 38 H 5.811340 5.984779 -13.840171 0
M  V30 39 H 7.292507 6.885229 -14.016939 0
M  V30 40 H 12.727964 9.404895 -7.184633 0
M  V30 41 H 11.375410 9.600906 -8.271748 0
M  V30 42 H 11.632724 7.344578 -11.054360 0
M  V30 43 H 10.200867 8.070475 -11.723260 0
M  V30 44 H 10.975410 5.826637 -8.784844 0
M  V30 45 H 6.175406 3.546363 -14.785002 0
M  V30 46 H 8.086919 0.340492 -12.385060 0
M  V30 47 H 7.378288 -0.251878 -13.875525 0
M  V30 48 H 8.800620 4.763516 -19.845180 0
M  V30 49 H 10.450330 6.142940 -6.462175 0
M  V30 50 H 6.917368 3.274920 -19.132163 0
M  V30 51 H 9.813750 8.545699 -9.493684 0
M  V30 52 H 8.975409 7.046823 -9.680041 0
M  V30 53 H 5.752371 1.653956 -13.835562 0
M  V30 54 H 6.512607 2.298838 -12.385023 0
M  V30 55 H 9.026894 3.731661 -15.796613 0
M  V30 56 H 5.753860 -1.052287 -12.785050 0
M  V30 57 H 12.575415 6.998661 -7.383190 0
M  V30 58 H 12.698900 7.683105 -8.989458 0
M  V30 59 H 5.701571 5.561143 -16.134587 0
M  V30 60 H 6.659880 7.007309 -16.223487 0
M  V30 61 H 13.626662 4.868053 -16.258539 0
M  V30 62 H 9.175201 3.932735 -12.905098 0
M  V30 63 H 8.975395 7.975152 -5.706794 0
M  V30 64 H 8.926959 8.662590 -7.304832 0
M  V30 65 H 13.924120 6.819908 -15.212562 0
M  V30 66 H 12.879385 7.576772 -16.429962 0
M  V30 67 H 12.175370 6.866913 -14.965687 0
M  V30 68 H 6.575408 2.399883 -16.911057 0
M  V30 69 H 8.274301 1.986513 -17.139008 0
M  V30 70 H 8.603062 5.690636 -16.370065 0
M  V30 END ATOM
M  V30 BEGIN BOND
M  V30 1 1 6 2
M  V30 2 1 7 1
M  V30 3 1 11 2
M  V30 4 1 13 3
M  V30 5 1 13 10
M  V30 6 1 14 4
M  V30 7 1 14 8
M  V30 8 1 15 5
M  V30 9 1 15 9
M  V30 10 1 16 3
M  V30 11 1 16 13
M  V30 12 1 17 3
M  V30 13 1 18 8
M  V30 14 1 18 9
M  V30 15 1 19 12
M  V30 16 1 20 11
M  V30 17 1 20 17
M  V30 18 1 21 12
M  V30 19 1 22 7
M  V30 20 1 22 9
M  V30 21 1 23 10
M  V30 22 1 24 6
M  V30 23 1 24 17
M  V30 24 2 25 10
M  V30 25 1 26 25
M  V30 26 2 27 23
M  V30 27 1 27 26
M  V30 28 1 28 11
M  V30 29 1 28 19
M  V30 30 1 29 27
M  V30 31 1 30 2
M  V30 32 2 30 4
M  V30 33 1 31 1
M  V30 34 1 31 15
M  V30 35 1 32 29
M  V30 36 1 33 16
M  V30 37 1 33 20
M  V30 38 1 34 1
M  V30 39 1 35 1
M  V30 40 1 3 36 CFG=3
M  V30 41 1 37 4
M  V30 42 1 38 6
M  V30 43 1 39 6
M  V30 44 1 40 7
M  V30 45 1 41 7
M  V30 46 1 42 8
M  V30 47 1 43 8
M  V30 48 1 9 44 CFG=3
M  V30 49 1 11 45 CFG=3
M  V30 50 1 46 12
M  V30 51 1 47 12
M  V30 52 1 13 48 CFG=3
M  V30 53 1 15 49 CFG=1
M  V30 54 1 16 50 CFG=3
M  V30 55 1 51 18
M  V30 56 1 52 18
M  V30 57 1 53 19
M  V30 58 1 54 19
M  V30 59 1 20 55 CFG=1
M  V30 60 1 56 21
M  V30 61 1 57 22
M  V30 62 1 58 22
M  V30 63 1 59 24
M  V30 64 1 60 24
M  V30 65 1 61 29
M  V30 66 1 62 30
M  V30 67 1 63 31
M  V30 68 1 64 31
M  V30 69 1 65 32
M  V30 70 1 66 32
M  V30 71 1 67 32
M  V30 72 1 68 33
M  V30 73 1 69 33
M  V30 74 1 17 70 CFG=3
M  V30 END BOND
M  V30 END CTAB
M  END
>  <i_epik_Tot_Q>  (1) 
1

>  <i_epik_Tot_abs_Q>  (1) 
1

>  <i_i_glide_confnum>  (1) 
735

>  <i_i_glide_lignum>  (1) 
13

>  <i_i_glide_posenum>  (1) 
364

>  <i_i_glide_rotatable_bonds>  (1) 
11

>  <i_lp_mmshare_version>  (1) 
72125

>  <i_m_source_file_index>  (1) 
1

>  <i_f3d_flags>  (1) 
0

>  <num_sample>  (1) 
50

>  <b_lp_Chiralities_Consistent>  (1) 
1

>  <r_epik_Charging_Adjusted_Penalty>  (1) 
0.41344222577729461

>  <r_epik_Ionization_Penalty>  (1) 
0.0027644559619576371

>  <r_epik_Ionization_Penalty_Charging>  (1) 
0.0027623868246906495

>  <r_epik_Ionization_Penalty_Neutral>  (1) 
2.0691372669875143e-06

>  <r_epik_State_Penalty>  (1) 
0.41067983895260396

>  <r_glide_ring_energy>  (1) 
1.7395912014422352

>  <r_i_docking_score>  (1) 
-4.5406813604423455

>  <r_i_glide_ecoul>  (1) 
-1.885576192804427

>  <r_i_glide_eff_state_penalty>  (1) 
0.41067983895260396

>  <r_i_glide_einternal>  (1) 
7.3004527883078518

>  <r_i_glide_emodel>  (1) 
-42.819044207728567

>  <r_i_glide_emodel_strain>  (1) 
1.5531570746914554

>  <r_i_glide_energy>  (1) 
-37.004468855316318

>  <r_i_glide_erotb>  (1) 
0.74142510397790429

>  <r_i_glide_esite>  (1) 
-0.090628585137744772

>  <r_i_glide_evdw>  (1) 
-35.11889266251189

>  <r_i_glide_gscore>  (1) 
-4.9513611993949498

>  <r_i_glide_gscore_strain>  (1) 
0

>  <r_i_glide_hbond>  (1) 
-0.16

>  <r_i_glide_ligand_efficiency>  (1) 
-0.13759640486188926

>  <r_i_glide_ligand_efficiency_ln>  (1) 
-1.0098240241725422

>  <r_i_glide_ligand_efficiency_sa>  (1) 
-0.44134519227851449

>  <r_i_glide_lipo>  (1) 
-2.1680857723475735

>  <r_i_glide_metal>  (1) 
-0

>  <r_i_glide_rewards>  (1) 
-1.2352908838412764

>  <r_lp_Energy>  (1) 
41.750805999999997

>  <r_lp_tautomer_probability>  (1) 
0.5

>  <s_epik_Chemistry_Notes>  (1) 
This compound has an imine and may undergo hydrolysis. This compound contains an acetal/aminal-like group ( X-CH(R)-Y where X, Y are N, S, or O) that may be acid/base labile, releasing an aldehyde.

>  <s_epik_cmdline>  (1) 
J2VwaWtfcHl0aG9uJywgJy1waHQnLCAnMS4wJywgJy1waCcsICc3LjQnLCAnLXRuJywgJzgnLCAnLW1hJywgJzUwMCcsICctaW1hZScsICc8aW5maWxlLm1hZT4nLCAnLW9tYWUnLCAnPG91dGZpbGUubWFlPic=

>  <s_epik_input>  (1) 
W0NIMl0xW0NIMl1bQ0gyXVtDSDJdW0NASF0oRilbQ0BIXTFbQ0gyXVtDSDJdTy9bQ0hdPVtDSF0vTihbQ0BIXTJPW0NIMl1bQ0gyXVtPSF0pW0NIMl1bQ0gyXU4zW0NAQEhdMltDSDJdW0NAQEhdKFtDQEBIXTM0KVtDQEBIXTRjNW5jKG9uNSlbTkhdW0NIM10=

>  <s_glide_docking_method>  (1) 
confgen

>  <s_i_glide_gridfile>  (1) 
gpcr_drd2_6luq_protein_autoprepared_prepared

>  <s_lp_Force_Field>  (1) 
S-OPLS

>  <s_lp_Variant>  (1) 
DiffSBDD_0-13

>  <s_m_source_file>  (1) 
generated_generic_title2_ligand_DiffSBDD_2026-06-23_prepared.sdf

>  <GenAI_Model>  (1) 
DiffSBDD

>  <Protein>  (1) 
generic_title2

$$$$
DiffSBDD_28
     RDKit          3D

  0  0  0  0  0  0  0  0  0  0999 V3000
M  V30 BEGIN CTAB
M  V30 COUNTS 79 86 0 0 1
M  V30 BEGIN ATOM
M  V30 1 F 11.578798 6.131413 -20.783686 0
M  V30 2 C 10.287640 6.668259 -8.986451 0 CFG=1
M  V30 3 C 7.573591 5.401508 -11.489852 0 CFG=2
M  V30 4 C 9.943458 8.346027 -6.790157 0 CFG=2
M  V30 5 C 8.642560 5.123514 -15.920717 0 CFG=1
M  V30 6 C 10.648410 5.590425 -7.962849 0
M  V30 7 C 7.386681 4.285589 -13.746519 0 CFG=2
M  V30 8 C 9.860636 4.234048 -18.775055 0 CFG=1
M  V30 9 C 6.965353 5.102958 -10.114843 0
M  V30 10 C 8.640607 3.765914 -16.597019 0 CFG=1
M  V30 11 C 11.468438 8.541242 -9.068861 0 CFG=1
M  V30 12 C 9.117641 3.749686 -12.140092 0
M  V30 13 C 10.394545 7.966521 -8.184206 0 CFG=1
M  V30 14 O 12.709777 8.706000 -8.421760 0
M  V30 15 C 11.606980 6.001142 -19.407885 0 CFG=1
M  V30 16 C 8.135186 5.368641 -14.517859 0 CFG=1
M  V30 17 O 9.524473 5.189477 -14.795151 0
M  V30 18 N 7.753760 4.194917 -12.323855 0
M  V30 19 O 11.936799 8.792393 -5.447957 0
M  V30 20 C 12.821188 6.510639 -18.727608 0
M  V30 21 O 9.253270 8.789932 -7.973868 0
M  V30 22 C 7.483403 2.941410 -15.995240 0
M  V30 23 C 11.348285 7.302109 -9.938210 0
M  V30 24 N 8.975454 6.383960 -9.684934 0 CFG=2 CHG=1
M  V30 25 C 10.759045 9.357196 -5.991028 0
M  V30 26 N 9.637460 3.850539 -20.191417 0 CHG=1
M  V30 27 C 7.449862 2.897656 -14.455805 0
M  V30 28 C 8.412526 3.037721 -20.277988 0
M  V30 29 C 7.997118 2.791827 -18.832793 0
M  V30 30 O 12.722831 7.189114 -17.706145 0
M  V30 31 C 9.874924 4.839757 -11.430882 0
M  V30 32 C 10.329402 5.700753 -18.637859 0
M  V30 33 O 12.747728 5.213814 -18.913815 0
M  V30 34 N 8.569128 3.930922 -18.084560 0 CFG=2 CHG=1
M  V30 35 C 8.064640 5.381324 -9.072183 0
M  V30 36 C 11.747094 8.056505 -4.253951 0
M  V30 37 C 8.947582 6.012419 -11.139478 0 CFG=1
M  V30 38 H 6.935128 6.128410 -11.993645 0
M  V30 39 H 9.387898 7.614414 -6.209715 0
M  V30 40 H 8.613876 5.990077 -16.565321 0
M  V30 41 H 11.610264 5.789565 -7.493129 0
M  V30 42 H 9.932861 5.566380 -7.142400 0
M  V30 43 H 10.660072 4.588131 -8.384813 0
M  V30 44 H 6.337939 4.585109 -13.786796 0
M  V30 45 H 10.628484 3.563353 -18.386265 0
M  V30 46 H 6.588937 4.082571 -10.031552 0
M  V30 47 H 6.110129 5.760849 -9.978956 0
M  V30 48 H 9.579828 3.256266 -16.385154 0
M  V30 49 H 11.180588 9.457335 -9.583780 0
M  V30 50 H 9.133312 2.815954 -11.576369 0
M  V30 51 H 9.632349 3.545157 -13.074169 0
M  V30 52 H 13.279450 9.174860 -9.018798 0
M  V30 53 H 7.882306 6.391913 -14.246444 0
M  V30 54 H 7.477995 1.915536 -16.365631 0
M  V30 55 H 6.575721 3.406735 -16.332453 0
M  V30 56 H 11.020919 7.577945 -10.939050 0
M  V30 57 H 12.304663 6.790982 -9.983368 0
M  V30 58 H 11.108727 10.133531 -6.665282 0
M  V30 59 H 10.175396 9.843935 -5.215417 0
M  V30 60 H 10.431496 3.323216 -20.530867 0
M  V30 61 H 8.302117 2.305677 -14.130380 0
M  V30 62 H 6.583161 2.317368 -14.135019 0
M  V30 63 H 8.573082 2.111659 -20.830910 0
M  V30 64 H 7.645748 3.614513 -20.799929 0
M  V30 65 H 8.447139 1.859224 -18.485434 0
M  V30 66 H 6.914932 2.716623 -18.720589 0
M  V30 67 H 10.175349 4.378812 -10.503120 0
M  V30 68 H 10.754645 5.150533 -11.988275 0
M  V30 69 H 9.554365 6.389535 -18.975517 0
M  V30 70 H 10.514340 5.927417 -17.589139 0
M  V30 71 H 8.564971 4.431227 -8.897542 0
M  V30 72 H 7.690587 5.708712 -8.106638 0
M  V30 73 H 12.695760 7.636780 -3.922091 0
M  V30 74 H 11.385129 8.711893 -3.461565 0
M  V30 75 H 11.047437 7.233534 -4.394498 0
M  V30 76 H 9.153992 6.858179 -11.795082 0
M  V30 77 H 8.395834 7.225614 -9.592546 0
M  V30 78 H 9.529724 4.673640 -20.770151 0
M  V30 79 H 7.942714 4.704945 -18.255530 0
M  V30 END ATOM
M  V30 BEGIN BOND
M  V30 1 1 2 6 CFG=1
M  V30 2 1 9 3
M  V30 3 1 10 5
M  V30 4 1 13 2
M  V30 5 1 13 4
M  V30 6 1 13 11
M  V30 7 1 14 11
M  V30 8 1 15 1 CFG=3
M  V30 9 1 16 5
M  V30 10 1 16 7
M  V30 11 1 17 5
M  V30 12 1 17 16
M  V30 13 1 18 3
M  V30 14 1 18 7
M  V30 15 1 18 12
M  V30 16 1 20 15
M  V30 17 1 21 4
M  V30 18 1 13 21 CFG=3
M  V30 19 1 22 10
M  V30 20 1 23 2
M  V30 21 1 23 11
M  V30 22 1 24 2
M  V30 23 1 25 4
M  V30 24 1 25 19
M  V30 25 1 26 8
M  V30 26 1 27 7
M  V30 27 1 27 22
M  V30 28 1 28 26
M  V30 29 1 29 28
M  V30 30 2 30 20
M  V30 31 1 31 12
M  V30 32 1 32 8
M  V30 33 1 32 15
M  V30 34 1 33 15
M  V30 35 1 33 20
M  V30 36 1 34 8
M  V30 37 1 34 10
M  V30 38 1 34 29
M  V30 39 1 35 9
M  V30 40 1 35 24
M  V30 41 1 36 19
M  V30 42 1 37 3
M  V30 43 1 37 24
M  V30 44 1 37 31
M  V30 45 1 3 38 CFG=3
M  V30 46 1 4 39 CFG=1
M  V30 47 1 5 40 CFG=3
M  V30 48 1 41 6
M  V30 49 1 42 6
M  V30 50 1 43 6
M  V30 51 1 7 44 CFG=1
M  V30 52 1 8 45 CFG=1
M  V30 53 1 46 9
M  V30 54 1 47 9
M  V30 55 1 10 48 CFG=3
M  V30 56 1 11 49 CFG=3
M  V30 57 1 50 12
M  V30 58 1 51 12
M  V30 59 1 52 14
M  V30 60 1 16 53 CFG=3
M  V30 61 1 54 22
M  V30 62 1 55 22
M  V30 63 1 56 23
M  V30 64 1 57 23
M  V30 65 1 58 25
M  V30 66 1 59 25
M  V30 67 1 60 26
M  V30 68 1 61 27
M  V30 69 1 62 27
M  V30 70 1 63 28
M  V30 71 1 64 28
M  V30 72 1 65 29
M  V30 73 1 66 29
M  V30 74 1 67 31
M  V30 75 1 68 31
M  V30 76 1 69 32
M  V30 77 1 70 32
M  V30 78 1 71 35
M  V30 79 1 72 35
M  V30 80 1 73 36
M  V30 81 1 74 36
M  V30 82 1 75 36
M  V30 83 1 37 76 CFG=3
M  V30 84 1 24 77 CFG=3
M  V30 85 1 78 26
M  V30 86 1 34 79 CFG=1
M  V30 END BOND
M  V30 END CTAB
M  END
>  <i_epik_Tot_Q>  (1) 
3

>  <i_epik_Tot_abs_Q>  (1) 
3

>  <i_i_glide_confnum>  (1) 
422

>  <i_i_glide_lignum>  (1) 
85

>  <i_i_glide_posenum>  (1) 
225

>  <i_i_glide_rotatable_bonds>  (1) 
8

>  <i_lp_mmshare_version>  (1) 
72125

>  <i_m_source_file_index>  (1) 
29

>  <i_f3d_flags>  (1) 
0

>  <num_sample>  (1) 
50

>  <b_lp_Chiralities_Consistent>  (1) 
1

>  <r_epik_Charging_Adjusted_Penalty>  (1) 
2.5479580004866769

>  <r_epik_Ionization_Penalty>  (1) 
1.853674345886815

>  <r_epik_Ionization_Penalty_Charging>  (1) 
1.8530809818743854

>  <r_epik_Ionization_Penalty_Neutral>  (1) 
0.00059336401242958479

>  <r_epik_State_Penalty>  (1) 
0.69487701861229134

>  <r_glide_ring_energy>  (1) 
0.81914574756082947

>  <r_i_docking_score>  (1) 
-4.534785475652467

>  <r_i_glide_ecoul>  (1) 
-10.162339020380919

>  <r_i_glide_eff_state_penalty>  (1) 
0.69487701861229134

>  <r_i_glide_einternal>  (1) 
11.714367121065173

>  <r_i_glide_emodel>  (1) 
-30.156132118571378

>  <r_i_glide_emodel_strain>  (1) 
3.6197026986270657

>  <r_i_glide_energy>  (1) 
-33.624551553240394

>  <r_i_glide_erotb>  (1) 
0.44698704239028575

>  <r_i_glide_esite>  (1) 
-0.10000000000000001

>  <r_i_glide_evdw>  (1) 
-23.462212532859478

>  <r_i_glide_gscore>  (1) 
-5.2296624942647583

>  <r_i_glide_gscore_strain>  (1) 
0

>  <r_i_glide_hbond>  (1) 
-0.35701608891735626

>  <r_i_glide_ligand_efficiency>  (1) 
-0.12256176961222884

>  <r_i_glide_ligand_efficiency_ln>  (1) 
-0.98348865921403983

>  <r_i_glide_ligand_efficiency_sa>  (1) 
-0.40840300687826597

>  <r_i_glide_lipo>  (1) 
-1.9546856080769017

>  <r_i_glide_metal>  (1) 
-0

>  <r_i_glide_rewards>  (1) 
-0.56748635996067287

>  <r_lp_Energy>  (1) 
72.568534

>  <s_epik_Chemistry_Notes>  (1) 
This compound has an ester and may undergo hydrolysis at high or low pH. This compound contains an acetal/aminal-like group ( X-CH(R)-Y where X, Y are N, S, or O) that may be acid/base labile, releasing an aldehyde.

>  <s_epik_cmdline>  (1) 
J2VwaWtfcHl0aG9uJywgJy1waHQnLCAnMS4wJywgJy1waCcsICc3LjQnLCAnLXRuJywgJzgnLCAnLW1hJywgJzUwMCcsICctaW1hZScsICc8aW5maWxlLm1hZT4nLCAnLW9tYWUnLCAnPG91dGZpbGUubWFlPic=

>  <s_epik_input>  (1) 
Tz1DKE8xKUMxKEYpW0NIMl1bQ0BASF0yW05IXVtDSDJdW0NIMl1OMltDQEBIXTNbQ0gyXVtDSDJdW0NASF0oW0NAQEhdKE80KVtDQEhdMzQpTjVbQ0gyXVtDSDJdW0NAQEhdKFtDQEhdNTYpTihbQ0gyXVtDSDJdNilbQ0BAXShbQ0gzXSkoW0NIMl1bQ0BASF03W09IXSlbQ0BAXTc4W0NASF0oTzgpW0NIMl1PW0NIM10=

>  <s_glide_docking_method>  (1) 
confgen

>  <s_i_glide_gridfile>  (1) 
gpcr_drd2_6luq_protein_autoprepared_prepared

>  <s_lp_Force_Field>  (1) 
S-OPLS

>  <s_lp_Variant>  (1) 
DiffSBDD_28-8

>  <s_m_source_file>  (1) 
generated_generic_title2_ligand_DiffSBDD_2026-06-23_prepared.sdf

>  <GenAI_Model>  (1) 
DiffSBDD

>  <Protein>  (1) 
generic_title2

$$$$
DiffSBDD_25
     RDKit          3D

  0  0  0  0  0  0  0  0  0  0999 V3000
M  V30 BEGIN CTAB
M  V30 COUNTS 43 45 0 0 1
M  V30 BEGIN ATOM
M  V30 1 C 9.960332 7.067522 -11.176967 0 CFG=2
M  V30 2 C 10.166598 6.699470 -7.372073 0
M  V30 3 C 11.162123 7.639744 -7.056114 0
M  V30 4 C 10.377710 7.261483 -9.746670 0
M  V30 5 N 7.448350 2.833579 -15.827680 0 CHG=1
M  V30 6 N 8.427398 5.826670 -12.806367 0
M  V30 7 C 11.379176 8.203229 -9.419033 0
M  V30 8 C 8.975414 8.039740 -11.768521 0
M  V30 9 C 7.775408 2.512635 -13.413034 0
M  V30 10 C 7.775400 3.528434 -14.568751 0 CFG=2
M  V30 11 C 7.013630 5.521576 -13.037160 0 CFG=1
M  V30 12 C 8.575441 6.595556 -11.585021 0 CFG=2
M  V30 13 C 11.769495 8.390195 -8.078522 0
M  V30 14 C 6.275295 7.064390 -14.796514 0
M  V30 15 C 6.789871 5.770079 -15.440628 0
M  V30 16 C 6.175424 6.783761 -13.293370 0
M  V30 17 C 9.775398 6.508495 -8.711137 0
M  V30 18 C 6.803222 4.706448 -14.328063 0 CFG=1
M  V30 19 H 10.805997 6.771696 -11.795113 0
M  V30 20 H 9.699300 6.123083 -6.586509 0
M  V30 21 H 11.459919 7.785470 -6.028531 0
M  V30 22 H 6.521634 2.436712 -15.767237 0
M  V30 23 H 7.483100 3.491762 -16.593053 0
M  V30 24 H 8.936810 4.961146 -12.701610 0
M  V30 25 H 11.847376 8.784815 -10.199987 0
M  V30 26 H 8.515558 8.768142 -11.103422 0
M  V30 27 H 9.141000 8.382476 -12.784960 0
M  V30 28 H 8.097666 2.968796 -12.476741 0
M  V30 29 H 6.782268 2.092422 -13.248537 0
M  V30 30 H 8.456653 1.683427 -13.608961 0
M  V30 31 H 8.782205 3.932694 -14.683606 0
M  V30 32 H 6.631695 4.976493 -12.172044 0
M  V30 33 H 7.892666 6.390118 -10.765089 0
M  V30 34 H 12.534651 9.112179 -7.835575 0
M  V30 35 H 5.310679 7.367126 -15.204118 0
M  V30 36 H 6.975455 7.879638 -14.984196 0
M  V30 37 H 6.175416 5.471427 -16.290298 0
M  V30 38 H 7.801859 5.938621 -15.811743 0
M  V30 39 H 5.137241 6.559983 -13.049033 0
M  V30 40 H 6.446782 7.640491 -12.680088 0
M  V30 41 H 9.008258 5.785699 -8.945305 0
M  V30 42 H 5.792242 4.298344 -14.267636 0
M  V30 43 H 8.116427 2.094292 -15.992711 0
M  V30 END ATOM
M  V30 BEGIN BOND
M  V30 1 2 3 2
M  V30 2 1 4 1
M  V30 3 1 7 4
M  V30 4 1 8 1
M  V30 5 1 10 5
M  V30 6 1 10 9
M  V30 7 1 11 6
M  V30 8 1 12 1
M  V30 9 1 12 6
M  V30 10 1 12 8
M  V30 11 1 13 3
M  V30 12 2 13 7
M  V30 13 1 15 14
M  V30 14 1 16 11
M  V30 15 1 16 14
M  V30 16 1 17 2
M  V30 17 2 17 4
M  V30 18 1 18 10
M  V30 19 1 18 11
M  V30 20 1 18 15
M  V30 21 1 1 19 CFG=3
M  V30 22 1 20 2
M  V30 23 1 21 3
M  V30 24 1 22 5
M  V30 25 1 23 5
M  V30 26 1 24 6
M  V30 27 1 25 7
M  V30 28 1 26 8
M  V30 29 1 27 8
M  V30 30 1 28 9
M  V30 31 1 29 9
M  V30 32 1 30 9
M  V30 33 1 10 31 CFG=3
M  V30 34 1 11 32 CFG=1
M  V30 35 1 12 33 CFG=1
M  V30 36 1 34 13
M  V30 37 1 35 14
M  V30 38 1 36 14
M  V30 39 1 37 15
M  V30 40 1 38 15
M  V30 41 1 39 16
M  V30 42 1 40 16
M  V30 43 1 41 17
M  V30 44 1 18 42 CFG=1
M  V30 45 1 43 5
M  V30 END BOND
M  V30 END CTAB
M  END
>  <i_epik_Tot_Q>  (1) 
1

>  <i_epik_Tot_abs_Q>  (1) 
1

>  <i_i_glide_confnum>  (1) 
38

>  <i_i_glide_lignum>  (1) 
75

>  <i_i_glide_posenum>  (1) 
397

>  <i_i_glide_rotatable_bonds>  (1) 
4

>  <i_lp_mmshare_version>  (1) 
72125

>  <i_m_source_file_index>  (1) 
26

>  <i_f3d_flags>  (1) 
0

>  <num_sample>  (1) 
50

>  <b_lp_Chiralities_Consistent>  (1) 
1

>  <r_epik_Charging_Adjusted_Penalty>  (1) 
0.70247939945427629

>  <r_epik_Ionization_Penalty>  (1) 
0.7024793994542764

>  <r_epik_Ionization_Penalty_Charging>  (1) 
0.00054833754919439773

>  <r_epik_Ionization_Penalty_Neutral>  (1) 
0.70193106190508203

>  <r_epik_State_Penalty>  (1) 
0.70193106190508192

>  <r_glide_ring_energy>  (1) 
0.097090295733864004

>  <r_i_docking_score>  (1) 
-4.5237100250144691

>  <r_i_glide_ecoul>  (1) 
-1.8179559534358429

>  <r_i_glide_eff_state_penalty>  (1) 
0.70193106190508192

>  <r_i_glide_einternal>  (1) 
1.0147837386037555

>  <r_i_glide_emodel>  (1) 
-39.191438258549105

>  <r_i_glide_emodel_strain>  (1) 
0.32904115228194541

>  <r_i_glide_energy>  (1) 
-31.103780098948302

>  <r_i_glide_erotb>  (1) 
0.86719654817177239

>  <r_i_glide_esite>  (1) 
0

>  <r_i_glide_evdw>  (1) 
-29.285824145512461

>  <r_i_glide_gscore>  (1) 
-5.2256410869195511

>  <r_i_glide_gscore_strain>  (1) 
0

>  <r_i_glide_hbond>  (1) 
0

>  <r_i_glide_ligand_efficiency>  (1) 
-0.25131722361191494

>  <r_i_glide_ligand_efficiency_ln>  (1) 
-1.1627963358084836

>  <r_i_glide_ligand_efficiency_sa>  (1) 
-0.65863745099739901

>  <r_i_glide_lipo>  (1) 
-1.7235068996142797

>  <r_i_glide_metal>  (1) 
-0

>  <r_i_glide_rewards>  (1) 
-2.6323461351860438

>  <r_lp_Energy>  (1) 
26.397838999999998

>  <s_epik_cmdline>  (1) 
J2VwaWtfcHl0aG9uJywgJy1waHQnLCAnMS4wJywgJy1waCcsICc3LjQnLCAnLXRuJywgJzgnLCAnLW1hJywgJzUwMCcsICctaW1hZScsICc8aW5maWxlLm1hZT4nLCAnLW9tYWUnLCAnPG91dGZpbGUubWFlPic=

>  <s_epik_input>  (1) 
W2NIXTFbY0hdW2NIXVtjSF1bY0hdYzFbQ0BIXTJbQ0gyXVtDQEhdMltOSF1bQ0BIXTNbQ0gyXVtDSDJdW0NIMl1bQ0BIXTNbQ0BIXShbTkgyXSlbQ0gzXQ==

>  <s_glide_docking_method>  (1) 
confgen

>  <s_i_glide_gridfile>  (1) 
gpcr_drd2_6luq_protein_autoprepared_prepared

>  <s_lp_Force_Field>  (1) 
S-OPLS

>  <s_lp_Variant>  (1) 
DiffSBDD_25-4

>  <s_m_source_file>  (1) 
generated_generic_title2_ligand_DiffSBDD_2026-06-23_prepared.sdf

>  <GenAI_Model>  (1) 
DiffSBDD

>  <Protein>  (1) 
generic_title2

$$$$
DiffSBDD_28
     RDKit          3D

  0  0  0  0  0  0  0  0  0  0999 V3000
M  V30 BEGIN CTAB
M  V30 COUNTS 79 86 0 0 1
M  V30 BEGIN ATOM
M  V30 1 F 7.501393 1.723714 -19.441133 0
M  V30 2 C 11.404747 7.803589 -7.723314 0 CFG=1
M  V30 3 C 8.614202 5.764686 -9.306991 0 CFG=2
M  V30 4 C 11.739080 7.280679 -4.922696 0 CFG=2
M  V30 5 C 7.004154 4.035706 -13.963826 0 CFG=1
M  V30 6 C 12.834744 7.848021 -8.207136 0
M  V30 7 C 7.893973 4.547493 -11.491978 0 CFG=2
M  V30 8 C 8.058458 1.700604 -16.448547 0 CFG=1
M  V30 9 C 9.541242 4.705337 -8.689328 0
M  V30 10 C 8.105062 3.007403 -14.195181 0 CFG=1
M  V30 11 C 11.064428 9.478388 -6.365339 0 CFG=1
M  V30 12 C 9.257424 6.710301 -11.420872 0
M  V30 13 C 11.374948 8.024236 -6.188466 0 CFG=1
M  V30 14 O 12.139401 10.318408 -6.002685 0
M  V30 15 C 7.945410 2.830536 -18.738518 0 CFG=1
M  V30 16 C 6.946747 4.848926 -12.663597 0 CFG=1
M  V30 17 O 7.531923 5.368853 -13.852005 0
M  V30 18 N 8.313768 5.784113 -10.768972 0 CFG=2 CHG=1
M  V30 19 O 12.175434 7.654684 -2.472852 0
M  V30 20 C 7.738011 4.065609 -19.514357 0
M  V30 21 O 10.386463 7.357126 -5.402543 0
M  V30 22 C 8.586793 2.502674 -12.835874 0
M  V30 23 C 10.849640 9.190222 -7.840670 0
M  V30 24 N 10.649040 6.732190 -8.406370 0
M  V30 25 C 12.174847 8.191702 -3.780519 0
M  V30 26 N 7.307412 0.490492 -16.865516 0 CHG=1
M  V30 27 C 9.060743 3.639198 -11.930104 0
M  V30 28 C 6.155906 0.316255 -15.961538 0
M  V30 29 C 6.559744 1.011464 -14.661060 0
M  V30 30 O 7.306890 5.164895 -19.171383 0
M  V30 31 C 9.512131 7.789978 -10.371519 0
M  V30 32 C 7.637501 2.946965 -17.252444 0
M  V30 33 O 8.982179 3.710620 -19.312662 0
M  V30 34 N 7.775372 1.783318 -14.992065 0 CFG=1 CHG=1
M  V30 35 C 10.437164 5.491512 -7.729267 0
M  V30 36 C 12.672987 8.650138 -1.583723 0
M  V30 37 C 9.375388 7.057209 -9.019435 0 CFG=1
M  V30 38 H 7.670664 5.746134 -8.763080 0
M  V30 39 H 12.175399 6.287317 -4.986930 0
M  V30 40 H 6.136339 3.994842 -14.615749 0
M  V30 41 H 13.312750 8.818202 -8.077825 0
M  V30 42 H 13.387120 7.190224 -7.585038 0
M  V30 43 H 12.939028 7.589996 -9.260846 0
M  V30 44 H 7.287137 3.990287 -10.778107 0
M  V30 45 H 9.126778 1.530891 -16.596094 0
M  V30 46 H 10.173767 4.200971 -9.407234 0
M  V30 47 H 8.961911 3.990307 -8.118749 0
M  V30 48 H 8.900720 3.588118 -14.677103 0
M  V30 49 H 10.175418 9.791218 -5.830828 0
M  V30 50 H 8.854223 7.127670 -12.344771 0
M  V30 51 H 10.196156 6.207271 -11.645989 0
M  V30 52 H 12.931982 9.914184 -6.321030 0
M  V30 53 H 5.999621 5.318255 -12.402843 0
M  V30 54 H 9.375470 1.764589 -12.945492 0
M  V30 55 H 7.760961 1.959380 -12.385032 0
M  V30 56 H 9.785934 9.190229 -8.027461 0
M  V30 57 H 11.375843 9.819761 -8.561627 0
M  V30 58 H 13.180296 8.549073 -4.006985 0
M  V30 59 H 11.521951 9.065344 -3.774317 0
M  V30 60 H 7.903428 -0.319040 -16.755201 0
M  V30 61 H 9.841114 4.192438 -12.450034 0
M  V30 62 H 9.520094 3.187177 -11.060630 0
M  V30 63 H 5.912792 -0.737590 -15.815596 0
M  V30 64 H 5.280549 0.793536 -16.399765 0
M  V30 65 H 6.804381 0.273883 -13.895281 0
M  V30 66 H 5.775393 1.638844 -14.254355 0
M  V30 67 H 8.761969 8.577570 -10.450877 0
M  V30 68 H 10.482112 8.266937 -10.509170 0
M  V30 69 H 6.575452 3.113636 -17.142038 0
M  V30 70 H 8.132592 3.837790 -16.862653 0
M  V30 71 H 11.375286 4.990753 -7.503493 0
M  V30 72 H 9.889655 5.632921 -6.801001 0
M  V30 73 H 12.527752 8.390254 -0.544692 0
M  V30 74 H 13.742822 8.790190 -1.735747 0
M  V30 75 H 12.174903 9.611348 -1.716557 0
M  V30 76 H 8.747370 7.576754 -8.300644 0
M  V30 77 H 7.469904 6.346543 -10.736161 0
M  V30 78 H 7.022388 0.544552 -17.836360 0
M  V30 79 H 8.489288 1.159120 -14.643637 0
M  V30 END ATOM
M  V30 BEGIN BOND
M  V30 1 1 2 6 CFG=3
M  V30 2 1 9 3
M  V30 3 1 10 5
M  V30 4 1 13 2
M  V30 5 1 13 4
M  V30 6 1 13 11
M  V30 7 1 14 11
M  V30 8 1 15 1 CFG=3
M  V30 9 1 16 5
M  V30 10 1 16 7
M  V30 11 1 17 5
M  V30 12 1 17 16
M  V30 13 1 18 3
M  V30 14 1 18 7
M  V30 15 1 18 12
M  V30 16 1 20 15
M  V30 17 1 21 4
M  V30 18 1 13 21 CFG=1
M  V30 19 1 22 10
M  V30 20 1 23 2
M  V30 21 1 23 11
M  V30 22 1 24 2
M  V30 23 1 25 4
M  V30 24 1 25 19
M  V30 25 1 26 8
M  V30 26 1 27 7
M  V30 27 1 27 22
M  V30 28 1 28 26
M  V30 29 1 29 28
M  V30 30 2 30 20
M  V30 31 1 31 12
M  V30 32 1 32 8
M  V30 33 1 32 15
M  V30 34 1 33 15
M  V30 35 1 33 20
M  V30 36 1 34 8
M  V30 37 1 34 10
M  V30 38 1 34 29
M  V30 39 1 35 9
M  V30 40 1 35 24
M  V30 41 1 36 19
M  V30 42 1 37 3
M  V30 43 1 37 24
M  V30 44 1 37 31
M  V30 45 1 3 38 CFG=1
M  V30 46 1 4 39 CFG=3
M  V30 47 1 5 40 CFG=3
M  V30 48 1 41 6
M  V30 49 1 42 6
M  V30 50 1 43 6
M  V30 51 1 7 44 CFG=1
M  V30 52 1 8 45 CFG=1
M  V30 53 1 46 9
M  V30 54 1 47 9
M  V30 55 1 10 48 CFG=3
M  V30 56 1 11 49 CFG=1
M  V30 57 1 50 12
M  V30 58 1 51 12
M  V30 59 1 52 14
M  V30 60 1 16 53 CFG=1
M  V30 61 1 54 22
M  V30 62 1 55 22
M  V30 63 1 56 23
M  V30 64 1 57 23
M  V30 65 1 58 25
M  V30 66 1 59 25
M  V30 67 1 60 26
M  V30 68 1 61 27
M  V30 69 1 62 27
M  V30 70 1 63 28
M  V30 71 1 64 28
M  V30 72 1 65 29
M  V30 73 1 66 29
M  V30 74 1 67 31
M  V30 75 1 68 31
M  V30 76 1 69 32
M  V30 77 1 70 32
M  V30 78 1 71 35
M  V30 79 1 72 35
M  V30 80 1 73 36
M  V30 81 1 74 36
M  V30 82 1 75 36
M  V30 83 1 37 76 CFG=1
M  V30 84 1 18 77 CFG=1
M  V30 85 1 78 26
M  V30 86 1 34 79 CFG=1
M  V30 END BOND
M  V30 END CTAB
M  END
>  <i_epik_Tot_Q>  (1) 
3

>  <i_epik_Tot_abs_Q>  (1) 
3

>  <i_i_glide_confnum>  (1) 
272

>  <i_i_glide_lignum>  (1) 
79

>  <i_i_glide_posenum>  (1) 
32

>  <i_i_glide_rotatable_bonds>  (1) 
8

>  <i_lp_mmshare_version>  (1) 
72125

>  <i_m_source_file_index>  (1) 
29

>  <i_f3d_flags>  (1) 
0

>  <num_sample>  (1) 
50

>  <b_lp_Chiralities_Consistent>  (1) 
1

>  <r_epik_Charging_Adjusted_Penalty>  (1) 
2.5241965566360229

>  <r_epik_Ionization_Penalty>  (1) 
2.0480993089750741

>  <r_epik_Ionization_Penalty_Charging>  (1) 
2.0477503768466887

>  <r_epik_Ionization_Penalty_Neutral>  (1) 
0.00034893212838530931

>  <r_epik_State_Penalty>  (1) 
0.4764461797893344

>  <r_glide_ring_energy>  (1) 
0.8191457475608499

>  <r_i_docking_score>  (1) 
-4.5174719044975555

>  <r_i_glide_ecoul>  (1) 
-8.1038274471102056

>  <r_i_glide_eff_state_penalty>  (1) 
0.4764461797893344

>  <r_i_glide_einternal>  (1) 
12.185006039649444

>  <r_i_glide_emodel>  (1) 
-35.759320224387068

>  <r_i_glide_emodel_strain>  (1) 
6.8941072704968747

>  <r_i_glide_energy>  (1) 
-32.149016321670544

>  <r_i_glide_erotb>  (1) 
0.44698704239028575

>  <r_i_glide_esite>  (1) 
-0.080958599326390449

>  <r_i_glide_evdw>  (1) 
-24.045188874560335

>  <r_i_glide_gscore>  (1) 
-4.9939180842868902

>  <r_i_glide_gscore_strain>  (1) 
0.72352681762421867

>  <r_i_glide_hbond>  (1) 
-0.11182833890731475

>  <r_i_glide_ligand_efficiency>  (1) 
-0.12209383525669069

>  <r_i_glide_ligand_efficiency_ln>  (1) 
-0.97973375151823516

>  <r_i_glide_ligand_efficiency_sa>  (1) 
-0.40684374579360588

>  <r_i_glide_lipo>  (1) 
-2.657805111325537

>  <r_i_glide_metal>  (1) 
-0

>  <r_i_glide_rewards>  (1) 
-0.89600633394760465

>  <r_lp_Energy>  (1) 
81.803054000000003

>  <s_epik_Chemistry_Notes>  (1) 
This compound has an ester and may undergo hydrolysis at high or low pH. This compound contains an acetal/aminal-like group ( X-CH(R)-Y where X, Y are N, S, or O) that may be acid/base labile, releasing an aldehyde.

>  <s_epik_cmdline>  (1) 
J2VwaWtfcHl0aG9uJywgJy1waHQnLCAnMS4wJywgJy1waCcsICc3LjQnLCAnLXRuJywgJzgnLCAnLW1hJywgJzUwMCcsICctaW1hZScsICc8aW5maWxlLm1hZT4nLCAnLW9tYWUnLCAnPG91dGZpbGUubWFlPic=

>  <s_epik_input>  (1) 
Tz1DKE8xKUMxKEYpW0NIMl1bQ0BASF0yW05IXVtDSDJdW0NIMl1OMltDQEBIXTNbQ0gyXVtDSDJdW0NASF0oW0NAQEhdKE80KVtDQEhdMzQpTjVbQ0gyXVtDSDJdW0NAQEhdKFtDQEhdNTYpTihbQ0gyXVtDSDJdNilbQ0BAXShbQ0gzXSkoW0NIMl1bQ0BASF03W09IXSlbQ0BAXTc4W0NASF0oTzgpW0NIMl1PW0NIM10=

>  <s_glide_docking_method>  (1) 
confgen

>  <s_i_glide_gridfile>  (1) 
gpcr_drd2_6luq_protein_autoprepared_prepared

>  <s_lp_Force_Field>  (1) 
S-OPLS

>  <s_lp_Variant>  (1) 
DiffSBDD_28-2

>  <s_m_source_file>  (1) 
generated_generic_title2_ligand_DiffSBDD_2026-06-23_prepared.sdf

>  <GenAI_Model>  (1) 
DiffSBDD

>  <Protein>  (1) 
generic_title2

$$$$
DiffSBDD_44
     RDKit          3D

  0  0  0  0  0  0  0  0  0  0999 V3000
M  V30 BEGIN CTAB
M  V30 COUNTS 61 63 0 0 1
M  V30 BEGIN ATOM
M  V30 1 C 5.584498 3.051359 -20.515195 0
M  V30 2 C 8.019375 3.968618 -14.336792 0
M  V30 3 O 7.366094 4.048105 -22.880239 0
M  V30 4 O 4.575409 3.697594 -20.785865 0
M  V30 5 O 8.131950 1.288796 -15.149091 0
M  V30 6 C 7.196633 2.245418 -18.443019 0 CFG=2
M  V30 7 C 7.835761 3.386967 -21.723874 0
M  V30 8 C 8.771223 6.190009 -11.191611 0
M  V30 9 C 9.473613 4.636931 -17.406381 0
M  V30 10 C 6.656517 1.080151 -19.280729 0
M  V30 11 C 7.067339 5.304650 -16.889246 0
M  V30 12 C 5.313884 7.191228 -19.633580 0
M  V30 13 O 7.732589 3.236199 -19.332157 0
M  V30 14 C 6.093713 5.957111 -19.139553 0 CFG=1
M  V30 15 C 5.520928 1.536595 -20.212979 0 CFG=1
M  V30 16 N 7.775410 5.190228 -9.176428 0 CHG=1
M  V30 17 F 9.416415 8.372947 -10.521268 0
M  V30 18 C 7.929234 3.209415 -13.167995 0
M  V30 19 S 8.086270 5.684262 -13.912768 0
M  V30 20 O 4.304616 1.190207 -19.591210 0
M  V30 21 C 8.975406 7.504012 -11.446575 0
M  V30 22 C 6.853269 5.291049 -20.333655 0 CFG=1
M  V30 23 C 8.135639 4.511402 -16.670104 0
M  V30 24 C 9.032468 5.590235 -9.814594 0
M  V30 25 C 8.295190 5.259381 -12.240880 0
M  V30 26 N 8.007291 3.990228 -12.006268 0
M  V30 27 C 6.996897 6.375970 -17.949987 0
M  V30 28 F 8.760846 8.081380 -12.638008 0
M  V30 29 C 8.175410 2.188841 -15.985025 0
M  V30 30 C 8.321018 1.810022 -17.480619 0
M  V30 31 O 7.991338 2.008123 -21.982939 0
M  V30 32 F 8.045672 5.872562 -20.489411 0
M  V30 33 N 8.110346 3.532695 -15.654105 0
M  V30 34 C 6.973071 3.723936 -20.450782 0 CFG=2
M  V30 35 H 8.079727 4.109940 -23.497656 0
M  V30 36 H 6.369096 2.673561 -17.877668 0
M  V30 37 H 8.844939 3.762491 -21.548550 0
M  V30 38 H 9.399681 4.581513 -18.488220 0
M  V30 39 H 10.216255 3.917794 -17.061139 0
M  V30 40 H 9.889926 5.619340 -17.183599 0
M  V30 41 H 7.468024 0.645999 -19.864396 0
M  V30 42 H 6.316790 0.277653 -18.623781 0
M  V30 43 H 6.175408 5.164476 -16.298215 0
M  V30 44 H 5.987015 7.952015 -20.030387 0
M  V30 45 H 4.734857 7.645676 -18.828391 0
M  V30 46 H 4.607130 6.925585 -20.420539 0
M  V30 47 H 5.336605 5.264934 -18.769855 0
M  V30 48 H 5.566714 0.989874 -21.154830 0
M  V30 49 H 7.937040 4.814411 -8.254891 0
M  V30 50 H 7.281125 4.524404 -9.754097 0
M  V30 51 H 7.868116 2.138580 -13.066144 0
M  V30 52 H 4.241808 0.248291 -19.539635 0
M  V30 53 H 6.323425 5.608034 -21.232793 0
M  V30 54 H 9.704530 4.735084 -9.898646 0
M  V30 55 H 9.520659 6.317216 -9.164600 0
M  V30 56 H 7.984671 6.689058 -18.283474 0
M  V30 57 H 6.575215 7.243238 -17.443031 0
M  V30 58 H 8.359825 0.719966 -17.486469 0
M  V30 59 H 9.301276 2.081372 -17.866374 0
M  V30 60 H 7.167774 1.665280 -22.293929 0
M  V30 61 H 7.230496 6.053550 -9.098075 0
M  V30 END ATOM
M  V30 BEGIN BOND
M  V30 1 2 4 1
M  V30 2 1 7 3
M  V30 3 1 10 6
M  V30 4 1 13 6
M  V30 5 1 14 12
M  V30 6 1 15 1
M  V30 7 1 15 10
M  V30 8 2 18 2
M  V30 9 1 19 2
M  V30 10 1 20 15
M  V30 11 2 21 8
M  V30 12 1 21 17
M  V30 13 1 22 14
M  V30 14 1 23 9
M  V30 15 2 23 11
M  V30 16 1 24 8
M  V30 17 1 24 16
M  V30 18 1 25 8
M  V30 19 1 25 19
M  V30 20 1 26 18
M  V30 21 2 26 25
M  V30 22 1 27 11
M  V30 23 1 27 14
M  V30 24 1 28 21
M  V30 25 2 29 5
M  V30 26 1 30 6
M  V30 27 1 30 29
M  V30 28 1 31 7
M  V30 29 1 32 22
M  V30 30 1 33 2
M  V30 31 1 33 23
M  V30 32 1 33 29
M  V30 33 1 34 1
M  V30 34 1 34 7 CFG=3
M  V30 35 1 34 13
M  V30 36 1 34 22
M  V30 37 1 35 3
M  V30 38 1 6 36 CFG=1
M  V30 39 1 37 7
M  V30 40 1 38 9
M  V30 41 1 39 9
M  V30 42 1 40 9
M  V30 43 1 41 10
M  V30 44 1 42 10
M  V30 45 1 43 11
M  V30 46 1 44 12
M  V30 47 1 45 12
M  V30 48 1 46 12
M  V30 49 1 14 47 CFG=1
M  V30 50 1 15 48 CFG=3
M  V30 51 1 49 16
M  V30 52 1 50 16
M  V30 53 1 51 18
M  V30 54 1 52 20
M  V30 55 1 22 53 CFG=3
M  V30 56 1 54 24
M  V30 57 1 55 24
M  V30 58 1 56 27
M  V30 59 1 57 27
M  V30 60 1 58 30
M  V30 61 1 59 30
M  V30 62 1 60 31
M  V30 63 1 61 16
M  V30 END BOND
M  V30 END CTAB
M  END
>  <i_epik_Tot_Q>  (1) 
1

>  <i_epik_Tot_abs_Q>  (1) 
1

>  <i_i_glide_confnum>  (1) 
16

>  <i_i_glide_lignum>  (1) 
121

>  <i_i_glide_posenum>  (1) 
252

>  <i_i_glide_rotatable_bonds>  (1) 
7

>  <i_lp_mmshare_version>  (1) 
72125

>  <i_m_source_file_index>  (1) 
45

>  <i_f3d_flags>  (1) 
0

>  <num_sample>  (1) 
50

>  <b_lp_Chiralities_Consistent>  (1) 
1

>  <r_epik_Charging_Adjusted_Penalty>  (1) 
1.7853739982533117

>  <r_epik_Ionization_Penalty>  (1) 
0.89286729103917917

>  <r_epik_Ionization_Penalty_Charging>  (1) 
0.89268699912665583

>  <r_epik_Ionization_Penalty_Neutral>  (1) 
0.00018029191252335439

>  <r_epik_State_Penalty>  (1) 
0.89268699912665583

>  <r_glide_ring_energy>  (1) 
0

>  <r_i_docking_score>  (1) 
-4.5164853158066869

>  <r_i_glide_ecoul>  (1) 
-7.6970312559084109

>  <r_i_glide_eff_state_penalty>  (1) 
0.89268699912665583

>  <r_i_glide_einternal>  (1) 
3.0475500641106441

>  <r_i_glide_emodel>  (1) 
-46.366979496907

>  <r_i_glide_emodel_strain>  (1) 
1.7029622355658915

>  <r_i_glide_energy>  (1) 
-34.993825398434097

>  <r_i_glide_erotb>  (1) 
0.22329266705310716

>  <r_i_glide_esite>  (1) 
-0.23091291800688332

>  <r_i_glide_evdw>  (1) 
-27.296794142525684

>  <r_i_glide_gscore>  (1) 
-5.4091723149333424

>  <r_i_glide_gscore_strain>  (1) 
0

>  <r_i_glide_hbond>  (1) 
-0.24703773423765818

>  <r_i_glide_ligand_efficiency>  (1) 
-0.13283780340607904

>  <r_i_glide_ligand_efficiency_ln>  (1) 
-0.99781828938376227

>  <r_i_glide_ligand_efficiency_sa>  (1) 
-0.43034291557011195

>  <r_i_glide_lipo>  (1) 
-1.3467731323775072

>  <r_i_glide_metal>  (1) 
-0

>  <r_i_glide_rewards>  (1) 
-1.2883468018518549

>  <r_lp_Energy>  (1) 
47.678134

>  <s_epik_Chemistry_Notes>  (1) 
This compound contains an acetal/aminal-like group ( X-CH(R)-Y where X, Y are N, S, or O) that may be acid/base labile, releasing an aldehyde.

>  <s_epik_cmdline>  (1) 
J2VwaWtfcHl0aG9uJywgJy1waHQnLCAnMS4wJywgJy1waCcsICc3LjQnLCAnLXRuJywgJzgnLCAnLW1hJywgJzUwMCcsICctaW1hZScsICc8aW5maWxlLm1hZT4nLCAnLW9tYWUnLCAnPG91dGZpbGUubWFlPic=

>  <s_epik_input>  (1) 
W09IXVtDSF0oW09IXSlbQ0BAXTEyQyg9TylbQ0BIXShbT0hdKVtDSDJdW0NASF0oTzEpW0NIMl1DKD1PKU4oQyhcW0NIM10pPVtDSF1cW0NIMl1bQ0BASF0oW0NIM10pW0NASF0yRiljM1tjSF1uYyhzMylDKD1DKEYpRilbQ0gyXVtOSDJd

>  <s_glide_docking_method>  (1) 
confgen

>  <s_i_glide_gridfile>  (1) 
gpcr_drd2_6luq_protein_autoprepared_prepared

>  <s_lp_Force_Field>  (1) 
S-OPLS

>  <s_lp_Variant>  (1) 
DiffSBDD_44-2

>  <s_m_source_file>  (1) 
generated_generic_title2_ligand_DiffSBDD_2026-06-23_prepared.sdf

>  <GenAI_Model>  (1) 
DiffSBDD

>  <Protein>  (1) 
generic_title2

$$$$
DiffSBDD_0
     RDKit          3D

  0  0  0  0  0  0  0  0  0  0999 V3000
M  V30 BEGIN CTAB
M  V30 COUNTS 70 74 0 0 1
M  V30 BEGIN ATOM
M  V30 1 C 7.001303 6.265755 -21.083035 0
M  V30 2 N 7.109001 5.248773 -13.751968 0
M  V30 3 C 6.149078 1.118795 -13.054778 0 CFG=1
M  V30 4 C 6.804867 7.414752 -14.853052 0
M  V30 5 F 4.322656 5.156618 -20.636807 0
M  V30 6 C 5.699692 4.863074 -13.754271 0
M  V30 7 C 6.863858 7.583760 -20.310111 0
M  V30 8 C 5.151196 7.625962 -16.490268 0
M  V30 9 C 4.986027 6.569991 -18.872003 0 CFG=1
M  V30 10 C 6.830008 0.119259 -15.381788 0
M  V30 11 C 8.057704 4.248574 -13.240229 0 CFG=2
M  V30 12 C 9.158918 5.102891 -9.833952 0
M  V30 13 C 6.684971 -0.032974 -13.896343 0 CFG=1
M  V30 14 O 5.488693 7.226438 -15.165860 0
M  V30 15 C 5.194809 5.233973 -19.629853 0 CFG=2
M  V30 16 C 7.545155 0.646425 -12.852010 0 CFG=1
M  V30 17 N 6.272523 2.468816 -13.661985 0 CFG=2 CHG=1
M  V30 18 C 5.638805 6.542716 -17.472212 0
M  V30 19 C 8.666805 5.383516 -11.258100 0
M  V30 20 C 7.705511 2.841883 -13.811250 0 CFG=2
M  V30 21 O 8.096595 5.190231 -8.913754 0
M  V30 22 C 5.442075 7.764197 -19.742620 0
M  V30 23 N 8.023892 -0.009793 -16.030201 0
M  V30 24 C 5.430282 3.524627 -13.060030 0
M  V30 25 N 5.775391 0.390224 -16.150120 0
M  V30 26 O 6.303179 0.426410 -17.450007 0
M  V30 27 C 7.613302 0.167031 -17.273126 0
M  V30 28 O 8.127243 4.201502 -11.848459 0
M  V30 29 N 8.361819 0.129859 -18.437690 0
M  V30 30 C 7.544336 6.491519 -14.203367 0
M  V30 31 C 6.615193 5.074168 -20.196046 0
M  V30 32 C 7.983668 0.311441 -19.828025 0
M  V30 33 C 8.541863 1.689870 -13.228045 0
M  V30 34 H 6.365446 6.288091 -21.969333 0
M  V30 35 H 8.025038 6.147379 -21.438881 0
M  V30 36 H 5.376028 0.938401 -12.314557 0
M  V30 37 H 7.177804 8.373412 -15.185044 0
M  V30 38 H 5.111507 5.644745 -13.272595 0
M  V30 39 H 5.375451 4.803018 -14.789710 0
M  V30 40 H 7.112407 8.422526 -20.961177 0
M  V30 41 H 7.596424 7.590226 -19.504107 0
M  V30 42 H 4.065522 7.713083 -16.538813 0
M  V30 43 H 5.556172 8.607768 -16.739207 0
M  V30 44 H 3.913500 6.675029 -18.704946 0
M  V30 45 H 9.051440 4.516837 -13.606272 0
M  V30 46 H 9.892148 5.856986 -9.546813 0
M  V30 47 H 9.655219 4.134398 -9.768765 0
M  V30 48 H 6.438087 -1.056136 -13.653193 0
M  V30 49 H 4.975426 4.382764 -18.986339 0
M  V30 50 H 7.775303 0.041536 -11.985052 0
M  V30 51 H 6.725383 6.564522 -17.549562 0
M  V30 52 H 5.397341 5.590236 -17.012053 0
M  V30 53 H 7.939955 6.197297 -11.272628 0
M  V30 54 H 9.528501 5.718156 -11.837663 0
M  V30 55 H 7.891716 2.891739 -14.885103 0
M  V30 56 H 7.717704 6.066834 -8.967635 0
M  V30 57 H 4.747281 7.874418 -20.576108 0
M  V30 58 H 5.375402 8.697292 -19.183844 0
M  V30 59 H 5.624812 3.600508 -11.988553 0
M  V30 60 H 4.379298 3.269676 -13.185028 0
M  V30 61 H 9.342739 -0.064073 -18.300972 0
M  V30 62 H 8.575409 6.672969 -13.984707 0
M  V30 63 H 6.686098 4.146271 -20.764898 0
M  V30 64 H 7.328505 4.983317 -19.376104 0
M  V30 65 H 8.603160 -0.311615 -20.473541 0
M  V30 66 H 6.940705 0.035359 -19.988255 0
M  V30 67 H 8.113878 1.352387 -20.124305 0
M  V30 68 H 9.151727 1.994620 -12.385018 0
M  V30 69 H 9.181370 1.190232 -13.948558 0
M  V30 70 H 5.927911 2.370732 -14.606806 0
M  V30 END ATOM
M  V30 BEGIN BOND
M  V30 1 1 6 2
M  V30 2 1 7 1
M  V30 3 1 11 2
M  V30 4 1 13 3
M  V30 5 1 13 10
M  V30 6 1 14 4
M  V30 7 1 14 8
M  V30 8 1 15 5
M  V30 9 1 15 9
M  V30 10 1 16 3
M  V30 11 1 16 13
M  V30 12 1 17 3
M  V30 13 1 18 8
M  V30 14 1 18 9
M  V30 15 1 19 12
M  V30 16 1 20 11
M  V30 17 1 20 17
M  V30 18 1 21 12
M  V30 19 1 22 7
M  V30 20 1 22 9
M  V30 21 1 23 10
M  V30 22 1 24 6
M  V30 23 1 24 17
M  V30 24 2 25 10
M  V30 25 1 26 25
M  V30 26 2 27 23
M  V30 27 1 27 26
M  V30 28 1 28 11
M  V30 29 1 28 19
M  V30 30 1 29 27
M  V30 31 1 30 2
M  V30 32 2 30 4
M  V30 33 1 31 1
M  V30 34 1 31 15
M  V30 35 1 32 29
M  V30 36 1 33 16
M  V30 37 1 33 20
M  V30 38 1 34 1
M  V30 39 1 35 1
M  V30 40 1 3 36 CFG=1
M  V30 41 1 37 4
M  V30 42 1 38 6
M  V30 43 1 39 6
M  V30 44 1 40 7
M  V30 45 1 41 7
M  V30 46 1 42 8
M  V30 47 1 43 8
M  V30 48 1 9 44 CFG=1
M  V30 49 1 11 45 CFG=3
M  V30 50 1 46 12
M  V30 51 1 47 12
M  V30 52 1 13 48 CFG=3
M  V30 53 1 15 49 CFG=1
M  V30 54 1 16 50 CFG=1
M  V30 55 1 51 18
M  V30 56 1 52 18
M  V30 57 1 53 19
M  V30 58 1 54 19
M  V30 59 1 20 55 CFG=3
M  V30 60 1 56 21
M  V30 61 1 57 22
M  V30 62 1 58 22
M  V30 63 1 59 24
M  V30 64 1 60 24
M  V30 65 1 61 29
M  V30 66 1 62 30
M  V30 67 1 63 31
M  V30 68 1 64 31
M  V30 69 1 65 32
M  V30 70 1 66 32
M  V30 71 1 67 32
M  V30 72 1 68 33
M  V30 73 1 69 33
M  V30 74 1 17 70 CFG=3
M  V30 END BOND
M  V30 END CTAB
M  END
>  <i_epik_Tot_Q>  (1) 
1

>  <i_epik_Tot_abs_Q>  (1) 
1

>  <i_i_glide_confnum>  (1) 
435

>  <i_i_glide_lignum>  (1) 
3

>  <i_i_glide_posenum>  (1) 
205

>  <i_i_glide_rotatable_bonds>  (1) 
11

>  <i_lp_mmshare_version>  (1) 
72125

>  <i_m_source_file_index>  (1) 
1

>  <i_f3d_flags>  (1) 
0

>  <num_sample>  (1) 
50

>  <b_lp_Chiralities_Consistent>  (1) 
1

>  <r_epik_Charging_Adjusted_Penalty>  (1) 
0.41344222577729461

>  <r_epik_Ionization_Penalty>  (1) 
0.0027644559619576371

>  <r_epik_Ionization_Penalty_Charging>  (1) 
0.0027623868246906495

>  <r_epik_Ionization_Penalty_Neutral>  (1) 
2.0691372669875143e-06

>  <r_epik_State_Penalty>  (1) 
0.41067983895260396

>  <r_glide_ring_energy>  (1) 
1.2880141380397463

>  <r_i_docking_score>  (1) 
-4.515294330479537

>  <r_i_glide_ecoul>  (1) 
-3.7596638533458204

>  <r_i_glide_eff_state_penalty>  (1) 
0.41067983895260396

>  <r_i_glide_einternal>  (1) 
10.232579723798905

>  <r_i_glide_emodel>  (1) 
-40.307648867590068

>  <r_i_glide_emodel_strain>  (1) 
0.15785746545765278

>  <r_i_glide_energy>  (1) 
-34.124654675391355

>  <r_i_glide_erotb>  (1) 
0.74142510397790429

>  <r_i_glide_esite>  (1) 
0

>  <r_i_glide_evdw>  (1) 
-30.364990822045531

>  <r_i_glide_gscore>  (1) 
-4.9259741694321413

>  <r_i_glide_gscore_strain>  (1) 
0

>  <r_i_glide_hbond>  (1) 
-0.16

>  <r_i_glide_ligand_efficiency>  (1) 
-0.13682710092362232

>  <r_i_glide_ligand_efficiency_ln>  (1) 
-1.00417808015582

>  <r_i_glide_ligand_efficiency_sa>  (1) 
-0.43887762348632231

>  <r_i_glide_lipo>  (1) 
-2.5311335763100238

>  <r_i_glide_metal>  (1) 
-0

>  <r_i_glide_rewards>  (1) 
-0.89406657799587141

>  <r_lp_Energy>  (1) 
41.293589999999995

>  <r_lp_tautomer_probability>  (1) 
0.5

>  <s_epik_Chemistry_Notes>  (1) 
This compound has an imine and may undergo hydrolysis. This compound contains an acetal/aminal-like group ( X-CH(R)-Y where X, Y are N, S, or O) that may be acid/base labile, releasing an aldehyde.

>  <s_epik_cmdline>  (1) 
J2VwaWtfcHl0aG9uJywgJy1waHQnLCAnMS4wJywgJy1waCcsICc3LjQnLCAnLXRuJywgJzgnLCAnLW1hJywgJzUwMCcsICctaW1hZScsICc8aW5maWxlLm1hZT4nLCAnLW9tYWUnLCAnPG91dGZpbGUubWFlPic=

>  <s_epik_input>  (1) 
W0NIMl0xW0NIMl1bQ0gyXVtDSDJdW0NASF0oRilbQ0BIXTFbQ0gyXVtDSDJdTy9bQ0hdPVtDSF1cTihbQ0BIXTJPW0NIMl1bQ0gyXVtPSF0pW0NIMl1bQ0gyXU4zW0NAQEhdMltDSDJdW0NAQEhdKFtDQEBIXTM0KVtDQEBIXTRjNW5jKG9uNSlbTkhdW0NIM10=

>  <s_glide_docking_method>  (1) 
confgen

>  <s_i_glide_gridfile>  (1) 
gpcr_drd2_6luq_protein_autoprepared_prepared

>  <s_lp_Force_Field>  (1) 
S-OPLS

>  <s_lp_Variant>  (1) 
DiffSBDD_0-3

>  <s_m_source_file>  (1) 
generated_generic_title2_ligand_DiffSBDD_2026-06-23_prepared.sdf

>  <GenAI_Model>  (1) 
DiffSBDD

>  <Protein>  (1) 
generic_title2

$$$$
DiffSBDD_16
     RDKit          3D

  0  0  0  0  0  0  0  0  0  0999 V3000
M  V30 BEGIN CTAB
M  V30 COUNTS 40 42 0 0 1
M  V30 BEGIN ATOM
M  V30 1 O 4.615156 -0.810781 -18.735469 0 CHG=-1
M  V30 2 O 6.739354 -2.830068 -18.964511 0
M  V30 3 C 6.322315 6.607336 -14.089456 0
M  V30 4 C 7.612713 1.170421 -15.838754 0 CFG=1
M  V30 5 C 6.305735 5.360899 -11.888947 0
M  V30 6 S 8.122925 -0.950337 -17.585030 0
M  V30 7 F 5.777302 7.566773 -14.856262 0
M  V30 8 C 6.275970 3.926305 -12.444711 0
M  V30 9 C 7.027135 0.061789 -16.703775 0
M  V30 10 C 6.650461 -1.858618 -18.211952 0
M  V30 11 C 5.804388 6.402262 -12.867189 0
M  V30 12 C 7.585120 2.489801 -16.628295 0
M  V30 13 C 7.729898 2.074873 -13.438193 0
M  V30 14 C 8.138287 3.738882 -15.922661 0
M  V30 15 C 5.735357 -0.193951 -16.833836 0
M  V30 16 C 5.270182 -1.314279 -17.718316 0 CFG=1
M  V30 17 C 7.251594 4.299889 -14.785025 0 CFG=2
M  V30 18 C 7.491935 5.823821 -14.651772 0
M  V30 19 C 7.442612 3.598350 -13.406117 0 CFG=1
M  V30 20 C 6.938060 1.240250 -14.452027 0
M  V30 21 H 8.656030 0.907243 -15.676225 0
M  V30 22 H 5.660633 5.412920 -11.010586 0
M  V30 23 H 7.302612 5.633888 -11.540270 0
M  V30 24 H 6.315739 3.259845 -11.585012 0
M  V30 25 H 5.316599 3.718460 -12.920280 0
M  V30 26 H 4.975410 7.009246 -12.536212 0
M  V30 27 H 8.165703 2.340888 -17.539906 0
M  V30 28 H 6.575410 2.690642 -16.974947 0
M  V30 29 H 7.551653 1.655365 -12.448711 0
M  V30 30 H 8.794789 1.905577 -13.585027 0
M  V30 31 H 9.156387 3.590227 -15.585014 0
M  V30 32 H 8.222095 4.488074 -16.709938 0
M  V30 33 H 4.989782 0.390207 -16.316096 0
M  V30 34 H 4.847733 -2.074735 -17.059994 0
M  V30 35 H 6.218352 4.163344 -15.105527 0
M  V30 36 H 7.685957 6.267566 -15.627017 0
M  V30 37 H 8.383612 6.026591 -14.057891 0
M  V30 38 H 8.342221 4.014824 -12.950032 0
M  V30 39 H 6.878170 0.222392 -14.062216 0
M  V30 40 H 5.909845 1.590220 -14.507689 0
M  V30 END ATOM
M  V30 BEGIN BOND
M  V30 1 1 7 3
M  V30 2 1 8 5
M  V30 3 1 9 4
M  V30 4 1 9 6
M  V30 5 2 10 2
M  V30 6 1 10 6
M  V30 7 2 11 3
M  V30 8 1 11 5
M  V30 9 1 12 4
M  V30 10 1 14 12
M  V30 11 2 15 9
M  V30 12 1 16 1
M  V30 13 1 16 10
M  V30 14 1 16 15
M  V30 15 1 17 14
M  V30 16 1 18 3
M  V30 17 1 18 17
M  V30 18 1 19 8
M  V30 19 1 19 13
M  V30 20 1 19 17
M  V30 21 1 20 4
M  V30 22 1 20 13
M  V30 23 1 4 21 CFG=1
M  V30 24 1 22 5
M  V30 25 1 23 5
M  V30 26 1 24 8
M  V30 27 1 25 8
M  V30 28 1 26 11
M  V30 29 1 27 12
M  V30 30 1 28 12
M  V30 31 1 29 13
M  V30 32 1 30 13
M  V30 33 1 31 14
M  V30 34 1 32 14
M  V30 35 1 33 15
M  V30 36 1 16 34 CFG=1
M  V30 37 1 17 35 CFG=3
M  V30 38 1 36 18
M  V30 39 1 37 18
M  V30 40 1 19 38 CFG=1
M  V30 41 1 39 20
M  V30 42 1 40 20
M  V30 END BOND
M  V30 END CTAB
M  END
>  <i_epik_Tot_Q>  (1) 
-1

>  <i_epik_Tot_abs_Q>  (1) 
1

>  <i_i_glide_confnum>  (1) 
1

>  <i_i_glide_lignum>  (1) 
58

>  <i_i_glide_posenum>  (1) 
285

>  <i_i_glide_rotatable_bonds>  (1) 
1

>  <i_lp_mmshare_version>  (1) 
72125

>  <i_m_source_file_index>  (1) 
17

>  <i_f3d_flags>  (1) 
0

>  <num_sample>  (1) 
50

>  <b_lp_Chiralities_Consistent>  (1) 
1

>  <r_epik_Charging_Adjusted_Penalty>  (1) 
0.29503530446885118

>  <r_epik_Ionization_Penalty>  (1) 
0.14751765223442562

>  <r_epik_Ionization_Penalty_Charging>  (1) 
0.14751765223442562

>  <r_epik_Ionization_Penalty_Neutral>  (1) 
0

>  <r_epik_State_Penalty>  (1) 
0.14751765223442559

>  <r_glide_ring_energy>  (1) 
0

>  <r_i_docking_score>  (1) 
-4.5109581909653107

>  <r_i_glide_ecoul>  (1) 
1.5147466361255695

>  <r_i_glide_eff_state_penalty>  (1) 
0.14751765223442559

>  <r_i_glide_einternal>  (1) 
0.025744372239256963

>  <r_i_glide_emodel>  (1) 
-34.302816482604747

>  <r_i_glide_emodel_strain>  (1) 
0

>  <r_i_glide_energy>  (1) 
-26.909523947665896

>  <r_i_glide_erotb>  (1) 
0.20975943134131059

>  <r_i_glide_esite>  (1) 
-0.0064166725857156721

>  <r_i_glide_evdw>  (1) 
-28.424270583791465

>  <r_i_glide_gscore>  (1) 
-4.658475843199736

>  <r_i_glide_gscore_strain>  (1) 
0

>  <r_i_glide_hbond>  (1) 
0

>  <r_i_glide_ligand_efficiency>  (1) 
-0.22554790954826553

>  <r_i_glide_ligand_efficiency_ln>  (1) 
-1.1289440538399871

>  <r_i_glide_ligand_efficiency_sa>  (1) 
-0.61223121906396649

>  <r_i_glide_lipo>  (1) 
-1.7117924592651896

>  <r_i_glide_metal>  (1) 
-0

>  <r_i_glide_rewards>  (1) 
-1.9560246089194029

>  <r_lp_Energy>  (1) 
23.813070999999997

>  <s_epik_cmdline>  (1) 
J2VwaWtfcHl0aG9uJywgJy1waHQnLCAnMS4wJywgJy1waCcsICc3LjQnLCAnLXRuJywgJzgnLCAnLW1hJywgJzUwMCcsICctaW1hZScsICc8aW5maWxlLm1hZT4nLCAnLW9tYWUnLCAnPG91dGZpbGUubWFlPic=

>  <s_epik_input>  (1) 
Tz1DKFMxKVtDQEhdKFtPSF0pW0NIXT1DMVtDQEBIXShbQ0gyXVtDSDJdMilbQ0gyXVtDSDJdW0NAQEhdKFtDQEhdMjMpW0NIMl1bQ0gyXVtDSF09QyhGKVtDSDJdMw==

>  <s_glide_docking_method>  (1) 
confgen

>  <s_i_glide_gridfile>  (1) 
gpcr_drd2_6luq_protein_autoprepared_prepared

>  <s_lp_Force_Field>  (1) 
S-OPLS

>  <s_lp_Variant>  (1) 
DiffSBDD_16-1

>  <s_m_source_file>  (1) 
generated_generic_title2_ligand_DiffSBDD_2026-06-23_prepared.sdf

>  <GenAI_Model>  (1) 
DiffSBDD

>  <Protein>  (1) 
generic_title2

$$$$
DiffSBDD_0
     RDKit          3D

  0  0  0  0  0  0  0  0  0  0999 V3000
M  V30 BEGIN CTAB
M  V30 COUNTS 70 74 0 0 1
M  V30 BEGIN ATOM
M  V30 1 C 11.679005 6.846228 -6.559790 0
M  V30 2 N 8.011594 3.926328 -13.612546 0
M  V30 3 C 7.838755 5.594190 -17.488675 0 CFG=1
M  V30 4 C 9.120092 4.144656 -11.432797 0
M  V30 5 F 11.459496 9.228180 -9.370181 0
M  V30 6 C 7.447148 5.279711 -13.660613 0
M  V30 7 C 10.260841 6.282873 -6.638354 0
M  V30 8 C 8.762546 5.803263 -9.784617 0
M  V30 9 C 9.675613 7.951159 -8.502020 0 CFG=1
M  V30 10 C 10.334971 5.001019 -18.047474 0
M  V30 11 C 7.684386 3.082504 -14.765681 0 CFG=1
M  V30 12 C 5.925526 0.725210 -14.021052 0
M  V30 13 C 8.928994 5.267430 -18.501134 0 CFG=1
M  V30 14 O 8.567337 5.357052 -11.123758 0
M  V30 15 C 11.045853 8.613947 -8.264874 0 CFG=1
M  V30 16 C 7.755522 4.319930 -18.268319 0 CFG=1
M  V30 17 N 8.121072 5.210007 -16.080020 0 CFG=2 CHG=1
M  V30 18 C 9.631967 7.076831 -9.796918 0
M  V30 19 C 7.433746 0.878587 -13.787742 0
M  V30 20 C 8.312958 3.734844 -16.012562 0 CFG=2
M  V30 21 O 5.375425 -0.009781 -12.960705 0
M  V30 22 C 9.233316 7.273970 -7.186378 0
M  V30 23 N 10.987821 5.805071 -17.158954 0
M  V30 24 C 7.133504 5.741091 -15.103894 0
M  V30 25 N 11.018945 3.947025 -18.493689 0
M  V30 26 O 12.264278 4.055302 -17.849528 0
M  V30 27 C 12.148310 5.174934 -17.108815 0
M  V30 28 O 8.094852 1.745021 -14.712888 0
M  V30 29 N 13.278696 5.516010 -16.385028 0
M  V30 30 C 8.857982 3.491322 -12.582614 0
M  V30 31 C 12.089591 7.590415 -7.839755 0
M  V30 32 C 14.572050 4.870317 -16.263613 0
M  V30 33 C 7.778388 3.148919 -17.321782 0
M  V30 34 H 11.757234 7.518924 -5.705332 0
M  V30 35 H 12.352466 6.006651 -6.375780 0
M  V30 36 H 7.134290 6.405737 -17.662084 0
M  V30 37 H 9.775387 3.774276 -10.662266 0
M  V30 38 H 6.571279 5.358708 -13.014820 0
M  V30 39 H 8.192066 5.979433 -13.282911 0
M  V30 40 H 9.947208 5.990235 -5.637827 0
M  V30 41 H 10.273961 5.386176 -7.252963 0
M  V30 42 H 7.775369 5.990208 -9.375740 0
M  V30 43 H 9.193949 5.045086 -9.132835 0
M  V30 44 H 8.975333 8.767640 -8.672235 0
M  V30 45 H 6.601758 3.111410 -14.868805 0
M  V30 46 H 5.703173 0.254978 -14.979081 0
M  V30 47 H 5.413295 1.679991 -13.984880 0
M  V30 48 H 8.935946 5.844045 -19.423247 0
M  V30 49 H 10.976179 9.368882 -7.483254 0
M  V30 50 H 7.034116 4.253219 -19.080274 0
M  V30 51 H 10.629659 6.790451 -10.118657 0
M  V30 52 H 9.269251 7.718928 -10.600558 0
M  V30 53 H 7.599141 1.203748 -12.763184 0
M  V30 54 H 7.909725 -0.098662 -13.869443 0
M  V30 55 H 9.388843 3.586792 -15.985004 0
M  V30 56 H 5.375283 -0.945074 -13.185004 0
M  V30 57 H 9.057899 8.046939 -6.437188 0
M  V30 58 H 8.280527 6.762508 -7.297726 0
M  V30 59 H 6.138727 5.395102 -15.389992 0
M  V30 60 H 7.109076 6.831026 -15.149258 0
M  V30 61 H 13.186131 6.354590 -15.831107 0
M  V30 62 H 9.313394 2.533231 -12.780902 0
M  V30 63 H 13.061886 8.065893 -7.714439 0
M  V30 64 H 12.175335 6.893132 -8.660543 0
M  V30 65 H 15.249127 5.494207 -15.679750 0
M  V30 66 H 14.468512 3.908974 -15.760317 0
M  V30 67 H 15.012221 4.704720 -17.246804 0
M  V30 68 H 6.763792 2.767953 -17.208964 0
M  V30 69 H 8.404107 2.342380 -17.705710 0
M  V30 70 H 9.011348 5.621310 -15.827188 0
M  V30 END ATOM
M  V30 BEGIN BOND
M  V30 1 1 6 2
M  V30 2 1 7 1
M  V30 3 1 11 2
M  V30 4 1 13 3
M  V30 5 1 13 10
M  V30 6 1 14 4
M  V30 7 1 14 8
M  V30 8 1 15 5
M  V30 9 1 15 9
M  V30 10 1 16 3
M  V30 11 1 16 13
M  V30 12 1 17 3
M  V30 13 1 18 8
M  V30 14 1 18 9
M  V30 15 1 19 12
M  V30 16 1 20 11
M  V30 17 1 20 17
M  V30 18 1 21 12
M  V30 19 1 22 7
M  V30 20 1 22 9
M  V30 21 1 23 10
M  V30 22 1 24 6
M  V30 23 1 24 17
M  V30 24 2 25 10
M  V30 25 1 26 25
M  V30 26 2 27 23
M  V30 27 1 27 26
M  V30 28 1 28 11
M  V30 29 1 28 19
M  V30 30 1 29 27
M  V30 31 1 30 2
M  V30 32 2 30 4
M  V30 33 1 31 1
M  V30 34 1 31 15
M  V30 35 1 32 29
M  V30 36 1 33 16
M  V30 37 1 33 20
M  V30 38 1 34 1
M  V30 39 1 35 1
M  V30 40 1 3 36 CFG=1
M  V30 41 1 37 4
M  V30 42 1 38 6
M  V30 43 1 39 6
M  V30 44 1 40 7
M  V30 45 1 41 7
M  V30 46 1 42 8
M  V30 47 1 43 8
M  V30 48 1 9 44 CFG=3
M  V30 49 1 11 45 CFG=3
M  V30 50 1 46 12
M  V30 51 1 47 12
M  V30 52 1 13 48 CFG=3
M  V30 53 1 15 49 CFG=1
M  V30 54 1 16 50 CFG=3
M  V30 55 1 51 18
M  V30 56 1 52 18
M  V30 57 1 53 19
M  V30 58 1 54 19
M  V30 59 1 20 55 CFG=1
M  V30 60 1 56 21
M  V30 61 1 57 22
M  V30 62 1 58 22
M  V30 63 1 59 24
M  V30 64 1 60 24
M  V30 65 1 61 29
M  V30 66 1 62 30
M  V30 67 1 63 31
M  V30 68 1 64 31
M  V30 69 1 65 32
M  V30 70 1 66 32
M  V30 71 1 67 32
M  V30 72 1 68 33
M  V30 73 1 69 33
M  V30 74 1 17 70 CFG=1
M  V30 END BOND
M  V30 END CTAB
M  END
>  <i_epik_Tot_Q>  (1) 
1

>  <i_epik_Tot_abs_Q>  (1) 
1

>  <i_i_glide_confnum>  (1) 
592

>  <i_i_glide_lignum>  (1) 
15

>  <i_i_glide_posenum>  (1) 
201

>  <i_i_glide_rotatable_bonds>  (1) 
11

>  <i_lp_mmshare_version>  (1) 
72125

>  <i_m_source_file_index>  (1) 
1

>  <i_f3d_flags>  (1) 
0

>  <num_sample>  (1) 
50

>  <b_lp_Chiralities_Consistent>  (1) 
1

>  <r_epik_Charging_Adjusted_Penalty>  (1) 
0.41344222577729461

>  <r_epik_Ionization_Penalty>  (1) 
0.0027644559619576371

>  <r_epik_Ionization_Penalty_Charging>  (1) 
0.0027623868246906495

>  <r_epik_Ionization_Penalty_Neutral>  (1) 
2.0691372669875143e-06

>  <r_epik_State_Penalty>  (1) 
0.41067983895260396

>  <r_glide_ring_energy>  (1) 
1.678368750750399

>  <r_i_docking_score>  (1) 
-4.5071255192377313

>  <r_i_glide_ecoul>  (1) 
-4.5460603205777579

>  <r_i_glide_eff_state_penalty>  (1) 
0.41067983895260396

>  <r_i_glide_einternal>  (1) 
9.3937697959835411

>  <r_i_glide_emodel>  (1) 
-33.927973777383173

>  <r_i_glide_emodel_strain>  (1) 
4.3990012853822122

>  <r_i_glide_energy>  (1) 
-33.733677274894369

>  <r_i_glide_erotb>  (1) 
0.74142510397790429

>  <r_i_glide_esite>  (1) 
0

>  <r_i_glide_evdw>  (1) 
-29.18761695431661

>  <r_i_glide_gscore>  (1) 
-4.9178053581903356

>  <r_i_glide_gscore_strain>  (1) 
0.099750321345553061

>  <r_i_glide_hbond>  (1) 
-0.16

>  <r_i_glide_ligand_efficiency>  (1) 
-0.13657956118902215

>  <r_i_glide_ligand_efficiency_ln>  (1) 
-1.0023613788314834

>  <r_i_glide_ligand_efficiency_sa>  (1) 
-0.43808363128955419

>  <r_i_glide_lipo>  (1) 
-2.1342971291784791

>  <r_i_glide_metal>  (1) 
-0

>  <r_i_glide_rewards>  (1) 
-1.3233937585328202

>  <r_lp_Energy>  (1) 
42.741957999999997

>  <r_lp_tautomer_probability>  (1) 
0.5

>  <s_epik_Chemistry_Notes>  (1) 
This compound has an imine and may undergo hydrolysis. This compound contains an acetal/aminal-like group ( X-CH(R)-Y where X, Y are N, S, or O) that may be acid/base labile, releasing an aldehyde.

>  <s_epik_cmdline>  (1) 
J2VwaWtfcHl0aG9uJywgJy1waHQnLCAnMS4wJywgJy1waCcsICc3LjQnLCAnLXRuJywgJzgnLCAnLW1hJywgJzUwMCcsICctaW1hZScsICc8aW5maWxlLm1hZT4nLCAnLW9tYWUnLCAnPG91dGZpbGUubWFlPic=

>  <s_epik_input>  (1) 
W0NIMl0xW0NIMl1bQ0gyXVtDSDJdW0NASF0oRilbQ0BIXTFbQ0gyXVtDSDJdTy9bQ0hdPVtDSF1cTihbQ0BIXTJPW0NIMl1bQ0gyXVtPSF0pW0NIMl1bQ0gyXU4zW0NAQEhdMltDSDJdW0NAQEhdKFtDQEBIXTM0KVtDQEBIXTRjNW5jKG9uNSlbTkhdW0NIM10=

>  <s_glide_docking_method>  (1) 
confgen

>  <s_i_glide_gridfile>  (1) 
gpcr_drd2_6luq_protein_autoprepared_prepared

>  <s_lp_Force_Field>  (1) 
S-OPLS

>  <s_lp_Variant>  (1) 
DiffSBDD_0-15

>  <s_m_source_file>  (1) 
generated_generic_title2_ligand_DiffSBDD_2026-06-23_prepared.sdf

>  <GenAI_Model>  (1) 
DiffSBDD

>  <Protein>  (1) 
generic_title2

$$$$
DiffSBDD_0
     RDKit          3D

  0  0  0  0  0  0  0  0  0  0999 V3000
M  V30 BEGIN CTAB
M  V30 COUNTS 70 74 0 0 1
M  V30 BEGIN ATOM
M  V30 1 C 10.120089 6.868209 -5.892709 0
M  V30 2 N 7.477426 4.970703 -14.083546 0
M  V30 3 C 7.753792 4.981718 -18.247810 0 CFG=1
M  V30 4 C 8.801025 6.184976 -12.434314 0
M  V30 5 F 12.175350 8.863934 -6.619443 0
M  V30 6 C 6.840061 6.150809 -14.671041 0
M  V30 7 C 9.071431 7.273127 -6.926029 0
M  V30 8 C 9.894414 7.409093 -10.755120 0
M  V30 9 C 10.900766 8.209366 -8.467527 0 CFG=1
M  V30 10 C 10.314015 4.435742 -18.222213 0
M  V30 11 C 7.233813 3.733531 -14.813350 0 CFG=1
M  V30 12 C 6.608901 0.644880 -12.931442 0
M  V30 13 C 8.981619 4.379520 -18.913500 0 CFG=1
M  V30 14 O 9.775419 6.190527 -11.477032 0
M  V30 15 C 11.944195 7.809682 -7.404838 0 CFG=2
M  V30 16 C 7.809749 3.502547 -18.472080 0 CFG=1
M  V30 17 N 7.858278 5.190271 -16.780373 0 CFG=2 CHG=1
M  V30 18 C 10.845930 7.145872 -9.584591 0
M  V30 19 C 6.573518 2.164028 -13.184731 0
M  V30 20 C 8.044851 3.864698 -16.111724 0 CFG=2
M  V30 21 O 5.745879 -0.009765 -13.845703 0
M  V30 22 C 9.554400 8.467672 -7.757381 0
M  V30 23 N 10.778796 5.562899 -17.605095 0
M  V30 24 C 6.763069 6.032430 -16.215892 0
M  V30 25 N 11.114420 3.370703 -18.174173 0
M  V30 26 O 12.236632 3.823245 -17.458895 0
M  V30 27 C 11.946565 5.109070 -17.180293 0
M  V30 28 O 7.541899 2.540134 -14.162396 0
M  V30 29 N 12.928423 5.789379 -16.478685 0
M  V30 30 C 8.449569 5.061359 -13.086670 0
M  V30 31 C 11.473637 6.606382 -6.547789 0
M  V30 32 C 14.224103 5.360945 -15.983848 0
M  V30 33 C 7.719095 2.786003 -17.148349 0
M  V30 34 H 10.227356 7.671694 -5.166632 0
M  V30 35 H 9.787577 5.990292 -5.339352 0
M  V30 36 H 7.060463 5.610509 -18.804036 0
M  V30 37 H 8.366803 7.161109 -12.596481 0
M  V30 38 H 5.848196 6.295681 -14.241196 0
M  V30 39 H 7.411807 7.049114 -14.445627 0
M  V30 40 H 8.175406 7.556906 -6.385044 0
M  V30 41 H 8.805797 6.432905 -7.568858 0
M  V30 42 H 10.260734 8.210994 -11.394295 0
M  V30 43 H 8.923198 7.710427 -10.385097 0
M  V30 44 H 11.225120 9.143758 -8.928301 0
M  V30 45 H 6.175407 3.712698 -15.058403 0
M  V30 46 H 6.241672 0.432662 -11.926797 0
M  V30 47 H 7.622446 0.248308 -12.996360 0
M  V30 48 H 9.104487 4.553242 -19.980734 0
M  V30 49 H 12.900326 7.590236 -7.880357 0
M  V30 50 H 7.208938 3.078111 -19.274458 0
M  V30 51 H 10.573452 6.182339 -9.155917 0
M  V30 52 H 11.850466 7.029767 -9.989852 0
M  V30 53 H 5.558985 2.457220 -13.459802 0
M  V30 54 H 6.803546 2.714830 -12.274247 0
M  V30 55 H 9.099086 3.793841 -15.845789 0
M  V30 56 H 5.602414 -0.921591 -13.585043 0
M  V30 57 H 9.680063 9.293863 -7.064214 0
M  V30 58 H 8.791877 8.793757 -8.458343 0
M  V30 59 H 5.806565 5.586351 -16.489556 0
M  V30 60 H 6.764405 7.021859 -16.673052 0
M  V30 61 H 12.710344 6.753768 -16.275733 0
M  V30 62 H 8.927358 4.116765 -12.866319 0
M  V30 63 H 12.175411 6.374441 -5.754474 0
M  V30 64 H 11.411080 5.704175 -7.154807 0
M  V30 65 H 14.645061 6.112704 -15.315849 0
M  V30 66 H 14.136315 4.425216 -15.431363 0
M  V30 67 H 14.914879 5.207706 -16.812971 0
M  V30 68 H 6.707729 2.396873 -17.022619 0
M  V30 69 H 8.413348 1.946650 -17.107330 0
M  V30 70 H 8.716858 5.701538 -16.616103 0
M  V30 END ATOM
M  V30 BEGIN BOND
M  V30 1 1 6 2
M  V30 2 1 7 1
M  V30 3 1 11 2
M  V30 4 1 13 3
M  V30 5 1 13 10
M  V30 6 1 14 4
M  V30 7 1 14 8
M  V30 8 1 15 5
M  V30 9 1 15 9
M  V30 10 1 16 3
M  V30 11 1 16 13
M  V30 12 1 17 3
M  V30 13 1 18 8
M  V30 14 1 18 9
M  V30 15 1 19 12
M  V30 16 1 20 11
M  V30 17 1 20 17
M  V30 18 1 21 12
M  V30 19 1 22 7
M  V30 20 1 22 9
M  V30 21 1 23 10
M  V30 22 1 24 6
M  V30 23 1 24 17
M  V30 24 2 25 10
M  V30 25 1 26 25
M  V30 26 2 27 23
M  V30 27 1 27 26
M  V30 28 1 28 11
M  V30 29 1 28 19
M  V30 30 1 29 27
M  V30 31 1 30 2
M  V30 32 2 30 4
M  V30 33 1 31 1
M  V30 34 1 31 15
M  V30 35 1 32 29
M  V30 36 1 33 16
M  V30 37 1 33 20
M  V30 38 1 34 1
M  V30 39 1 35 1
M  V30 40 1 3 36 CFG=3
M  V30 41 1 37 4
M  V30 42 1 38 6
M  V30 43 1 39 6
M  V30 44 1 40 7
M  V30 45 1 41 7
M  V30 46 1 42 8
M  V30 47 1 43 8
M  V30 48 1 9 44 CFG=3
M  V30 49 1 11 45 CFG=3
M  V30 50 1 46 12
M  V30 51 1 47 12
M  V30 52 1 13 48 CFG=3
M  V30 53 1 15 49 CFG=3
M  V30 54 1 16 50 CFG=3
M  V30 55 1 51 18
M  V30 56 1 52 18
M  V30 57 1 53 19
M  V30 58 1 54 19
M  V30 59 1 20 55 CFG=1
M  V30 60 1 56 21
M  V30 61 1 57 22
M  V30 62 1 58 22
M  V30 63 1 59 24
M  V30 64 1 60 24
M  V30 65 1 61 29
M  V30 66 1 62 30
M  V30 67 1 63 31
M  V30 68 1 64 31
M  V30 69 1 65 32
M  V30 70 1 66 32
M  V30 71 1 67 32
M  V30 72 1 68 33
M  V30 73 1 69 33
M  V30 74 1 17 70 CFG=3
M  V30 END BOND
M  V30 END CTAB
M  END
>  <i_epik_Tot_Q>  (1) 
1

>  <i_epik_Tot_abs_Q>  (1) 
1

>  <i_i_glide_confnum>  (1) 
180

>  <i_i_glide_lignum>  (1) 
5

>  <i_i_glide_posenum>  (1) 
261

>  <i_i_glide_rotatable_bonds>  (1) 
11

>  <i_lp_mmshare_version>  (1) 
72125

>  <i_m_source_file_index>  (1) 
1

>  <i_f3d_flags>  (1) 
0

>  <num_sample>  (1) 
50

>  <b_lp_Chiralities_Consistent>  (1) 
1

>  <r_epik_Charging_Adjusted_Penalty>  (1) 
0.41344222577729461

>  <r_epik_Ionization_Penalty>  (1) 
0.0027644559619576371

>  <r_epik_Ionization_Penalty_Charging>  (1) 
0.0027623868246906495

>  <r_epik_Ionization_Penalty_Neutral>  (1) 
2.0691372669875143e-06

>  <r_epik_State_Penalty>  (1) 
0.41067983895260396

>  <r_glide_ring_energy>  (1) 
1.2887488819258046

>  <r_i_docking_score>  (1) 
-4.5042268068695206

>  <r_i_glide_ecoul>  (1) 
-3.2294330823577635

>  <r_i_glide_eff_state_penalty>  (1) 
0.41067983895260396

>  <r_i_glide_einternal>  (1) 
6.9359614267770802

>  <r_i_glide_emodel>  (1) 
-45.031810669480294

>  <r_i_glide_emodel_strain>  (1) 
1.1726778678313252

>  <r_i_glide_energy>  (1) 
-37.285372487176083

>  <r_i_glide_erotb>  (1) 
0.74142510397790429

>  <r_i_glide_esite>  (1) 
0

>  <r_i_glide_evdw>  (1) 
-34.055939404818318

>  <r_i_glide_gscore>  (1) 
-4.9149066458221249

>  <r_i_glide_gscore_strain>  (1) 
0

>  <r_i_glide_hbond>  (1) 
-0.16

>  <r_i_glide_ligand_efficiency>  (1) 
-0.13649172142028851

>  <r_i_glide_ligand_efficiency_ln>  (1) 
-1.0017167202095225

>  <r_i_glide_ligand_efficiency_sa>  (1) 
-0.43780188221580213

>  <r_i_glide_lipo>  (1) 
-1.9681037930938803

>  <r_i_glide_metal>  (1) 
-0

>  <r_i_glide_rewards>  (1) 
-1.3410160241115678

>  <r_lp_Energy>  (1) 
43.260881999999995

>  <r_lp_tautomer_probability>  (1) 
0.5

>  <s_epik_Chemistry_Notes>  (1) 
This compound has an imine and may undergo hydrolysis. This compound contains an acetal/aminal-like group ( X-CH(R)-Y where X, Y are N, S, or O) that may be acid/base labile, releasing an aldehyde.

>  <s_epik_cmdline>  (1) 
J2VwaWtfcHl0aG9uJywgJy1waHQnLCAnMS4wJywgJy1waCcsICc3LjQnLCAnLXRuJywgJzgnLCAnLW1hJywgJzUwMCcsICctaW1hZScsICc8aW5maWxlLm1hZT4nLCAnLW9tYWUnLCAnPG91dGZpbGUubWFlPic=

>  <s_epik_input>  (1) 
W0NIMl0xW0NIMl1bQ0gyXVtDSDJdW0NASF0oRilbQ0BIXTFbQ0gyXVtDSDJdTy9bQ0hdPVtDSF0vTihbQ0BIXTJPW0NIMl1bQ0gyXVtPSF0pW0NIMl1bQ0gyXU4zW0NAQEhdMltDSDJdW0NAQEhdKFtDQEBIXTM0KVtDQEBIXTRjNW5jKG9uNSlbTkhdW0NIM10=

>  <s_glide_docking_method>  (1) 
confgen

>  <s_i_glide_gridfile>  (1) 
gpcr_drd2_6luq_protein_autoprepared_prepared

>  <s_lp_Force_Field>  (1) 
S-OPLS

>  <s_lp_Variant>  (1) 
DiffSBDD_0-5

>  <s_m_source_file>  (1) 
generated_generic_title2_ligand_DiffSBDD_2026-06-23_prepared.sdf

>  <GenAI_Model>  (1) 
DiffSBDD

>  <Protein>  (1) 
generic_title2

$$$$
DiffSBDD_0
     RDKit          3D

  0  0  0  0  0  0  0  0  0  0999 V3000
M  V30 BEGIN CTAB
M  V30 COUNTS 70 74 0 0 1
M  V30 BEGIN ATOM
M  V30 1 C 11.302838 7.416906 -6.056164 0
M  V30 2 N 7.743525 4.247647 -14.105153 0
M  V30 3 C 7.652712 5.015970 -18.227582 0 CFG=1
M  V30 4 C 9.285460 4.834825 -12.286691 0
M  V30 5 F 11.309737 8.504970 -9.563355 0
M  V30 6 C 7.294282 5.607647 -14.429335 0
M  V30 7 C 9.823427 7.040421 -5.985029 0
M  V30 8 C 9.505282 6.883826 -11.136889 0
M  V30 9 C 9.651237 7.140099 -8.536486 0 CFG=1
M  V30 10 C 10.061481 4.024615 -18.577964 0
M  V30 11 C 7.252751 3.218840 -15.012617 0 CFG=1
M  V30 12 C 7.085600 0.083775 -13.143384 0
M  V30 13 C 8.698945 4.351934 -19.118314 0 CFG=1
M  V30 14 O 8.898058 6.144126 -12.190847 0
M  V30 15 C 11.120241 7.630992 -8.574499 0 CFG=2
M  V30 16 C 7.430483 3.612953 -18.701021 0 CFG=1
M  V30 17 N 7.894298 4.928597 -16.762737 0 CFG=2 CHG=1
M  V30 18 C 9.266170 6.259966 -9.744266 0
M  V30 19 C 6.621590 1.459287 -13.604803 0
M  V30 20 C 7.938777 3.488769 -16.361922 0 CFG=2
M  V30 21 O 6.175386 -0.409777 -12.190825 0
M  V30 22 C 9.382243 6.317389 -7.258641 0
M  V30 23 N 10.603371 2.774133 -18.642023 0
M  V30 24 C 6.962176 5.746422 -15.937033 0
M  V30 25 N 10.805632 4.954340 -17.975352 0
M  V30 26 O 11.947325 4.252227 -17.555040 0
M  V30 27 C 11.730680 2.995304 -17.985218 0
M  V30 28 O 7.504500 1.911021 -14.621322 0
M  V30 29 N 12.730998 2.095121 -17.664579 0
M  V30 30 C 8.741737 3.970239 -13.162152 0
M  V30 31 C 11.558738 8.315475 -7.270600 0
M  V30 32 C 12.858992 0.674919 -17.930914 0
M  V30 33 C 7.357013 2.674766 -17.522722 0
M  V30 34 H 11.605880 7.924064 -5.139590 0
M  V30 35 H 11.895125 6.504031 -6.129602 0
M  V30 36 H 7.038285 5.836703 -18.594121 0
M  V30 37 H 10.064328 4.573993 -11.587475 0
M  V30 38 H 6.452204 5.899231 -13.800917 0
M  V30 39 H 8.096962 6.319578 -14.254418 0
M  V30 40 H 9.216712 7.935616 -5.845621 0
M  V30 41 H 9.659198 6.390257 -5.126768 0
M  V30 42 H 10.571434 6.976521 -11.346668 0
M  V30 43 H 9.088265 7.891134 -11.162778 0
M  V30 44 H 9.003082 8.017637 -8.515173 0
M  V30 45 H 6.175412 3.349727 -15.093146 0
M  V30 46 H 8.080014 0.151710 -12.701414 0
M  V30 47 H 7.139148 -0.608065 -13.985055 0
M  V30 48 H 8.769129 4.685180 -20.152330 0
M  V30 49 H 11.775396 6.790236 -8.782987 0
M  V30 50 H 6.698446 3.440287 -19.487895 0
M  V30 51 H 8.211388 5.990213 -9.663271 0
M  V30 52 H 9.802457 5.317994 -9.651860 0
M  V30 53 H 5.602015 1.401205 -13.985048 0
M  V30 54 H 6.613214 2.146237 -12.757103 0
M  V30 55 H 8.988701 3.225708 -16.238666 0
M  V30 56 H 5.635557 -1.072813 -12.618065 0
M  V30 57 H 8.321542 6.070665 -7.188943 0
M  V30 58 H 9.910163 5.365741 -7.320312 0
M  V30 59 H 5.942858 5.404592 -16.120241 0
M  V30 60 H 6.975439 6.792657 -16.239235 0
M  V30 61 H 13.499467 2.486738 -17.140075 0
M  V30 62 H 9.071224 2.943459 -13.184936 0
M  V30 63 H 11.010928 9.249035 -7.146908 0
M  V30 64 H 12.614310 8.581189 -7.327374 0
M  V30 65 H 13.731500 0.267860 -17.419616 0
M  V30 66 H 11.975121 0.141355 -17.580828 0
M  V30 67 H 12.967392 0.496061 -19.000936 0
M  V30 68 H 6.319311 2.390224 -17.351514 0
M  V30 69 H 7.924419 1.763260 -17.713434 0
M  V30 70 H 8.818063 5.301064 -16.583306 0
M  V30 END ATOM
M  V30 BEGIN BOND
M  V30 1 1 6 2
M  V30 2 1 7 1
M  V30 3 1 11 2
M  V30 4 1 13 3
M  V30 5 1 13 10
M  V30 6 1 14 4
M  V30 7 1 14 8
M  V30 8 1 15 5
M  V30 9 1 15 9
M  V30 10 1 16 3
M  V30 11 1 16 13
M  V30 12 1 17 3
M  V30 13 1 18 8
M  V30 14 1 18 9
M  V30 15 1 19 12
M  V30 16 1 20 11
M  V30 17 1 20 17
M  V30 18 1 21 12
M  V30 19 1 22 7
M  V30 20 1 22 9
M  V30 21 1 23 10
M  V30 22 1 24 6
M  V30 23 1 24 17
M  V30 24 2 25 10
M  V30 25 1 26 25
M  V30 26 2 27 23
M  V30 27 1 27 26
M  V30 28 1 28 11
M  V30 29 1 28 19
M  V30 30 1 29 27
M  V30 31 1 30 2
M  V30 32 2 30 4
M  V30 33 1 31 1
M  V30 34 1 31 15
M  V30 35 1 32 29
M  V30 36 1 33 16
M  V30 37 1 33 20
M  V30 38 1 34 1
M  V30 39 1 35 1
M  V30 40 1 3 36 CFG=3
M  V30 41 1 37 4
M  V30 42 1 38 6
M  V30 43 1 39 6
M  V30 44 1 40 7
M  V30 45 1 41 7
M  V30 46 1 42 8
M  V30 47 1 43 8
M  V30 48 1 9 44 CFG=1
M  V30 49 1 11 45 CFG=3
M  V30 50 1 46 12
M  V30 51 1 47 12
M  V30 52 1 13 48 CFG=3
M  V30 53 1 15 49 CFG=3
M  V30 54 1 16 50 CFG=3
M  V30 55 1 51 18
M  V30 56 1 52 18
M  V30 57 1 53 19
M  V30 58 1 54 19
M  V30 59 1 20 55 CFG=1
M  V30 60 1 56 21
M  V30 61 1 57 22
M  V30 62 1 58 22
M  V30 63 1 59 24
M  V30 64 1 60 24
M  V30 65 1 61 29
M  V30 66 1 62 30
M  V30 67 1 63 31
M  V30 68 1 64 31
M  V30 69 1 65 32
M  V30 70 1 66 32
M  V30 71 1 67 32
M  V30 72 1 68 33
M  V30 73 1 69 33
M  V30 74 1 17 70 CFG=3
M  V30 END BOND
M  V30 END CTAB
M  END
>  <i_epik_Tot_Q>  (1) 
1

>  <i_epik_Tot_abs_Q>  (1) 
1

>  <i_i_glide_confnum>  (1) 
757

>  <i_i_glide_lignum>  (1) 
7

>  <i_i_glide_posenum>  (1) 
89

>  <i_i_glide_rotatable_bonds>  (1) 
11

>  <i_lp_mmshare_version>  (1) 
72125

>  <i_m_source_file_index>  (1) 
1

>  <i_f3d_flags>  (1) 
0

>  <num_sample>  (1) 
50

>  <b_lp_Chiralities_Consistent>  (1) 
1

>  <r_epik_Charging_Adjusted_Penalty>  (1) 
0.41344222577729461

>  <r_epik_Ionization_Penalty>  (1) 
0.0027644559619576371

>  <r_epik_Ionization_Penalty_Charging>  (1) 
0.0027623868246906495

>  <r_epik_Ionization_Penalty_Neutral>  (1) 
2.0691372669875143e-06

>  <r_epik_State_Penalty>  (1) 
0.41067983895260396

>  <r_glide_ring_energy>  (1) 
0

>  <r_i_docking_score>  (1) 
-4.4989463805915326

>  <r_i_glide_ecoul>  (1) 
-2.7166982362772076

>  <r_i_glide_eff_state_penalty>  (1) 
0.41067983895260396

>  <r_i_glide_einternal>  (1) 
4.4475837601956005

>  <r_i_glide_emodel>  (1) 
-42.238854118891368

>  <r_i_glide_emodel_strain>  (1) 
1.3859552309821481

>  <r_i_glide_energy>  (1) 
-37.480808745234938

>  <r_i_glide_erotb>  (1) 
0.74142510397790429

>  <r_i_glide_esite>  (1) 
0

>  <r_i_glide_evdw>  (1) 
-34.764110508957728

>  <r_i_glide_gscore>  (1) 
-4.9096262195441369

>  <r_i_glide_gscore_strain>  (1) 
0

>  <r_i_glide_hbond>  (1) 
-0.16

>  <r_i_glide_ligand_efficiency>  (1) 
-0.13633170850277371

>  <r_i_glide_ligand_efficiency_ln>  (1) 
-1.0005423807458822

>  <r_i_glide_ligand_efficiency_sa>  (1) 
-0.43728863528963063

>  <r_i_glide_lipo>  (1) 
-2.0074140224675228

>  <r_i_glide_metal>  (1) 
-0

>  <r_i_glide_rewards>  (1) 
-1.3379270401650507

>  <r_lp_Energy>  (1) 
39.472059000000002

>  <r_lp_tautomer_probability>  (1) 
0.5

>  <s_epik_Chemistry_Notes>  (1) 
This compound has an imine and may undergo hydrolysis. This compound contains an acetal/aminal-like group ( X-CH(R)-Y where X, Y are N, S, or O) that may be acid/base labile, releasing an aldehyde.

>  <s_epik_cmdline>  (1) 
J2VwaWtfcHl0aG9uJywgJy1waHQnLCAnMS4wJywgJy1waCcsICc3LjQnLCAnLXRuJywgJzgnLCAnLW1hJywgJzUwMCcsICctaW1hZScsICc8aW5maWxlLm1hZT4nLCAnLW9tYWUnLCAnPG91dGZpbGUubWFlPic=

>  <s_epik_input>  (1) 
W0NIMl0xW0NIMl1bQ0gyXVtDSDJdW0NASF0oRilbQ0BIXTFbQ0gyXVtDSDJdTy9bQ0hdPVtDSF1cTihbQ0BIXTJPW0NIMl1bQ0gyXVtPSF0pW0NIMl1bQ0gyXU4zW0NAQEhdMltDSDJdW0NAQEhdKFtDQEBIXTM0KVtDQEBIXTRjNW5jKG9uNSlbTkhdW0NIM10=

>  <s_glide_docking_method>  (1) 
confgen

>  <s_i_glide_gridfile>  (1) 
gpcr_drd2_6luq_protein_autoprepared_prepared

>  <s_lp_Force_Field>  (1) 
S-OPLS

>  <s_lp_Variant>  (1) 
DiffSBDD_0-7

>  <s_m_source_file>  (1) 
generated_generic_title2_ligand_DiffSBDD_2026-06-23_prepared.sdf

>  <GenAI_Model>  (1) 
DiffSBDD

>  <Protein>  (1) 
generic_title2

$$$$
DiffSBDD_47
     RDKit          3D

  0  0  0  0  0  0  0  0  0  0999 V3000
M  V30 BEGIN CTAB
M  V30 COUNTS 32 31 0 0 1
M  V30 BEGIN ATOM
M  V30 1 C 11.338138 6.630450 -5.133700 0
M  V30 2 C 11.775419 7.052668 -3.969105 0
M  V30 3 C 12.190895 7.375097 -2.766116 0
M  V30 4 C 11.136098 7.550169 -6.331573 0 CFG=1
M  V30 5 C 7.996116 5.202101 -10.935809 0
M  V30 6 C 10.661577 6.781504 -7.581887 0
M  V30 7 N 8.575433 5.990221 -9.828253 0 CHG=1
M  V30 8 C 9.020577 4.267482 -11.593754 0
M  V30 9 C 9.258475 6.164213 -7.440338 0
M  V30 10 C 12.571875 8.788335 -2.383128 0
M  V30 11 C 8.851872 5.233274 -8.591706 0
M  V30 12 O 10.215512 8.582921 -6.041563 0
M  V30 13 H 11.102713 5.590350 -5.284535 0
M  V30 14 H 12.276722 6.627167 -1.990706 0
M  V30 15 H 12.087554 8.029620 -6.564163 0
M  V30 16 H 7.132120 4.639147 -10.579054 0
M  V30 17 H 7.620429 5.903598 -11.681651 0
M  V30 18 H 10.680032 7.450722 -8.442694 0
M  V30 19 H 11.375410 5.989993 -7.799379 0
M  V30 20 H 7.883278 6.715845 -9.585029 0
M  V30 21 H 8.575490 3.744597 -12.440584 0
M  V30 22 H 9.885427 4.817378 -11.966758 0
M  V30 23 H 9.375953 3.506945 -10.899830 0
M  V30 24 H 9.201736 5.593440 -6.516921 0
M  V30 25 H 8.532606 6.965161 -7.333419 0
M  V30 26 H 13.586534 8.790494 -1.985265 0
M  V30 27 H 12.532175 9.470677 -3.233695 0
M  V30 28 H 11.902626 9.164799 -1.608665 0
M  V30 29 H 9.625959 4.484771 -8.765309 0
M  V30 30 H 7.945782 4.696516 -8.305471 0
M  V30 31 H 9.354097 8.200459 -5.954861 0
M  V30 32 H 9.411752 6.459129 -10.140697 0
M  V30 END ATOM
M  V30 BEGIN BOND
M  V30 1 2 2 1
M  V30 2 2 3 2
M  V30 3 1 4 1
M  V30 4 1 6 4
M  V30 5 1 7 5
M  V30 6 1 8 5
M  V30 7 1 9 6
M  V30 8 1 10 3
M  V30 9 1 11 7
M  V30 10 1 11 9
M  V30 11 1 12 4
M  V30 12 1 13 1
M  V30 13 1 14 3
M  V30 14 1 4 15 CFG=3
M  V30 15 1 16 5
M  V30 16 1 17 5
M  V30 17 1 18 6
M  V30 18 1 19 6
M  V30 19 1 20 7
M  V30 20 1 21 8
M  V30 21 1 22 8
M  V30 22 1 23 8
M  V30 23 1 24 9
M  V30 24 1 25 9
M  V30 25 1 26 10
M  V30 26 1 27 10
M  V30 27 1 28 10
M  V30 28 1 29 11
M  V30 29 1 30 11
M  V30 30 1 31 12
M  V30 31 1 32 7
M  V30 END BOND
M  V30 END CTAB
M  END
>  <i_epik_Tot_Q>  (1) 
1

>  <i_epik_Tot_abs_Q>  (1) 
1

>  <i_i_glide_confnum>  (1) 
45

>  <i_i_glide_lignum>  (1) 
125

>  <i_i_glide_posenum>  (1) 
136

>  <i_i_glide_rotatable_bonds>  (1) 
7

>  <i_lp_mmshare_version>  (1) 
72125

>  <i_m_source_file_index>  (1) 
48

>  <i_f3d_flags>  (1) 
0

>  <num_sample>  (1) 
50

>  <b_lp_Chiralities_Consistent>  (1) 
1

>  <r_epik_Charging_Adjusted_Penalty>  (1) 
0.00069192130555224092

>  <r_epik_Ionization_Penalty>  (1) 
0.00069195969174634328

>  <r_epik_Ionization_Penalty_Charging>  (1) 
0.00069192130555224092

>  <r_epik_Ionization_Penalty_Neutral>  (1) 
3.8386194102396343e-08

>  <r_epik_State_Penalty>  (1) 
-0

>  <r_glide_ring_energy>  (1) 
0

>  <r_i_docking_score>  (1) 
-4.4981207964675285

>  <r_i_glide_ecoul>  (1) 
-8.9704600410291704

>  <r_i_glide_eff_state_penalty>  (1) 
-0

>  <r_i_glide_einternal>  (1) 
6.3561302376400635

>  <r_i_glide_emodel>  (1) 
-38.48261267301087

>  <r_i_glide_emodel_strain>  (1) 
0

>  <r_i_glide_energy>  (1) 
-29.546232618245714

>  <r_i_glide_erotb>  (1) 
2.6617729602706905

>  <r_i_glide_esite>  (1) 
-0.09199483970192926

>  <r_i_glide_evdw>  (1) 
-20.575772577216544

>  <r_i_glide_gscore>  (1) 
-4.4981207964675285

>  <r_i_glide_gscore_strain>  (1) 
0

>  <r_i_glide_hbond>  (1) 
-0.17762632819741159

>  <r_i_glide_ligand_efficiency>  (1) 
-0.37484339970562736

>  <r_i_glide_ligand_efficiency_ln>  (1) 
-1.2907435545629797

>  <r_i_glide_ligand_efficiency_sa>  (1) 
-0.85817715674028616

>  <r_i_glide_lipo>  (1) 
-1.7543518416376753

>  <r_i_glide_metal>  (1) 
-0

>  <r_i_glide_rewards>  (1) 
-2.7615631121860007

>  <r_lp_Energy>  (1) 
-13.973255999999999

>  <r_lp_tautomer_probability>  (1) 
1

>  <s_epik_cmdline>  (1) 
J2VwaWtfcHl0aG9uJywgJy1waHQnLCAnMS4wJywgJy1waCcsICc3LjQnLCAnLXRuJywgJzgnLCAnLW1hJywgJzUwMCcsICctaW1hZScsICc8aW5maWxlLm1hZT4nLCAnLW9tYWUnLCAnPG91dGZpbGUubWFlPic=

>  <s_epik_input>  (1) 
W0NIM11bQ0hdPUM9W0NIXVtDQEhdKFtPSF0pW0NIMl1bQ0gyXVtDSDJdW05IXVtDSDJdW0NIM10=

>  <s_glide_docking_method>  (1) 
confgen

>  <s_i_glide_gridfile>  (1) 
gpcr_drd2_6luq_protein_autoprepared_prepared

>  <s_lp_Force_Field>  (1) 
S-OPLS

>  <s_lp_Variant>  (1) 
DiffSBDD_47-1

>  <s_m_source_file>  (1) 
generated_generic_title2_ligand_DiffSBDD_2026-06-23_prepared.sdf

>  <GenAI_Model>  (1) 
DiffSBDD

>  <Protein>  (1) 
generic_title2

$$$$
DiffSBDD_0
     RDKit          3D

  0  0  0  0  0  0  0  0  0  0999 V3000
M  V30 BEGIN CTAB
M  V30 COUNTS 70 74 0 0 1
M  V30 BEGIN ATOM
M  V30 1 C 10.149617 7.154009 -5.969544 0
M  V30 2 N 8.194982 4.380561 -13.655091 0
M  V30 3 C 7.108345 4.790733 -17.756989 0 CFG=1
M  V30 4 C 9.472233 5.282618 -11.765151 0
M  V30 5 F 12.176661 8.921495 -7.058063 0
M  V30 6 C 7.517808 5.632089 -14.022131 0
M  V30 7 C 8.978873 7.617200 -6.846937 0
M  V30 8 C 9.512158 7.602738 -11.012630 0
M  V30 9 C 10.603690 8.317323 -8.702178 0 CFG=1
M  V30 10 C 9.530893 4.760361 -18.739503 0
M  V30 11 C 7.921657 3.232743 -14.513855 0 CFG=2
M  V30 12 C 6.887696 0.665743 -13.200368 0
M  V30 13 C 8.067926 4.474547 -18.895866 0 CFG=1
M  V30 14 O 8.978642 6.564148 -11.858392 0
M  V30 15 C 11.766632 7.878581 -7.781547 0 CFG=2
M  V30 16 C 7.319625 3.364773 -18.168824 0 CFG=1
M  V30 17 N 7.727262 4.939342 -16.412749 0 CFG=2 CHG=1
M  V30 18 C 10.269897 7.200305 -9.722929 0
M  V30 19 C 6.243270 2.061517 -13.273321 0
M  V30 20 C 8.271332 3.624006 -15.973158 0 CFG=2
M  V30 21 O 6.175363 -0.146205 -12.292611 0
M  V30 22 C 9.407647 8.727253 -7.813633 0
M  V30 23 N 10.006665 5.985816 -18.373344 0
M  V30 24 C 6.854976 5.601708 -15.415210 0
M  V30 25 N 10.448185 3.816246 -18.952496 0
M  V30 26 O 11.667547 4.467177 -18.699156 0
M  V30 27 C 11.302802 5.722779 -18.374969 0
M  V30 28 O 6.604627 2.783112 -14.446315 0
M  V30 29 N 12.352842 6.576340 -18.078565 0
M  V30 30 C 9.101895 4.287869 -12.596751 0
M  V30 31 C 11.346619 6.733674 -6.833822 0
M  V30 32 C 13.786465 6.358317 -18.056641 0
M  V30 33 C 7.873151 2.568793 -17.016031 0
M  V30 34 H 10.446170 7.963058 -5.300584 0
M  V30 35 H 9.832945 6.326920 -5.334314 0
M  V30 36 H 6.155868 5.287842 -17.936479 0
M  V30 37 H 10.175386 5.157075 -10.968287 0
M  V30 38 H 6.792258 5.908003 -13.255449 0
M  V30 39 H 8.266933 6.420943 -14.056964 0
M  V30 40 H 8.175364 7.996687 -6.223850 0
M  V30 41 H 8.575360 6.767710 -7.394115 0
M  V30 42 H 10.173921 8.210717 -11.627630 0
M  V30 43 H 8.671542 8.252042 -10.775720 0
M  V30 44 H 10.936733 9.189621 -9.266693 0
M  V30 45 H 8.575366 2.416733 -14.206481 0
M  V30 46 H 7.927620 0.726558 -12.875680 0
M  V30 47 H 6.870861 0.183801 -14.178388 0
M  V30 48 H 7.745930 4.705175 -19.909422 0
M  V30 49 H 12.634879 7.591749 -8.373471 0
M  V30 50 H 6.537727 2.871857 -18.743258 0
M  V30 51 H 9.729741 6.397447 -9.222831 0
M  V30 52 H 11.223601 6.790289 -10.044173 0
M  V30 53 H 5.163544 1.936537 -13.325731 0
M  V30 54 H 6.446415 2.643499 -12.374722 0
M  V30 55 H 9.354898 3.743178 -16.007660 0
M  V30 56 H 5.685673 -0.799010 -12.782308 0
M  V30 57 H 9.688544 9.566643 -7.184921 0
M  V30 58 H 8.575884 9.076177 -8.419207 0
M  V30 59 H 5.900760 5.077100 -15.360829 0
M  V30 60 H 6.633236 6.617901 -15.743608 0
M  V30 61 H 12.078477 7.519365 -17.840703 0
M  V30 62 H 9.516893 3.296353 -12.480962 0
M  V30 63 H 12.174297 6.416939 -6.202678 0
M  V30 64 H 11.076809 5.847970 -7.409686 0
M  V30 65 H 14.278205 7.125998 -17.460162 0
M  V30 66 H 14.018897 5.384529 -17.625351 0
M  V30 67 H 14.190845 6.394748 -19.068637 0
M  V30 68 H 7.100512 1.887659 -16.657145 0
M  V30 69 H 8.724917 1.969613 -17.339318 0
M  V30 70 H 8.527132 5.549548 -16.522448 0
M  V30 END ATOM
M  V30 BEGIN BOND
M  V30 1 1 6 2
M  V30 2 1 7 1
M  V30 3 1 11 2
M  V30 4 1 13 3
M  V30 5 1 13 10
M  V30 6 1 14 4
M  V30 7 1 14 8
M  V30 8 1 15 5
M  V30 9 1 15 9
M  V30 10 1 16 3
M  V30 11 1 16 13
M  V30 12 1 17 3
M  V30 13 1 18 8
M  V30 14 1 18 9
M  V30 15 1 19 12
M  V30 16 1 20 11
M  V30 17 1 20 17
M  V30 18 1 21 12
M  V30 19 1 22 7
M  V30 20 1 22 9
M  V30 21 1 23 10
M  V30 22 1 24 6
M  V30 23 1 24 17
M  V30 24 2 25 10
M  V30 25 1 26 25
M  V30 26 2 27 23
M  V30 27 1 27 26
M  V30 28 1 28 11
M  V30 29 1 28 19
M  V30 30 1 29 27
M  V30 31 1 30 2
M  V30 32 2 30 4
M  V30 33 1 31 1
M  V30 34 1 31 15
M  V30 35 1 32 29
M  V30 36 1 33 16
M  V30 37 1 33 20
M  V30 38 1 34 1
M  V30 39 1 35 1
M  V30 40 1 3 36 CFG=3
M  V30 41 1 37 4
M  V30 42 1 38 6
M  V30 43 1 39 6
M  V30 44 1 40 7
M  V30 45 1 41 7
M  V30 46 1 42 8
M  V30 47 1 43 8
M  V30 48 1 9 44 CFG=3
M  V30 49 1 11 45 CFG=1
M  V30 50 1 46 12
M  V30 51 1 47 12
M  V30 52 1 13 48 CFG=3
M  V30 53 1 15 49 CFG=3
M  V30 54 1 16 50 CFG=3
M  V30 55 1 51 18
M  V30 56 1 52 18
M  V30 57 1 53 19
M  V30 58 1 54 19
M  V30 59 1 20 55 CFG=1
M  V30 60 1 56 21
M  V30 61 1 57 22
M  V30 62 1 58 22
M  V30 63 1 59 24
M  V30 64 1 60 24
M  V30 65 1 61 29
M  V30 66 1 62 30
M  V30 67 1 63 31
M  V30 68 1 64 31
M  V30 69 1 65 32
M  V30 70 1 66 32
M  V30 71 1 67 32
M  V30 72 1 68 33
M  V30 73 1 69 33
M  V30 74 1 17 70 CFG=3
M  V30 END BOND
M  V30 END CTAB
M  END
>  <i_epik_Tot_Q>  (1) 
1

>  <i_epik_Tot_abs_Q>  (1) 
1

>  <i_i_glide_confnum>  (1) 
54

>  <i_i_glide_lignum>  (1) 
3

>  <i_i_glide_posenum>  (1) 
227

>  <i_i_glide_rotatable_bonds>  (1) 
11

>  <i_lp_mmshare_version>  (1) 
72125

>  <i_m_source_file_index>  (1) 
1

>  <i_f3d_flags>  (1) 
0

>  <num_sample>  (1) 
50

>  <b_lp_Chiralities_Consistent>  (1) 
1

>  <r_epik_Charging_Adjusted_Penalty>  (1) 
0.41344222577729461

>  <r_epik_Ionization_Penalty>  (1) 
0.0027644559619576371

>  <r_epik_Ionization_Penalty_Charging>  (1) 
0.0027623868246906495

>  <r_epik_Ionization_Penalty_Neutral>  (1) 
2.0691372669875143e-06

>  <r_epik_State_Penalty>  (1) 
0.41067983895260396

>  <r_glide_ring_energy>  (1) 
1.2880141380397463

>  <r_i_docking_score>  (1) 
-4.491217808815672

>  <r_i_glide_ecoul>  (1) 
-2.9819930408184456

>  <r_i_glide_eff_state_penalty>  (1) 
0.41067983895260396

>  <r_i_glide_einternal>  (1) 
8.0188753106135504

>  <r_i_glide_emodel>  (1) 
-40.172726765916735

>  <r_i_glide_emodel_strain>  (1) 
1.5598239006840942

>  <r_i_glide_energy>  (1) 
-34.340845495506393

>  <r_i_glide_erotb>  (1) 
0.74142510397790429

>  <r_i_glide_esite>  (1) 
0

>  <r_i_glide_evdw>  (1) 
-31.358852454687948

>  <r_i_glide_gscore>  (1) 
-4.9018976477682763

>  <r_i_glide_gscore_strain>  (1) 
0

>  <r_i_glide_hbond>  (1) 
-0.16

>  <r_i_glide_ligand_efficiency>  (1) 
-0.13609750935805068

>  <r_i_glide_ligand_efficiency_ln>  (1) 
-0.99882358639933377

>  <r_i_glide_ligand_efficiency_sa>  (1) 
-0.43653743349287583

>  <r_i_glide_lipo>  (1) 
-2.1120465756231601

>  <r_i_glide_metal>  (1) 
-0

>  <r_i_glide_rewards>  (1) 
-1.3560345972658565

>  <r_lp_Energy>  (1) 
41.293589999999995

>  <r_lp_tautomer_probability>  (1) 
0.5

>  <s_epik_Chemistry_Notes>  (1) 
This compound has an imine and may undergo hydrolysis. This compound contains an acetal/aminal-like group ( X-CH(R)-Y where X, Y are N, S, or O) that may be acid/base labile, releasing an aldehyde.

>  <s_epik_cmdline>  (1) 
J2VwaWtfcHl0aG9uJywgJy1waHQnLCAnMS4wJywgJy1waCcsICc3LjQnLCAnLXRuJywgJzgnLCAnLW1hJywgJzUwMCcsICctaW1hZScsICc8aW5maWxlLm1hZT4nLCAnLW9tYWUnLCAnPG91dGZpbGUubWFlPic=

>  <s_epik_input>  (1) 
W0NIMl0xW0NIMl1bQ0gyXVtDSDJdW0NASF0oRilbQ0BIXTFbQ0gyXVtDSDJdTy9bQ0hdPVtDSF1cTihbQ0BIXTJPW0NIMl1bQ0gyXVtPSF0pW0NIMl1bQ0gyXU4zW0NAQEhdMltDSDJdW0NAQEhdKFtDQEBIXTM0KVtDQEBIXTRjNW5jKG9uNSlbTkhdW0NIM10=

>  <s_glide_docking_method>  (1) 
confgen

>  <s_i_glide_gridfile>  (1) 
gpcr_drd2_6luq_protein_autoprepared_prepared

>  <s_lp_Force_Field>  (1) 
S-OPLS

>  <s_lp_Variant>  (1) 
DiffSBDD_0-3

>  <s_m_source_file>  (1) 
generated_generic_title2_ligand_DiffSBDD_2026-06-23_prepared.sdf

>  <GenAI_Model>  (1) 
DiffSBDD

>  <Protein>  (1) 
generic_title2

$$$$
DiffSBDD_1
     RDKit          3D

  0  0  0  0  0  0  0  0  0  0999 V3000
M  V30 BEGIN CTAB
M  V30 COUNTS 90 92 0 0 1
M  V30 BEGIN ATOM
M  V30 1 O 9.614746 6.796779 -10.118862 0
M  V30 2 O 8.972119 5.990289 -7.254319 0
M  V30 3 C 7.422451 5.404208 -14.623016 0 CFG=2
M  V30 4 C 4.975401 6.171147 -15.200956 0
M  V30 5 C 4.635206 7.809057 -19.900599 0
M  V30 6 C 13.137896 8.459223 -3.331539 0
M  V30 7 C 7.923670 7.002494 -19.767977 0
M  V30 8 C 10.194559 6.630906 -7.000983 0 CFG=1
M  V30 9 C 7.462491 4.101844 -13.751001 0 CFG=1
M  V30 10 C 7.798887 5.407238 -17.758323 0 CFG=2
M  V30 11 C 4.230259 6.454554 -16.506336 0
M  V30 12 O 7.103432 0.145212 -14.800454 0 CHG=-1
M  V30 13 C 4.777632 6.571132 -18.985960 0
M  V30 14 C 7.400555 6.672557 -13.741648 0
M  V30 15 C 10.366699 7.756841 -8.039290 0
M  V30 16 C 6.986692 7.344419 -20.944480 0
M  V30 17 C 6.213599 5.388496 -15.608763 0 CFG=1
M  V30 18 C 5.901276 8.375336 -20.573640 0
M  V30 19 C 10.200838 7.141881 -5.558770 0
M  V30 20 C 8.506984 5.487671 -11.822995 0 CFG=2
M  V30 21 C 11.375841 6.881316 -2.564496 0
M  V30 22 F 9.141925 5.059212 -19.649623 0
M  V30 23 C 11.755072 7.946996 -3.620833 0
M  V30 24 C 8.515392 6.724370 -12.718262 0
M  V30 25 C 11.595030 8.190196 -10.230193 0
M  V30 26 F 8.114735 4.141761 -17.478574 0
M  V30 27 O 8.917887 0.949895 -13.185036 0
M  V30 28 O 6.425976 1.333207 -12.634116 0
M  V30 29 P 7.356047 1.169731 -13.768579 0
M  V30 30 C 11.621192 7.424870 -5.061630 0
M  V30 31 C 10.778046 7.203699 -9.405421 0 CFG=2
M  V30 32 C 6.378835 5.612250 -17.141936 0 CFG=1
M  V30 33 O 5.775409 7.990211 -17.185004 0
M  V30 34 C 9.716844 5.611325 -10.902649 0
M  V30 35 C 7.615365 2.815244 -14.630331 0
M  V30 36 C 5.342694 6.704010 -17.536258 0 CFG=2
M  V30 37 C 8.573530 4.194602 -12.675332 0
M  V30 38 C 7.949671 5.540433 -19.293795 0 CFG=2
M  V30 39 H 8.631495 5.640451 -6.447139 0
M  V30 40 H 8.358331 5.419994 -15.174377 0
M  V30 41 H 4.419210 5.590235 -14.458996 0
M  V30 42 H 5.192118 7.146511 -14.769909 0
M  V30 43 H 4.000989 7.507578 -20.733386 0
M  V30 44 H 4.073646 8.597451 -19.398827 0
M  V30 45 H 13.775416 7.588350 -3.352759 0
M  V30 46 H 13.464970 9.180575 -4.080826 0
M  V30 47 H 13.219386 8.918076 -2.345159 0
M  V30 48 H 8.935370 7.332775 -20.010158 0
M  V30 49 H 7.657771 7.590242 -18.904004 0
M  V30 50 H 10.975616 5.877145 -7.102252 0
M  V30 51 H 6.511652 4.028571 -13.219497 0
M  V30 52 H 8.559743 5.990238 -17.253988 0
M  V30 53 H 3.633785 5.590234 -16.785026 0
M  V30 54 H 3.537535 7.294309 -16.421484 0
M  V30 55 H 5.277816 5.780547 -19.534024 0
M  V30 56 H 3.775408 6.163215 -18.897123 0
M  V30 57 H 6.481752 6.718159 -13.157457 0
M  V30 58 H 7.439596 7.567319 -14.366080 0
M  V30 59 H 9.457052 8.356547 -8.125823 0
M  V30 60 H 11.140641 8.443367 -7.699071 0
M  V30 61 H 6.541926 6.452671 -21.387317 0
M  V30 62 H 7.597147 7.779246 -21.736970 0
M  V30 63 H 5.820493 4.401228 -15.498606 0
M  V30 64 H 5.577151 8.869217 -21.490973 0
M  V30 65 H 6.330038 9.182153 -19.985050 0
M  V30 66 H 9.571881 8.026064 -5.504309 0
M  V30 67 H 9.772723 6.382902 -4.907286 0
M  V30 68 H 7.594175 5.477421 -11.224573 0
M  V30 69 H 12.125468 6.091919 -2.495946 0
M  V30 70 H 11.296172 7.344472 -1.583735 0
M  V30 71 H 10.424913 6.389857 -2.761390 0
M  V30 72 H 11.131235 8.837238 -3.555847 0
M  V30 73 H 8.406478 7.631698 -12.121925 0
M  V30 74 H 9.488992 6.789116 -13.185016 0
M  V30 75 H 12.526348 8.455845 -9.727755 0
M  V30 76 H 11.851075 7.749489 -11.191047 0
M  V30 77 H 11.032881 9.104482 -10.384987 0
M  V30 78 H 8.901064 1.067714 -12.242390 0
M  V30 79 H 12.175383 6.493302 -5.155582 0
M  V30 80 H 12.067347 8.160768 -5.728807 0
M  V30 81 H 11.439967 6.390155 -9.185109 0
M  V30 82 H 5.870260 4.788819 -17.605285 0
M  V30 83 H 5.070697 8.602415 -17.340749 0
M  V30 84 H 10.575403 5.652617 -11.574098 0
M  V30 85 H 9.776378 4.737524 -10.254353 0
M  V30 86 H 6.921241 2.766126 -15.461652 0
M  V30 87 H 8.575422 2.824769 -15.126530 0
M  V30 88 H 9.543819 4.140384 -13.169839 0
M  V30 89 H 8.523987 3.330650 -12.011131 0
M  V30 90 H 7.227030 4.911838 -19.812584 0
M  V30 END ATOM
M  V30 BEGIN BOND
M  V30 1 1 8 2
M  V30 2 1 9 3
M  V30 3 1 11 4
M  V30 4 1 13 5
M  V30 5 1 14 3
M  V30 6 1 15 8
M  V30 7 1 16 7
M  V30 8 1 17 3
M  V30 9 1 17 4
M  V30 10 1 18 5
M  V30 11 1 18 16
M  V30 12 1 19 8
M  V30 13 1 23 6
M  V30 14 1 23 21
M  V30 15 1 24 14
M  V30 16 1 24 20
M  V30 17 1 26 10
M  V30 18 1 29 12
M  V30 19 1 29 27
M  V30 20 2 29 28
M  V30 21 1 30 19
M  V30 22 1 30 23
M  V30 23 1 31 1
M  V30 24 1 31 15
M  V30 25 1 31 25
M  V30 26 1 32 10
M  V30 27 1 32 17
M  V30 28 1 34 1
M  V30 29 1 34 20
M  V30 30 1 35 9
M  V30 31 1 35 29
M  V30 32 1 36 11
M  V30 33 1 36 13
M  V30 34 1 36 32
M  V30 35 1 36 33 CFG=3
M  V30 36 1 37 9
M  V30 37 1 37 20
M  V30 38 1 38 7
M  V30 39 1 38 10
M  V30 40 1 38 22
M  V30 41 1 39 2
M  V30 42 1 3 40 CFG=3
M  V30 43 1 41 4
M  V30 44 1 42 4
M  V30 45 1 43 5
M  V30 46 1 44 5
M  V30 47 1 45 6
M  V30 48 1 46 6
M  V30 49 1 47 6
M  V30 50 1 48 7
M  V30 51 1 49 7
M  V30 52 1 8 50 CFG=1
M  V30 53 1 9 51 CFG=1
M  V30 54 1 10 52 CFG=1
M  V30 55 1 53 11
M  V30 56 1 54 11
M  V30 57 1 55 13
M  V30 58 1 56 13
M  V30 59 1 57 14
M  V30 60 1 58 14
M  V30 61 1 59 15
M  V30 62 1 60 15
M  V30 63 1 61 16
M  V30 64 1 62 16
M  V30 65 1 17 63 CFG=3
M  V30 66 1 64 18
M  V30 67 1 65 18
M  V30 68 1 66 19
M  V30 69 1 67 19
M  V30 70 1 20 68 CFG=1
M  V30 71 1 69 21
M  V30 72 1 70 21
M  V30 73 1 71 21
M  V30 74 1 72 23
M  V30 75 1 73 24
M  V30 76 1 74 24
M  V30 77 1 75 25
M  V30 78 1 76 25
M  V30 79 1 77 25
M  V30 80 1 78 27
M  V30 81 1 79 30
M  V30 82 1 80 30
M  V30 83 1 31 81 CFG=1
M  V30 84 1 32 82 CFG=3
M  V30 85 1 83 33
M  V30 86 1 84 34
M  V30 87 1 85 34
M  V30 88 1 86 35
M  V30 89 1 87 35
M  V30 90 1 88 37
M  V30 91 1 89 37
M  V30 92 1 38 90 CFG=3
M  V30 END BOND
M  V30 END CTAB
M  END
>  <i_epik_Tot_Q>  (1) 
-1

>  <i_epik_Tot_abs_Q>  (1) 
1

>  <i_i_glide_confnum>  (1) 
179

>  <i_i_glide_lignum>  (1) 
18

>  <i_i_glide_posenum>  (1) 
26

>  <i_i_glide_rotatable_bonds>  (1) 
14

>  <i_lp_mmshare_version>  (1) 
72125

>  <i_m_source_file_index>  (1) 
2

>  <i_f3d_flags>  (1) 
0

>  <num_sample>  (1) 
50

>  <b_lp_Chiralities_Consistent>  (1) 
1

>  <r_epik_Charging_Adjusted_Penalty>  (1) 
0.13318820565599726

>  <r_epik_Ionization_Penalty>  (1) 
0.13318880763099702

>  <r_epik_Ionization_Penalty_Charging>  (1) 
1.1004593090013429e-05

>  <r_epik_Ionization_Penalty_Neutral>  (1) 
0.13317780303790702

>  <r_epik_State_Penalty>  (1) 
0.13317720106290726

>  <r_glide_ring_energy>  (1) 
0

>  <r_i_docking_score>  (1) 
-4.4852539626560377

>  <r_i_glide_ecoul>  (1) 
0.40981465258607752

>  <r_i_glide_eff_state_penalty>  (1) 
0.13317720106290726

>  <r_i_glide_einternal>  (1) 
20.213584027201705

>  <r_i_glide_emodel>  (1) 
-8.0823854484022348

>  <r_i_glide_emodel_strain>  (1) 
1.0955590283131329

>  <r_i_glide_energy>  (1) 
-16.469858185721407

>  <r_i_glide_erotb>  (1) 
0.56507953808565226

>  <r_i_glide_esite>  (1) 
0

>  <r_i_glide_evdw>  (1) 
-16.879672838307485

>  <r_i_glide_gscore>  (1) 
-4.6184311637189452

>  <r_i_glide_gscore_strain>  (1) 
0

>  <r_i_glide_hbond>  (1) 
-0.276529656538195

>  <r_i_glide_ligand_efficiency>  (1) 
-0.11803299901726415

>  <r_i_glide_ligand_efficiency_ln>  (1) 
-0.96715269715240493

>  <r_i_glide_ligand_efficiency_sa>  (1) 
-0.39682403988676834

>  <r_i_glide_lipo>  (1) 
-3.4137980200317766

>  <r_i_glide_metal>  (1) 
-0

>  <r_i_glide_rewards>  (1) 
-0.71067158120716289

>  <r_lp_Energy>  (1) 
45.276491999999998

>  <s_epik_cmdline>  (1) 
J2VwaWtfcHl0aG9uJywgJy1waHQnLCAnMS4wJywgJy1waCcsICc3LjQnLCAnLXRuJywgJzgnLCAnLW1hJywgJzUwMCcsICctaW1hZScsICc8aW5maWxlLm1hZT4nLCAnLW9tYWUnLCAnPG91dGZpbGUubWFlPic=

>  <s_epik_input>  (1) 
W0NIM11bQ0hdKFtDSDNdKVtDSDJdW0NIMl1bQ0BASF0oW09IXSlbQ0gyXVtDQEhdKFtDSDNdKU9bQ0gyXVtDQEBIXShbQ0gyXVtDSDJdMSlbQ0gyXVtDQEhdKFtDSDJdUCg9TykoW09IXSlbT0hdKVtDQEhdMVtDQEBIXShbQ0gyXVtDSDJdMilbQ0BASF0oW0NAXTIzW09IXSlbQ0BASF0oRilbQ0BIXShGKVtDSDJdW0NIMl1bQ0gyXVtDSDJdW0NIMl0z

>  <s_glide_docking_method>  (1) 
confgen

>  <s_i_glide_gridfile>  (1) 
gpcr_drd2_6luq_protein_autoprepared_prepared

>  <s_lp_Force_Field>  (1) 
S-OPLS

>  <s_lp_Variant>  (1) 
DiffSBDD_1-2

>  <s_m_source_file>  (1) 
generated_generic_title2_ligand_DiffSBDD_2026-06-23_prepared.sdf

>  <GenAI_Model>  (1) 
DiffSBDD

>  <Protein>  (1) 
generic_title2

$$$$
DiffSBDD_39
     RDKit          3D

  0  0  0  0  0  0  0  0  0  0999 V3000
M  V30 BEGIN CTAB
M  V30 COUNTS 69 72 0 0 1
M  V30 BEGIN ATOM
M  V30 1 C 9.434420 8.281220 -10.640998 0
M  V30 2 F 9.431950 5.990230 -5.176081 0
M  V30 3 F 11.246525 5.871201 -6.326600 0
M  V30 4 C 6.434262 5.474800 -18.466362 0
M  V30 5 C 8.139662 7.436138 -12.684319 0
M  V30 6 C 8.228860 4.991748 -13.373698 0 CFG=1
M  V30 7 O 7.778707 5.274889 -18.849826 0
M  V30 8 C 11.031715 9.033628 -6.339582 0 CFG=2
M  V30 9 C 9.774371 5.553444 -9.816169 0
M  V30 10 C 6.963193 6.775068 -14.763624 0 CFG=2
M  V30 11 O 10.976444 9.991545 -4.104851 0
M  V30 12 C 10.757424 6.655632 -9.389754 0
M  V30 13 N 10.166797 7.993811 -9.359353 0 CFG=1 CHG=1
M  V30 14 C 11.375455 6.893032 -4.289232 0
M  V30 15 C 8.656893 7.074533 -11.300837 0 CFG=1
M  V30 16 C 11.260606 8.974143 -9.005762 0
M  V30 17 O 12.183188 8.057886 -4.384482 0
M  V30 18 C 8.645942 4.639397 -11.931376 0
M  V30 19 N 7.508480 6.307323 -13.443481 0 CFG=2 CHG=1
M  V30 20 C 6.374234 6.411884 -17.245509 0 CFG=1
M  V30 21 C 4.959771 6.972595 -17.004029 0
M  V30 22 C 11.932763 8.827924 -7.580643 0
M  V30 23 C 9.454549 5.782209 -11.289601 0 CFG=2
M  V30 24 C 11.765643 9.242187 -4.985823 0 CFG=1
M  V30 25 C 10.064784 7.896263 -6.254353 0
M  V30 26 C 4.978555 7.944167 -15.817251 0
M  V30 27 C 10.521382 6.643500 -5.526261 0
M  V30 28 O 8.968896 7.965235 -6.784994 0
M  V30 29 C 5.519007 7.231147 -14.561816 0
M  V30 30 O 9.379273 5.190324 -14.168228 0
M  V30 31 C 6.973965 5.778042 -15.958576 0
M  V30 32 H 10.175739 8.608007 -11.364470 0
M  V30 33 H 8.761385 9.125239 -10.482871 0
M  V30 34 H 5.906434 5.913006 -19.314988 0
M  V30 35 H 5.970787 4.511167 -18.264214 0
M  V30 36 H 8.980835 7.865886 -13.185027 0
M  V30 37 H 7.417687 8.245704 -12.582660 0
M  V30 38 H 7.616666 4.187370 -13.786335 0
M  V30 39 H 8.146594 6.105590 -19.111255 0
M  V30 40 H 10.465140 9.948426 -6.494056 0
M  V30 41 H 10.175312 4.555262 -9.663781 0
M  V30 42 H 8.874772 5.584096 -9.194327 0
M  V30 43 H 7.537006 7.647785 -15.061268 0
M  V30 44 H 11.480014 10.135277 -3.316200 0
M  V30 45 H 11.588525 6.790186 -10.084921 0
M  V30 46 H 11.193123 6.385969 -8.444751 0
M  V30 47 H 10.819633 6.790228 -3.363702 0
M  V30 48 H 12.079305 6.065604 -4.187369 0
M  V30 49 H 7.764145 6.790238 -10.785040 0
M  V30 50 H 12.060947 8.866532 -9.739260 0
M  V30 51 H 10.946404 9.989414 -9.185104 0
M  V30 52 H 9.232247 3.718093 -11.922735 0
M  V30 53 H 7.752448 4.435418 -11.338273 0
M  V30 54 H 6.975788 7.275790 -17.501173 0
M  V30 55 H 4.610981 7.499543 -17.893196 0
M  V30 56 H 4.247193 6.167294 -16.828523 0
M  V30 57 H 12.469083 7.884090 -7.503858 0
M  V30 58 H 12.721288 9.563144 -7.491691 0
M  V30 59 H 10.377577 5.912718 -11.856911 0
M  V30 60 H 12.671623 9.831813 -5.138479 0
M  V30 61 H 5.624093 8.789916 -16.061229 0
M  V30 62 H 3.994490 8.385809 -15.650550 0
M  V30 63 H 5.391808 7.874209 -13.695050 0
M  V30 64 H 4.975347 6.321409 -14.334456 0
M  V30 65 H 10.028486 4.535259 -13.941538 0
M  V30 66 H 6.416805 4.878270 -15.703363 0
M  V30 67 H 7.988188 5.458324 -16.189590 0
M  V30 68 H 9.463414 7.999546 -8.623997 0
M  V30 69 H 6.673776 6.104893 -12.915059 0
M  V30 END ATOM
M  V30 BEGIN BOND
M  V30 1 1 7 4
M  V30 2 1 12 9
M  V30 3 1 13 1
M  V30 4 1 13 12
M  V30 5 1 15 1
M  V30 6 1 15 5
M  V30 7 1 16 13
M  V30 8 1 17 14
M  V30 9 1 18 6
M  V30 10 1 19 5
M  V30 11 1 19 6
M  V30 12 1 19 10
M  V30 13 1 20 4
M  V30 14 1 21 20
M  V30 15 1 22 8
M  V30 16 1 22 16
M  V30 17 1 23 9
M  V30 18 1 23 15
M  V30 19 1 23 18
M  V30 20 1 24 8
M  V30 21 1 24 11
M  V30 22 1 24 17
M  V30 23 1 25 8
M  V30 24 1 26 21
M  V30 25 1 27 2
M  V30 26 1 27 3
M  V30 27 1 27 14
M  V30 28 1 27 25
M  V30 29 2 28 25
M  V30 30 1 29 10
M  V30 31 1 29 26
M  V30 32 1 30 6
M  V30 33 1 31 10
M  V30 34 1 31 20
M  V30 35 1 32 1
M  V30 36 1 33 1
M  V30 37 1 34 4
M  V30 38 1 35 4
M  V30 39 1 36 5
M  V30 40 1 37 5
M  V30 41 1 6 38 CFG=3
M  V30 42 1 39 7
M  V30 43 1 8 40 CFG=3
M  V30 44 1 41 9
M  V30 45 1 42 9
M  V30 46 1 10 43 CFG=3
M  V30 47 1 44 11
M  V30 48 1 45 12
M  V30 49 1 46 12
M  V30 50 1 47 14
M  V30 51 1 48 14
M  V30 52 1 15 49 CFG=1
M  V30 53 1 50 16
M  V30 54 1 51 16
M  V30 55 1 52 18
M  V30 56 1 53 18
M  V30 57 1 20 54 CFG=3
M  V30 58 1 55 21
M  V30 59 1 56 21
M  V30 60 1 57 22
M  V30 61 1 58 22
M  V30 62 1 23 59 CFG=3
M  V30 63 1 24 60 CFG=3
M  V30 64 1 61 26
M  V30 65 1 62 26
M  V30 66 1 63 29
M  V30 67 1 64 29
M  V30 68 1 65 30
M  V30 69 1 66 31
M  V30 70 1 67 31
M  V30 71 1 13 68 CFG=1
M  V30 72 1 19 69 CFG=1
M  V30 END BOND
M  V30 END CTAB
M  END
>  <i_epik_Tot_Q>  (1) 
2

>  <i_epik_Tot_abs_Q>  (1) 
2

>  <i_i_glide_confnum>  (1) 
9

>  <i_i_glide_lignum>  (1) 
113

>  <i_i_glide_posenum>  (1) 
263

>  <i_i_glide_rotatable_bonds>  (1) 
8

>  <i_lp_mmshare_version>  (1) 
72125

>  <i_m_source_file_index>  (1) 
40

>  <i_f3d_flags>  (1) 
0

>  <num_sample>  (1) 
50

>  <b_lp_Chiralities_Consistent>  (1) 
1

>  <r_epik_Charging_Adjusted_Penalty>  (1) 
1.743801429740254

>  <r_epik_Ionization_Penalty>  (1) 
1.6051069046209219

>  <r_epik_Ionization_Penalty_Charging>  (1) 
0.6098477401054202

>  <r_epik_Ionization_Penalty_Neutral>  (1) 
0.99525916451550167

>  <r_epik_State_Penalty>  (1) 
1.1339536896348337

>  <r_glide_ring_energy>  (1) 
1.2534239858202507

>  <r_i_docking_score>  (1) 
-4.4730535409687064

>  <r_i_glide_ecoul>  (1) 
-3.9462617674851659

>  <r_i_glide_eff_state_penalty>  (1) 
1.1339536896348337

>  <r_i_glide_einternal>  (1) 
7.7973075582456115

>  <r_i_glide_emodel>  (1) 
-20.189310068167028

>  <r_i_glide_emodel_strain>  (1) 
5.4309021948153884

>  <r_i_glide_energy>  (1) 
-21.970354505377387

>  <r_i_glide_erotb>  (1) 
0.49785121930328097

>  <r_i_glide_esite>  (1) 
-0.070684828894325188

>  <r_i_glide_evdw>  (1) 
-18.024092737892222

>  <r_i_glide_gscore>  (1) 
-5.6070072306035401

>  <r_i_glide_gscore_strain>  (1) 
0.3577255487038471

>  <r_i_glide_hbond>  (1) 
-0.13628372693528085

>  <r_i_glide_ligand_efficiency>  (1) 
-0.14429204970866796

>  <r_i_glide_ligand_efficiency_ln>  (1) 
-1.0088106561164729

>  <r_i_glide_ligand_efficiency_sa>  (1) 
-0.45327625324870674

>  <r_i_glide_lipo>  (1) 
-2.5466513682032632

>  <r_i_glide_metal>  (1) 
-0

>  <r_i_glide_rewards>  (1) 
-2.215820172560413

>  <r_lp_Energy>  (1) 
47.174439

>  <r_lp_tautomer_probability>  (1) 
0.99995000000000001

>  <s_epik_Chemistry_Notes>  (1) 
This compound contains an acetal/aminal-like group ( X-CH(R)-Y where X, Y are N, S, or O) that may be acid/base labile, releasing an aldehyde.

>  <s_epik_cmdline>  (1) 
J2VwaWtfcHl0aG9uJywgJy1waHQnLCAnMS4wJywgJy1waCcsICc3LjQnLCAnLXRuJywgJzgnLCAnLW1hJywgJzUwMCcsICctaW1hZScsICc8aW5maWxlLm1hZT4nLCAnLW9tYWUnLCAnPG91dGZpbGUubWFlPic=

>  <s_epik_input>  (1) 
RkMxKEYpW0NIMl1PW0NASF0oW09IXSlbQ0BIXShDMT1PKVtDSDJdW0NIMl1OKFtDSDJdMilbQ0gyXVtDSDJdW0NASF0oW0NAQEhdMjMpW0NIMl1bQ0BIXShbT0hdKU4oW0NIMl0zKVtDQEBIXTRbQ0gyXVtDSDJdW0NIMl1bQ0BASF0oW0NIMl00KVtDSDJdW09IXQ==

>  <s_glide_docking_method>  (1) 
confgen

>  <s_i_glide_gridfile>  (1) 
gpcr_drd2_6luq_protein_autoprepared_prepared

>  <s_lp_Force_Field>  (1) 
S-OPLS

>  <s_lp_Variant>  (1) 
DiffSBDD_39-9

>  <s_m_source_file>  (1) 
generated_generic_title2_ligand_DiffSBDD_2026-06-23_prepared.sdf

>  <GenAI_Model>  (1) 
DiffSBDD

>  <Protein>  (1) 
generic_title2

$$$$
DiffSBDD_1
     RDKit          3D

  0  0  0  0  0  0  0  0  0  0999 V3000
M  V30 BEGIN CTAB
M  V30 COUNTS 90 92 0 0 1
M  V30 BEGIN ATOM
M  V30 1 O 7.046662 6.114984 -12.770965 0
M  V30 2 O 10.967868 7.190251 -11.069294 0
M  V30 3 C 7.639303 2.763572 -16.755045 0 CFG=2
M  V30 4 C 9.685956 1.509162 -17.783255 0
M  V30 5 C 7.903809 -3.106003 -18.499368 0
M  V30 6 C 9.942129 6.993330 -5.879092 0
M  V30 7 C 4.814290 -1.507267 -18.125963 0
M  V30 8 C 9.758367 7.169155 -10.334163 0 CFG=1
M  V30 9 C 8.312019 4.142230 -16.463227 0 CFG=1
M  V30 10 C 5.919254 0.848009 -18.444856 0 CFG=2
M  V30 11 C 9.695917 -0.014646 -17.979565 0
M  V30 12 O 7.342355 6.617788 -19.651809 0 CHG=-1
M  V30 13 C 8.091366 -1.690172 -19.084482 0
M  V30 14 C 7.618184 1.908719 -15.454816 0
M  V30 15 C 8.764986 6.213267 -11.022082 0
M  V30 16 C 5.298210 -2.877336 -18.649913 0
M  V30 17 C 8.239844 1.999335 -17.991464 0 CFG=1
M  V30 18 C 6.521455 -3.433220 -17.898158 0
M  V30 19 C 10.037861 6.784925 -8.877170 0
M  V30 20 C 7.677600 4.039948 -13.990659 0 CFG=2
M  V30 21 C 11.715859 8.790249 -5.948193 0
M  V30 22 F 3.827623 0.244631 -19.185069 0
M  V30 23 C 11.133424 7.558216 -6.662612 0
M  V30 24 C 7.122336 2.623007 -14.191647 0
M  V30 25 C 8.103621 8.167515 -12.595149 0
M  V30 26 F 5.597554 1.945587 -19.132356 0
M  V30 27 O 6.066235 4.600104 -18.785027 0
M  V30 28 O 6.234747 6.721928 -17.347483 0
M  V30 29 P 6.963253 5.959841 -18.384422 0
M  V30 30 C 10.753411 7.911762 -8.110457 0
M  V30 31 C 8.316322 6.654981 -12.435231 0 CFG=2
M  V30 32 C 7.472019 0.770816 -18.570104 0 CFG=1
M  V30 33 O 7.793470 -0.829041 -16.800634 0
M  V30 34 C 6.908098 4.705165 -12.831064 0
M  V30 35 C 8.499143 5.119585 -17.662723 0
M  V30 36 C 8.231661 -0.493220 -18.096951 0 CFG=2
M  V30 37 C 7.563236 4.831209 -15.303393 0
M  V30 38 C 5.043509 -0.281609 -19.041886 0 CFG=2
M  V30 39 H 10.758596 7.364165 -11.974392 0
M  V30 40 H 6.605145 2.989293 -16.995374 0
M  V30 41 H 10.349289 1.982279 -18.508070 0
M  V30 42 H 10.082301 1.775892 -16.805619 0
M  V30 43 H 8.080332 -3.813907 -19.309902 0
M  V30 44 H 8.674403 -3.316560 -17.757089 0
M  V30 45 H 9.071529 7.642551 -5.984976 0
M  V30 46 H 9.658316 6.004982 -6.240053 0
M  V30 47 H 10.175404 6.884582 -4.819754 0
M  V30 48 H 3.738575 -1.609751 -17.984994 0
M  V30 49 H 5.180047 -1.311531 -17.118094 0
M  V30 50 H 9.339858 8.174784 -10.312821 0
M  V30 51 H 9.322859 3.935674 -16.110626 0
M  V30 52 H 5.607432 1.022638 -17.416925 0
M  V30 53 H 10.247593 -0.214118 -18.898295 0
M  V30 54 H 10.239311 -0.528066 -17.185048 0
M  V30 55 H 7.298551 -1.503600 -19.801139 0
M  V30 56 H 8.969424 -1.724825 -19.728904 0
M  V30 57 H 8.595924 1.489495 -15.242438 0
M  V30 58 H 6.950853 1.062917 -15.585540 0
M  V30 59 H 9.197769 5.213307 -11.073850 0
M  V30 60 H 7.882310 6.104688 -10.392544 0
M  V30 61 H 5.446200 -2.881625 -19.729823 0
M  V30 62 H 4.483465 -3.583294 -18.480834 0
M  V30 63 H 8.243218 2.711191 -18.814470 0
M  V30 64 H 6.436042 -4.519772 -17.858159 0
M  V30 65 H 6.468189 -3.124650 -16.856304 0
M  V30 66 H 9.076799 6.595134 -8.397302 0
M  V30 67 H 10.593387 5.850779 -8.817354 0
M  V30 68 H 8.732760 3.977241 -13.721608 0
M  V30 69 H 10.976043 9.588439 -5.875609 0
M  V30 70 H 12.036285 8.546670 -4.934683 0
M  V30 71 H 12.578861 9.190211 -6.482076 0
M  V30 72 H 11.900663 6.784254 -6.696171 0
M  V30 73 H 7.346977 2.010460 -13.317400 0
M  V30 74 H 6.039998 2.673371 -14.234647 0
M  V30 75 H 9.012244 8.741328 -12.418867 0
M  V30 76 H 7.775409 8.391080 -13.609280 0
M  V30 77 H 7.340158 8.531155 -11.906537 0
M  V30 78 H 6.266112 4.411708 -19.686978 0
M  V30 79 H 11.656098 8.202155 -8.649746 0
M  V30 80 H 10.106776 8.790236 -8.108561 0
M  V30 81 H 9.064471 6.337832 -13.161710 0
M  V30 82 H 7.666209 0.809999 -19.644076 0
M  V30 83 H 8.127234 -1.682065 -16.554510 0
M  V30 84 H 7.163682 4.239630 -11.878910 0
M  V30 85 H 5.839007 4.534381 -12.961462 0
M  V30 86 H 9.154611 5.921998 -17.325298 0
M  V30 87 H 9.067525 4.649881 -18.462158 0
M  V30 88 H 6.508550 4.951966 -15.551136 0
M  V30 89 H 7.960105 5.837094 -15.167983 0
M  V30 90 H 5.345377 -0.548819 -20.053926 0
M  V30 END ATOM
M  V30 BEGIN BOND
M  V30 1 1 8 2
M  V30 2 1 9 3
M  V30 3 1 11 4
M  V30 4 1 13 5
M  V30 5 1 14 3
M  V30 6 1 15 8
M  V30 7 1 16 7
M  V30 8 1 17 3
M  V30 9 1 17 4
M  V30 10 1 18 5
M  V30 11 1 18 16
M  V30 12 1 19 8
M  V30 13 1 23 6
M  V30 14 1 23 21
M  V30 15 1 24 14
M  V30 16 1 24 20
M  V30 17 1 26 10
M  V30 18 1 29 12
M  V30 19 1 29 27
M  V30 20 2 29 28
M  V30 21 1 30 19
M  V30 22 1 30 23
M  V30 23 1 31 1
M  V30 24 1 31 15
M  V30 25 1 31 25
M  V30 26 1 32 10
M  V30 27 1 32 17
M  V30 28 1 34 1
M  V30 29 1 34 20
M  V30 30 1 35 9
M  V30 31 1 35 29
M  V30 32 1 36 11
M  V30 33 1 36 13
M  V30 34 1 36 32
M  V30 35 1 36 33 CFG=1
M  V30 36 1 37 9
M  V30 37 1 37 20
M  V30 38 1 38 7
M  V30 39 1 38 10
M  V30 40 1 38 22
M  V30 41 1 39 2
M  V30 42 1 3 40 CFG=3
M  V30 43 1 41 4
M  V30 44 1 42 4
M  V30 45 1 43 5
M  V30 46 1 44 5
M  V30 47 1 45 6
M  V30 48 1 46 6
M  V30 49 1 47 6
M  V30 50 1 48 7
M  V30 51 1 49 7
M  V30 52 1 8 50 CFG=1
M  V30 53 1 9 51 CFG=1
M  V30 54 1 10 52 CFG=1
M  V30 55 1 53 11
M  V30 56 1 54 11
M  V30 57 1 55 13
M  V30 58 1 56 13
M  V30 59 1 57 14
M  V30 60 1 58 14
M  V30 61 1 59 15
M  V30 62 1 60 15
M  V30 63 1 61 16
M  V30 64 1 62 16
M  V30 65 1 17 63 CFG=3
M  V30 66 1 64 18
M  V30 67 1 65 18
M  V30 68 1 66 19
M  V30 69 1 67 19
M  V30 70 1 20 68 CFG=1
M  V30 71 1 69 21
M  V30 72 1 70 21
M  V30 73 1 71 21
M  V30 74 1 72 23
M  V30 75 1 73 24
M  V30 76 1 74 24
M  V30 77 1 75 25
M  V30 78 1 76 25
M  V30 79 1 77 25
M  V30 80 1 78 27
M  V30 81 1 79 30
M  V30 82 1 80 30
M  V30 83 1 31 81 CFG=3
M  V30 84 1 32 82 CFG=3
M  V30 85 1 83 33
M  V30 86 1 84 34
M  V30 87 1 85 34
M  V30 88 1 86 35
M  V30 89 1 87 35
M  V30 90 1 88 37
M  V30 91 1 89 37
M  V30 92 1 38 90 CFG=3
M  V30 END BOND
M  V30 END CTAB
M  END
>  <i_epik_Tot_Q>  (1) 
-1

>  <i_epik_Tot_abs_Q>  (1) 
1

>  <i_i_glide_confnum>  (1) 
1607

>  <i_i_glide_lignum>  (1) 
18

>  <i_i_glide_posenum>  (1) 
195

>  <i_i_glide_rotatable_bonds>  (1) 
14

>  <i_lp_mmshare_version>  (1) 
72125

>  <i_m_source_file_index>  (1) 
2

>  <i_f3d_flags>  (1) 
0

>  <num_sample>  (1) 
50

>  <b_lp_Chiralities_Consistent>  (1) 
1

>  <r_epik_Charging_Adjusted_Penalty>  (1) 
0.13318820565599726

>  <r_epik_Ionization_Penalty>  (1) 
0.13318880763099702

>  <r_epik_Ionization_Penalty_Charging>  (1) 
1.1004593090013429e-05

>  <r_epik_Ionization_Penalty_Neutral>  (1) 
0.13317780303790702

>  <r_epik_State_Penalty>  (1) 
0.13317720106290726

>  <r_glide_ring_energy>  (1) 
0

>  <r_i_docking_score>  (1) 
-4.4665223552195448

>  <r_i_glide_ecoul>  (1) 
-2.4772816802179425

>  <r_i_glide_eff_state_penalty>  (1) 
0.13317720106290726

>  <r_i_glide_einternal>  (1) 
16.586545197698953

>  <r_i_glide_emodel>  (1) 
-30.994001698526013

>  <r_i_glide_emodel_strain>  (1) 
1.3590518551694686

>  <r_i_glide_energy>  (1) 
-37.842864537625502

>  <r_i_glide_erotb>  (1) 
0.56507953808565226

>  <r_i_glide_esite>  (1) 
0

>  <r_i_glide_evdw>  (1) 
-35.36558285740756

>  <r_i_glide_gscore>  (1) 
-4.5996995562824523

>  <r_i_glide_gscore_strain>  (1) 
0

>  <r_i_glide_hbond>  (1) 
-0.11499011203749895

>  <r_i_glide_ligand_efficiency>  (1) 
-0.11754006197946171

>  <r_i_glide_ligand_efficiency_ln>  (1) 
-0.96311361156103381

>  <r_i_glide_ligand_efficiency_sa>  (1) 
-0.39516679768857621

>  <r_i_glide_lipo>  (1) 
-2.0949690909716341

>  <r_i_glide_metal>  (1) 
-0

>  <r_i_glide_rewards>  (1) 
-0.81494849645590239

>  <r_lp_Energy>  (1) 
45.276491999999998

>  <s_epik_cmdline>  (1) 
J2VwaWtfcHl0aG9uJywgJy1waHQnLCAnMS4wJywgJy1waCcsICc3LjQnLCAnLXRuJywgJzgnLCAnLW1hJywgJzUwMCcsICctaW1hZScsICc8aW5maWxlLm1hZT4nLCAnLW9tYWUnLCAnPG91dGZpbGUubWFlPic=

>  <s_epik_input>  (1) 
W0NIM11bQ0hdKFtDSDNdKVtDSDJdW0NIMl1bQ0BASF0oW09IXSlbQ0gyXVtDQEhdKFtDSDNdKU9bQ0gyXVtDQEBIXShbQ0gyXVtDSDJdMSlbQ0gyXVtDQEhdKFtDSDJdUCg9TykoW09IXSlbT0hdKVtDQEhdMVtDQEBIXShbQ0gyXVtDSDJdMilbQ0BASF0oW0NAXTIzW09IXSlbQ0BASF0oRilbQ0BIXShGKVtDSDJdW0NIMl1bQ0gyXVtDSDJdW0NIMl0z

>  <s_glide_docking_method>  (1) 
confgen

>  <s_i_glide_gridfile>  (1) 
gpcr_drd2_6luq_protein_autoprepared_prepared

>  <s_lp_Force_Field>  (1) 
S-OPLS

>  <s_lp_Variant>  (1) 
DiffSBDD_1-2

>  <s_m_source_file>  (1) 
generated_generic_title2_ligand_DiffSBDD_2026-06-23_prepared.sdf

>  <GenAI_Model>  (1) 
DiffSBDD

>  <Protein>  (1) 
generic_title2

$$$$
DiffSBDD_25
     RDKit          3D

  0  0  0  0  0  0  0  0  0  0999 V3000
M  V30 BEGIN CTAB
M  V30 COUNTS 44 46 0 0 1
M  V30 BEGIN ATOM
M  V30 1 C 10.555527 7.664343 -10.843525 0 CFG=1
M  V30 2 C 9.327221 5.590264 -7.875696 0
M  V30 3 C 9.403754 6.528897 -6.833004 0
M  V30 4 C 10.163550 7.258152 -9.452865 0
M  V30 5 N 7.903847 3.990201 -12.008533 0 CHG=1
M  V30 6 N 8.175414 7.351357 -11.585025 0 CHG=1
M  V30 7 C 10.240835 8.192271 -8.398873 0
M  V30 8 C 10.559918 6.785335 -12.072526 0
M  V30 9 C 5.775411 3.904506 -10.785023 0
M  V30 10 C 6.866487 4.798372 -11.330472 0 CFG=2
M  V30 11 C 7.211611 7.004096 -12.660610 0 CFG=1
M  V30 12 C 9.508090 7.868639 -11.930903 0 CFG=2
M  V30 13 C 9.862197 7.828865 -7.093446 0
M  V30 14 C 6.809461 5.489794 -14.588641 0
M  V30 15 C 5.689424 5.355947 -13.564888 0
M  V30 16 C 7.775391 6.526365 -14.009999 0
M  V30 17 C 9.708668 5.949604 -9.178363 0
M  V30 18 C 6.245412 5.894080 -12.235111 0 CFG=1
M  V30 19 H 11.363892 8.390214 -10.784958 0
M  V30 20 H 8.975384 4.590356 -7.674557 0
M  V30 21 H 9.110808 6.249647 -5.831822 0
M  V30 22 H 7.476785 3.475859 -12.766341 0
M  V30 23 H 8.640509 4.565241 -12.388110 0
M  V30 24 H 8.342762 6.534427 -11.021594 0
M  V30 25 H 10.591277 9.190219 -8.595856 0
M  V30 26 H 11.341463 6.964514 -12.808941 0
M  V30 27 H 10.256446 5.746031 -11.984518 0
M  V30 28 H 4.975412 4.512365 -10.381145 0
M  V30 29 H 5.375489 3.259345 -11.555745 0
M  V30 30 H 6.142579 3.274176 -9.978599 0
M  V30 31 H 7.315385 5.261364 -10.452781 0
M  V30 32 H 6.627809 7.903392 -12.848436 0
M  V30 33 H 9.525198 8.790202 -12.499892 0
M  V30 34 H 9.922059 8.550380 -6.291986 0
M  V30 35 H 6.421925 5.794412 -15.561752 0
M  V30 36 H 7.316235 4.535374 -14.734881 0
M  V30 37 H 4.870657 5.992889 -13.885970 0
M  V30 38 H 5.289463 4.343666 -13.515563 0
M  V30 39 H 7.829433 7.373137 -14.692822 0
M  V30 40 H 8.760808 6.070964 -13.925152 0
M  V30 41 H 9.650329 5.219823 -9.967941 0
M  V30 42 H 5.434478 6.360008 -11.670921 0
M  V30 43 H 8.302774 3.325200 -11.358636 0
M  V30 44 H 7.710541 7.982752 -10.926408 0
M  V30 END ATOM
M  V30 BEGIN BOND
M  V30 1 2 3 2
M  V30 2 1 4 1
M  V30 3 1 7 4
M  V30 4 1 8 1
M  V30 5 1 10 5
M  V30 6 1 10 9
M  V30 7 1 11 6
M  V30 8 1 12 1
M  V30 9 1 12 6
M  V30 10 1 12 8
M  V30 11 1 13 3
M  V30 12 2 13 7
M  V30 13 1 15 14
M  V30 14 1 16 11
M  V30 15 1 16 14
M  V30 16 1 17 2
M  V30 17 2 17 4
M  V30 18 1 18 10
M  V30 19 1 18 11
M  V30 20 1 18 15
M  V30 21 1 1 19 CFG=1
M  V30 22 1 20 2
M  V30 23 1 21 3
M  V30 24 1 22 5
M  V30 25 1 23 5
M  V30 26 1 24 6
M  V30 27 1 25 7
M  V30 28 1 26 8
M  V30 29 1 27 8
M  V30 30 1 28 9
M  V30 31 1 29 9
M  V30 32 1 30 9
M  V30 33 1 10 31 CFG=1
M  V30 34 1 11 32 CFG=3
M  V30 35 1 12 33 CFG=3
M  V30 36 1 34 13
M  V30 37 1 35 14
M  V30 38 1 36 14
M  V30 39 1 37 15
M  V30 40 1 38 15
M  V30 41 1 39 16
M  V30 42 1 40 16
M  V30 43 1 41 17
M  V30 44 1 18 42 CFG=1
M  V30 45 1 43 5
M  V30 46 1 44 6
M  V30 END BOND
M  V30 END CTAB
M  END
>  <i_epik_Tot_Q>  (1) 
2

>  <i_epik_Tot_abs_Q>  (1) 
2

>  <i_i_glide_confnum>  (1) 
80

>  <i_i_glide_lignum>  (1) 
72

>  <i_i_glide_posenum>  (1) 
345

>  <i_i_glide_rotatable_bonds>  (1) 
4

>  <i_lp_mmshare_version>  (1) 
72125

>  <i_m_source_file_index>  (1) 
26

>  <i_f3d_flags>  (1) 
0

>  <num_sample>  (1) 
50

>  <b_lp_Chiralities_Consistent>  (1) 
1

>  <r_epik_Charging_Adjusted_Penalty>  (1) 
0.43880639721899328

>  <r_epik_Ionization_Penalty>  (1) 
0.22252539232578136

>  <r_epik_Ionization_Penalty_Charging>  (1) 
0.22252539232578136

>  <r_epik_Ionization_Penalty_Neutral>  (1) 
0

>  <r_epik_State_Penalty>  (1) 
0.21628100489321189

>  <r_glide_ring_energy>  (1) 
1.1423732950286445

>  <r_i_docking_score>  (1) 
-4.4633101314137829

>  <r_i_glide_ecoul>  (1) 
-8.5069510941224831

>  <r_i_glide_eff_state_penalty>  (1) 
0.21628100489321189

>  <r_i_glide_einternal>  (1) 
15.077074525525234

>  <r_i_glide_emodel>  (1) 
-36.802672621460815

>  <r_i_glide_emodel_strain>  (1) 
1.2215774983951349

>  <r_i_glide_energy>  (1) 
-28.560330527263368

>  <r_i_glide_erotb>  (1) 
0.86113592628682767

>  <r_i_glide_esite>  (1) 
-0.10000000000000001

>  <r_i_glide_evdw>  (1) 
-20.053379433140886

>  <r_i_glide_gscore>  (1) 
-4.6795911363069944

>  <r_i_glide_gscore_strain>  (1) 
0

>  <r_i_glide_hbond>  (1) 
-0.15322182401806161

>  <r_i_glide_ligand_efficiency>  (1) 
-0.24796167396743238

>  <r_i_glide_ligand_efficiency_ln>  (1) 
-1.1472708546052812

>  <r_i_glide_ligand_efficiency_sa>  (1) 
-0.64984342314378063

>  <r_i_glide_lipo>  (1) 
-0.37969601189125229

>  <r_i_glide_metal>  (1) 
-0

>  <r_i_glide_rewards>  (1) 
-2.6290975909090912

>  <r_lp_Energy>  (1) 
41.001804999999997

>  <s_epik_cmdline>  (1) 
J2VwaWtfcHl0aG9uJywgJy1waHQnLCAnMS4wJywgJy1waCcsICc3LjQnLCAnLXRuJywgJzgnLCAnLW1hJywgJzUwMCcsICctaW1hZScsICc8aW5maWxlLm1hZT4nLCAnLW9tYWUnLCAnPG91dGZpbGUubWFlPic=

>  <s_epik_input>  (1) 
W2NIXTFbY0hdW2NIXVtjSF1bY0hdYzFbQ0BIXTJbQ0gyXVtDQEhdMltOSF1bQ0BIXTNbQ0gyXVtDSDJdW0NIMl1bQ0BIXTNbQ0BIXShbTkgyXSlbQ0gzXQ==

>  <s_glide_docking_method>  (1) 
confgen

>  <s_i_glide_gridfile>  (1) 
gpcr_drd2_6luq_protein_autoprepared_prepared

>  <s_lp_Force_Field>  (1) 
S-OPLS

>  <s_lp_Variant>  (1) 
DiffSBDD_25-1

>  <s_m_source_file>  (1) 
generated_generic_title2_ligand_DiffSBDD_2026-06-23_prepared.sdf

>  <GenAI_Model>  (1) 
DiffSBDD

>  <Protein>  (1) 
generic_title2

$$$$
DiffSBDD_0
     RDKit          3D

  0  0  0  0  0  0  0  0  0  0999 V3000
M  V30 BEGIN CTAB
M  V30 COUNTS 70 74 0 0 1
M  V30 BEGIN ATOM
M  V30 1 C 10.334719 7.257444 -6.044655 0
M  V30 2 N 7.902545 5.594479 -14.323979 0
M  V30 3 C 8.190558 4.683276 -18.421675 0 CFG=1
M  V30 4 C 9.677117 5.943423 -12.672698 0
M  V30 5 F 9.393054 5.478018 -9.130967 0
M  V30 6 C 6.832407 6.183021 -15.118961 0
M  V30 7 C 11.114937 8.416409 -6.675319 0
M  V30 8 C 9.485299 7.670508 -11.023458 0
M  V30 9 C 11.024399 7.240854 -8.955881 0 CFG=1
M  V30 10 C 10.793815 5.035942 -18.660909 0
M  V30 11 C 8.284627 4.242166 -14.714943 0 CFG=2
M  V30 12 C 7.587568 1.432140 -13.404070 0
M  V30 13 C 9.521166 4.372744 -19.098849 0 CFG=1
M  V30 14 O 10.296029 6.730966 -11.725150 0
M  V30 15 C 10.192064 6.117802 -8.278370 0 CFG=1
M  V30 16 C 8.781108 3.312561 -18.296063 0 CFG=1
M  V30 17 N 8.232831 5.281717 -17.058346 0 CFG=2 CHG=1
M  V30 18 C 10.229933 8.253484 -9.806081 0
M  V30 19 C 6.818458 2.755135 -13.566238 0
M  V30 20 C 8.924014 4.341123 -16.126105 0 CFG=2
M  V30 21 O 7.038699 0.459668 -14.269334 0
M  V30 22 C 11.908625 7.948858 -7.906551 0
M  V30 23 N 10.930478 6.390228 -18.583087 0
M  V30 24 C 6.891279 5.747685 -16.604004 0
M  V30 25 N 11.872283 4.320603 -18.338529 0
M  V30 26 O 12.834829 5.289842 -18.006648 0
M  V30 27 C 12.189704 6.459449 -18.181701 0
M  V30 28 O 7.179864 3.395693 -14.785057 0
M  V30 29 N 12.946177 7.590197 -17.903223 0
M  V30 30 C 8.574867 6.336119 -13.350387 0
M  V30 31 C 9.387240 6.627828 -7.075190 0
M  V30 32 C 14.321344 7.736054 -17.467635 0
M  V30 33 C 9.082425 2.994885 -16.857372 0
M  V30 34 H 11.025638 6.502443 -5.666349 0
M  V30 35 H 9.775415 7.614363 -5.185023 0
M  V30 36 H 7.289456 4.842455 -19.011849 0
M  V30 37 H 10.175433 4.995985 -12.801696 0
M  V30 38 H 5.865999 5.927378 -14.682294 0
M  V30 39 H 6.916919 7.269494 -15.070177 0
M  V30 40 H 11.785956 8.860692 -5.939990 0
M  V30 41 H 10.410554 9.193172 -6.965924 0
M  V30 42 H 9.191484 8.490410 -11.679297 0
M  V30 43 H 8.575421 7.175028 -10.697337 0
M  V30 44 H 11.726520 6.790228 -9.648716 0
M  V30 45 H 8.975554 3.820651 -13.992637 0
M  V30 46 H 7.477174 1.063624 -12.385025 0
M  V30 47 H 8.654939 1.549922 -13.585426 0
M  V30 48 H 9.513667 4.269643 -20.181931 0
M  V30 49 H 10.877528 5.348224 -7.922814 0
M  V30 50 H 8.336362 2.503229 -18.872145 0
M  V30 51 H 10.950902 8.982899 -10.172323 0
M  V30 52 H 9.522992 8.805676 -9.186532 0
M  V30 53 H 5.745964 2.560913 -13.573447 0
M  V30 54 H 7.002266 3.415851 -12.716937 0
M  V30 55 H 9.918573 4.764845 -15.975996 0
M  V30 56 H 7.404208 -0.388533 -14.063542 0
M  V30 57 H 12.679217 7.251575 -7.585014 0
M  V30 58 H 12.440461 8.790095 -8.353098 0
M  V30 59 H 6.194370 4.924117 -16.738901 0
M  V30 60 H 6.534827 6.552366 -17.247986 0
M  V30 61 H 12.458380 8.473547 -18.022389 0
M  V30 62 H 8.126344 7.302340 -13.175461 0
M  V30 63 H 8.830651 5.809614 -6.621053 0
M  V30 64 H 8.642184 7.355180 -7.400029 0
M  V30 65 H 14.518839 8.770318 -17.185066 0
M  V30 66 H 14.518933 7.096056 -16.607317 0
M  V30 67 H 15.006448 7.458600 -18.269279 0
M  V30 68 H 8.380975 2.233948 -16.514815 0
M  V30 69 H 10.089606 2.584831 -16.785027 0
M  V30 70 H 8.815280 6.106716 -17.106210 0
M  V30 END ATOM
M  V30 BEGIN BOND
M  V30 1 1 6 2
M  V30 2 1 7 1
M  V30 3 1 11 2
M  V30 4 1 13 3
M  V30 5 1 13 10
M  V30 6 1 14 4
M  V30 7 1 14 8
M  V30 8 1 15 5
M  V30 9 1 15 9
M  V30 10 1 16 3
M  V30 11 1 16 13
M  V30 12 1 17 3
M  V30 13 1 18 8
M  V30 14 1 18 9
M  V30 15 1 19 12
M  V30 16 1 20 11
M  V30 17 1 20 17
M  V30 18 1 21 12
M  V30 19 1 22 7
M  V30 20 1 22 9
M  V30 21 1 23 10
M  V30 22 1 24 6
M  V30 23 1 24 17
M  V30 24 2 25 10
M  V30 25 1 26 25
M  V30 26 2 27 23
M  V30 27 1 27 26
M  V30 28 1 28 11
M  V30 29 1 28 19
M  V30 30 1 29 27
M  V30 31 1 30 2
M  V30 32 2 30 4
M  V30 33 1 31 1
M  V30 34 1 31 15
M  V30 35 1 32 29
M  V30 36 1 33 16
M  V30 37 1 33 20
M  V30 38 1 34 1
M  V30 39 1 35 1
M  V30 40 1 3 36 CFG=3
M  V30 41 1 37 4
M  V30 42 1 38 6
M  V30 43 1 39 6
M  V30 44 1 40 7
M  V30 45 1 41 7
M  V30 46 1 42 8
M  V30 47 1 43 8
M  V30 48 1 9 44 CFG=3
M  V30 49 1 11 45 CFG=1
M  V30 50 1 46 12
M  V30 51 1 47 12
M  V30 52 1 13 48 CFG=3
M  V30 53 1 15 49 CFG=1
M  V30 54 1 16 50 CFG=3
M  V30 55 1 51 18
M  V30 56 1 52 18
M  V30 57 1 53 19
M  V30 58 1 54 19
M  V30 59 1 20 55 CFG=1
M  V30 60 1 56 21
M  V30 61 1 57 22
M  V30 62 1 58 22
M  V30 63 1 59 24
M  V30 64 1 60 24
M  V30 65 1 61 29
M  V30 66 1 62 30
M  V30 67 1 63 31
M  V30 68 1 64 31
M  V30 69 1 65 32
M  V30 70 1 66 32
M  V30 71 1 67 32
M  V30 72 1 68 33
M  V30 73 1 69 33
M  V30 74 1 17 70 CFG=3
M  V30 END BOND
M  V30 END CTAB
M  END
>  <i_epik_Tot_Q>  (1) 
1

>  <i_epik_Tot_abs_Q>  (1) 
1

>  <i_i_glide_confnum>  (1) 
240

>  <i_i_glide_lignum>  (1) 
9

>  <i_i_glide_posenum>  (1) 
123

>  <i_i_glide_rotatable_bonds>  (1) 
11

>  <i_lp_mmshare_version>  (1) 
72125

>  <i_m_source_file_index>  (1) 
1

>  <i_f3d_flags>  (1) 
0

>  <num_sample>  (1) 
50

>  <b_lp_Chiralities_Consistent>  (1) 
1

>  <r_epik_Charging_Adjusted_Penalty>  (1) 
0.41344222577729461

>  <r_epik_Ionization_Penalty>  (1) 
0.0027644559619576371

>  <r_epik_Ionization_Penalty_Charging>  (1) 
0.0027623868246906495

>  <r_epik_Ionization_Penalty_Neutral>  (1) 
2.0691372669875143e-06

>  <r_epik_State_Penalty>  (1) 
0.41067983895260396

>  <r_glide_ring_energy>  (1) 
1.7903676985451424

>  <r_i_docking_score>  (1) 
-4.4624526885363105

>  <r_i_glide_ecoul>  (1) 
-4.1946193941070078

>  <r_i_glide_eff_state_penalty>  (1) 
0.41067983895260396

>  <r_i_glide_einternal>  (1) 
9.1884724620753104

>  <r_i_glide_emodel>  (1) 
-43.575332177621448

>  <r_i_glide_emodel_strain>  (1) 
0.0063635674598430114

>  <r_i_glide_energy>  (1) 
-36.505807193837235

>  <r_i_glide_erotb>  (1) 
0.74142510397790429

>  <r_i_glide_esite>  (1) 
-0.044905250236527382

>  <r_i_glide_evdw>  (1) 
-32.311187799730227

>  <r_i_glide_gscore>  (1) 
-4.8731325274889148

>  <r_i_glide_gscore_strain>  (1) 
0

>  <r_i_glide_hbond>  (1) 
-0.32000000000000001

>  <r_i_glide_ligand_efficiency>  (1) 
-0.13522583904655486

>  <r_i_glide_ligand_efficiency_ln>  (1) 
-0.9924263725870256

>  <r_i_glide_ligand_efficiency_sa>  (1) 
-0.43374152104431485

>  <r_i_glide_lipo>  (1) 
-1.914177525335016

>  <r_i_glide_metal>  (1) 
-0

>  <r_i_glide_rewards>  (1) 
-1.0907225567927128

>  <r_lp_Energy>  (1) 
39.700505

>  <r_lp_tautomer_probability>  (1) 
0.5

>  <s_epik_Chemistry_Notes>  (1) 
This compound has an imine and may undergo hydrolysis. This compound contains an acetal/aminal-like group ( X-CH(R)-Y where X, Y are N, S, or O) that may be acid/base labile, releasing an aldehyde.

>  <s_epik_cmdline>  (1) 
J2VwaWtfcHl0aG9uJywgJy1waHQnLCAnMS4wJywgJy1waCcsICc3LjQnLCAnLXRuJywgJzgnLCAnLW1hJywgJzUwMCcsICctaW1hZScsICc8aW5maWxlLm1hZT4nLCAnLW9tYWUnLCAnPG91dGZpbGUubWFlPic=

>  <s_epik_input>  (1) 
W0NIMl0xW0NIMl1bQ0gyXVtDSDJdW0NASF0oRilbQ0BIXTFbQ0gyXVtDSDJdTy9bQ0hdPVtDSF0vTihbQ0BIXTJPW0NIMl1bQ0gyXVtPSF0pW0NIMl1bQ0gyXU4zW0NAQEhdMltDSDJdW0NAQEhdKFtDQEBIXTM0KVtDQEBIXTRjNW5jKG9uNSlbTkhdW0NIM10=

>  <s_glide_docking_method>  (1) 
confgen

>  <s_i_glide_gridfile>  (1) 
gpcr_drd2_6luq_protein_autoprepared_prepared

>  <s_lp_Force_Field>  (1) 
S-OPLS

>  <s_lp_Variant>  (1) 
DiffSBDD_0-9

>  <s_m_source_file>  (1) 
generated_generic_title2_ligand_DiffSBDD_2026-06-23_prepared.sdf

>  <GenAI_Model>  (1) 
DiffSBDD

>  <Protein>  (1) 
generic_title2

$$$$
DiffSBDD_30
     RDKit          3D

  0  0  0  0  0  0  0  0  0  0999 V3000
M  V30 BEGIN CTAB
M  V30 COUNTS 45 45 0 0 1
M  V30 BEGIN ATOM
M  V30 1 C 9.012535 5.585409 -10.415978 0
M  V30 2 N 11.504609 9.171178 -4.872816 0 CHG=-1
M  V30 3 C 6.049117 6.504462 -16.123170 0
M  V30 4 O 10.403330 8.026941 -7.090558 0
M  V30 5 C 12.139201 9.475431 -3.627012 0
M  V30 6 C 6.430207 6.923252 -14.690846 0
M  V30 7 O 6.202470 4.612477 -13.857542 0
M  V30 8 F 5.366486 7.437015 -14.085957 0
M  V30 9 N 5.386912 7.590989 -16.871164 0 CHG=1
M  V30 10 C 11.375774 7.811477 -4.849829 0
M  V30 11 C 9.722258 6.956848 -10.521365 0 CFG=2
M  V30 12 C 12.240520 8.095889 -3.014653 0
M  V30 13 C 8.303156 5.104800 -11.699253 0
M  V30 14 C 7.026822 5.767191 -13.845823 0 CFG=2
M  V30 15 F 11.375415 10.259885 -2.873044 0
M  V30 16 F 13.352435 9.988698 -3.833897 0
M  V30 17 C 10.736021 7.124442 -6.041615 0
M  V30 18 O 12.690000 7.934108 -1.884846 0
M  V30 19 N 9.706465 7.269011 -8.088397 0
M  V30 20 F 7.343109 7.888826 -14.785627 0
M  V30 21 O 10.609368 6.946221 -11.619773 0
M  V30 22 C 10.530932 7.358884 -9.277348 0
M  V30 23 O 6.266575 6.392406 -11.585452 0
M  V30 24 N 11.775540 7.122982 -3.860799 0
M  V30 25 C 7.405363 6.154922 -12.392701 0 CFG=1
M  V30 26 H 9.730156 4.823328 -10.112794 0
M  V30 27 H 8.273596 5.624450 -9.614761 0
M  V30 28 H 6.938247 6.186356 -16.669460 0
M  V30 29 H 5.358813 5.662387 -16.105699 0
M  V30 30 H 6.168557 4.253939 -14.730300 0
M  V30 31 H 5.136215 7.261777 -17.792283 0
M  V30 32 H 6.000960 8.386007 -16.958642 0
M  V30 33 H 8.983284 7.739538 -10.693168 0
M  V30 34 H 9.055819 4.743153 -12.398997 0
M  V30 35 H 7.703101 4.227630 -11.454219 0
M  V30 36 H 7.951604 5.480089 -14.347142 0
M  V30 37 H 9.846441 6.608350 -5.684323 0
M  V30 38 H 11.424695 6.363221 -6.410823 0
M  V30 39 H 8.821771 7.748113 -8.230658 0
M  V30 40 H 10.155551 6.584243 -12.364227 0
M  V30 41 H 11.414626 6.737454 -9.144529 0
M  V30 42 H 10.885526 8.383614 -9.399468 0
M  V30 43 H 6.540740 6.790183 -10.754530 0
M  V30 44 H 7.937341 7.099107 -12.475918 0
M  V30 45 H 4.552034 7.883299 -16.385812 0
M  V30 END ATOM
M  V30 BEGIN BOND
M  V30 1 1 5 2
M  V30 2 1 6 3
M  V30 3 1 8 6
M  V30 4 1 9 3
M  V30 5 1 10 2
M  V30 6 1 11 1
M  V30 7 1 12 5
M  V30 8 1 13 1
M  V30 9 1 14 6
M  V30 10 1 14 7
M  V30 11 1 15 5
M  V30 12 1 16 5
M  V30 13 1 17 4
M  V30 14 1 17 10
M  V30 15 2 18 12
M  V30 16 1 19 4
M  V30 17 1 20 6
M  V30 18 1 21 11
M  V30 19 1 22 11
M  V30 20 1 22 19
M  V30 21 2 24 10
M  V30 22 1 24 12
M  V30 23 1 25 13
M  V30 24 1 25 14
M  V30 25 1 25 23
M  V30 26 1 26 1
M  V30 27 1 27 1
M  V30 28 1 28 3
M  V30 29 1 29 3
M  V30 30 1 30 7
M  V30 31 1 31 9
M  V30 32 1 32 9
M  V30 33 1 11 33 CFG=3
M  V30 34 1 34 13
M  V30 35 1 35 13
M  V30 36 1 14 36 CFG=3
M  V30 37 1 37 17
M  V30 38 1 38 17
M  V30 39 1 39 19
M  V30 40 1 40 21
M  V30 41 1 41 22
M  V30 42 1 42 22
M  V30 43 1 43 23
M  V30 44 1 25 44 CFG=3
M  V30 45 1 45 9
M  V30 END BOND
M  V30 END CTAB
M  END
>  <i_epik_Tot_Q>  (1) 
0

>  <i_epik_Tot_abs_Q>  (1) 
2

>  <i_i_glide_confnum>  (1) 
1611

>  <i_i_glide_lignum>  (1) 
92

>  <i_i_glide_posenum>  (1) 
209

>  <i_i_glide_rotatable_bonds>  (1) 
14

>  <i_lp_mmshare_version>  (1) 
72125

>  <i_m_source_file_index>  (1) 
31

>  <i_f3d_flags>  (1) 
0

>  <num_sample>  (1) 
50

>  <b_lp_Chiralities_Consistent>  (1) 
1

>  <r_epik_Charging_Adjusted_Penalty>  (1) 
1.1033345343036571

>  <r_epik_Ionization_Penalty>  (1) 
0.55249664061947246

>  <r_epik_Ionization_Penalty_Charging>  (1) 
0.55167603061160131

>  <r_epik_Ionization_Penalty_Neutral>  (1) 
0.00082061000787111938

>  <r_epik_State_Penalty>  (1) 
0.55165850369205582

>  <r_glide_ring_energy>  (1) 
0

>  <r_i_docking_score>  (1) 
-4.4550210715840626

>  <r_i_glide_ecoul>  (1) 
-8.5091082546631718

>  <r_i_glide_eff_state_penalty>  (1) 
0.55165850369205582

>  <r_i_glide_einternal>  (1) 
10.750773616251156

>  <r_i_glide_emodel>  (1) 
-47.778439637709354

>  <r_i_glide_emodel_strain>  (1) 
0.82019972651658435

>  <r_i_glide_energy>  (1) 
-38.604995859158869

>  <r_i_glide_erotb>  (1) 
1.2301891588113794

>  <r_i_glide_esite>  (1) 
-0.084145365207193068

>  <r_i_glide_evdw>  (1) 
-30.095887604495697

>  <r_i_glide_gscore>  (1) 
-5.0066795752761184

>  <r_i_glide_gscore_strain>  (1) 
0

>  <r_i_glide_hbond>  (1) 
-0.24437591588262053

>  <r_i_glide_ligand_efficiency>  (1) 
-0.17820084286336249

>  <r_i_glide_ligand_efficiency_ln>  (1) 
-1.0559735001736485

>  <r_i_glide_ligand_efficiency_sa>  (1) 
-0.52106242549695558

>  <r_i_glide_lipo>  (1) 
-1.1419396366624484

>  <r_i_glide_metal>  (1) 
-0

>  <r_i_glide_rewards>  (1) 
-1.9852471979109745

>  <r_lp_Energy>  (1) 
17.800135000000001

>  <s_epik_Chemistry_Notes>  (1) 
This compound has an imine and may undergo hydrolysis. This compound has a N-S or N-O group and may undergo hydrolysis at high or low pH.

>  <s_epik_cmdline>  (1) 
J2VwaWtfcHl0aG9uJywgJy1waHQnLCAnMS4wJywgJy1waCcsICc3LjQnLCAnLXRuJywgJzgnLCAnLW1hJywgJzUwMCcsICctaW1hZScsICc8aW5maWxlLm1hZT4nLCAnLW9tYWUnLCAnPG91dGZpbGUubWFlPic=

>  <s_epik_input>  (1) 
W05IMl1bQ0gyXUMoRikoRilbQ0BASF0oW09IXSlbQ0BASF0oW09IXSlbQ0gyXVtDSDJdW0NASF0oW09IXSlbQ0gyXVtOSF1PW0NIMl1DKD1OQzEoRilGKVtOSF1DMT1P

>  <s_glide_docking_method>  (1) 
confgen

>  <s_i_glide_gridfile>  (1) 
gpcr_drd2_6luq_protein_autoprepared_prepared

>  <s_lp_Force_Field>  (1) 
S-OPLS

>  <s_lp_Variant>  (1) 
DiffSBDD_30-4

>  <s_m_source_file>  (1) 
generated_generic_title2_ligand_DiffSBDD_2026-06-23_prepared.sdf

>  <GenAI_Model>  (1) 
DiffSBDD

>  <Protein>  (1) 
generic_title2

$$$$
DiffSBDD_24
     RDKit          3D

  0  0  0  0  0  0  0  0  0  0999 V3000
M  V30 BEGIN CTAB
M  V30 COUNTS 79 83 0 0 1
M  V30 BEGIN ATOM
M  V30 1 C 11.090942 7.505161 -8.876223 0 CFG=2
M  V30 2 C 10.228043 5.149319 -17.972687 0
M  V30 3 C 11.002632 8.070979 -7.448237 0
M  V30 4 C 6.191263 -2.346021 -20.349135 0
M  V30 5 C 7.704871 5.284620 -10.798712 0
M  V30 6 C 7.198073 -3.614204 -18.041611 0
M  V30 7 C 6.680855 -4.395614 -19.104750 0
M  V30 8 O 7.878356 0.384592 -20.081448 0
M  V30 9 C 7.784535 2.778956 -19.742658 0
M  V30 10 C 5.333022 2.059990 -19.834470 0
M  V30 11 C 4.950972 -3.910769 -22.338657 0
M  V30 12 C 8.367218 3.950452 -19.215018 0
M  V30 13 C 10.445041 5.125315 -16.448029 0
M  V30 14 N 9.320969 4.806356 -14.307854 0
M  V30 15 O 6.661458 -5.775069 -19.031827 0
M  V30 16 O 12.282522 7.995221 -9.453603 0
M  V30 17 C 9.906111 7.894278 -9.780577 0
M  V30 18 C 8.438296 1.533900 -19.583327 0
M  V30 19 C 7.206477 -2.210765 -18.135037 0
M  V30 20 C 6.463580 2.862039 -20.488103 0
M  V30 21 O 8.738167 7.156535 -11.890179 0
M  V30 22 C 10.253121 2.641763 -18.384344 0
M  V30 23 C 6.703700 -1.573614 -19.285118 0
M  V30 24 C 7.088083 -6.425652 -17.845614 0
M  V30 25 C 8.201084 4.703550 -13.383076 0 CFG=1
M  V30 26 C 9.673403 1.471228 -18.909613 0
M  V30 27 O 8.066238 5.275179 -16.132238 0
M  V30 28 C 9.164878 5.075013 -15.611649 0
M  V30 29 C 9.895625 7.433101 -6.597160 0
M  V30 30 C 6.721438 -0.052226 -19.375175 0 CFG=2
M  V30 31 O 5.674008 -4.534839 -21.287901 0
M  V30 32 O 7.438502 3.539941 -13.640397 0
M  V30 33 C 8.620226 4.676867 -11.929551 0 CFG=1
M  V30 34 O 7.774946 4.792796 -9.485194 0
M  V30 35 O 6.522492 5.957872 -11.185002 0
M  V30 36 C 9.600298 3.882781 -18.535269 0
M  V30 37 C 5.458179 0.544108 -20.023146 0
M  V30 38 C 9.891133 7.117485 -11.085178 0 CFG=2
M  V30 39 C 6.176166 -3.761483 -20.258866 0
M  V30 40 C 8.985934 5.908386 -11.183370 0 CFG=2
M  V30 41 H 11.162565 6.418545 -8.816561 0
M  V30 42 H 11.191408 5.289767 -18.463437 0
M  V30 43 H 9.622823 6.013707 -18.249989 0
M  V30 44 H 11.953268 7.891883 -6.945273 0
M  V30 45 H 10.870878 9.152982 -7.477453 0
M  V30 46 H 5.812366 -1.854881 -21.230141 0
M  V30 47 H 7.587389 -4.087114 -17.155638 0
M  V30 48 H 4.402210 2.367676 -20.304250 0
M  V30 49 H 5.248949 2.313638 -18.777863 0
M  V30 50 H 4.517466 -4.680181 -22.978242 0
M  V30 51 H 5.606946 -3.298014 -22.958853 0
M  V30 52 H 4.130649 -3.301017 -21.954175 0
M  V30 53 H 7.868890 4.902433 -19.332977 0
M  V30 54 H 10.993215 6.021900 -16.154567 0
M  V30 55 H 11.068545 4.275910 -16.171428 0
M  V30 56 H 10.254795 4.651538 -13.944824 0
M  V30 57 H 12.278558 7.787153 -10.374665 0
M  V30 58 H 8.976352 7.671289 -9.261571 0
M  V30 59 H 9.889832 8.964526 -9.971537 0
M  V30 60 H 7.600808 -1.620303 -17.320495 0
M  V30 61 H 6.161425 3.907932 -20.547712 0
M  V30 62 H 6.620683 2.535625 -21.517498 0
M  V30 63 H 11.198459 2.587201 -17.865093 0
M  V30 64 H 6.967390 -7.501166 -17.978553 0
M  V30 65 H 6.482718 -6.127260 -16.987702 0
M  V30 66 H 8.142617 -6.229485 -17.645634 0
M  V30 67 H 7.545225 5.561065 -13.542718 0
M  V30 68 H 10.175664 0.522232 -18.794079 0
M  V30 69 H 9.924400 7.820499 -5.579845 0
M  V30 70 H 10.014475 6.350375 -6.542730 0
M  V30 71 H 8.900492 7.640535 -6.990245 0
M  V30 72 H 6.758702 0.310166 -18.344231 0
M  V30 73 H 6.526830 3.747566 -13.502570 0
M  V30 74 H 9.205404 3.795125 -11.666435 0
M  V30 75 H 7.598511 5.519293 -8.901115 0
M  V30 76 H 6.548191 6.790215 -10.710266 0
M  V30 77 H 4.576383 0.075240 -19.583854 0
M  V30 78 H 5.428678 0.315300 -21.087465 0
M  V30 79 H 10.810769 7.121616 -11.667182 0
M  V30 END ATOM
M  V30 BEGIN BOND
M  V30 1 1 3 1
M  V30 2 1 7 6
M  V30 3 1 12 9
M  V30 4 1 13 2
M  V30 5 1 15 7
M  V30 6 1 16 1
M  V30 7 1 17 1
M  V30 8 1 18 8
M  V30 9 2 18 9
M  V30 10 2 19 6
M  V30 11 1 20 9
M  V30 12 1 20 10
M  V30 13 2 23 4
M  V30 14 1 23 19
M  V30 15 1 24 15
M  V30 16 1 25 14
M  V30 17 1 26 18
M  V30 18 2 26 22
M  V30 19 1 28 13
M  V30 20 1 28 14
M  V30 21 2 28 27
M  V30 22 1 29 3
M  V30 23 1 30 8
M  V30 24 1 30 23
M  V30 25 1 31 11
M  V30 26 1 32 25
M  V30 27 1 33 5
M  V30 28 1 33 25
M  V30 29 1 34 5
M  V30 30 1 35 5
M  V30 31 1 36 2
M  V30 32 2 36 12
M  V30 33 1 36 22
M  V30 34 1 37 10
M  V30 35 1 37 30
M  V30 36 1 38 17
M  V30 37 1 38 21
M  V30 38 1 39 4
M  V30 39 2 39 7
M  V30 40 1 39 31
M  V30 41 1 40 5
M  V30 42 1 40 21 CFG=3
M  V30 43 1 40 33
M  V30 44 1 40 38
M  V30 45 1 1 41 CFG=1
M  V30 46 1 42 2
M  V30 47 1 43 2
M  V30 48 1 44 3
M  V30 49 1 45 3
M  V30 50 1 46 4
M  V30 51 1 47 6
M  V30 52 1 48 10
M  V30 53 1 49 10
M  V30 54 1 50 11
M  V30 55 1 51 11
M  V30 56 1 52 11
M  V30 57 1 53 12
M  V30 58 1 54 13
M  V30 59 1 55 13
M  V30 60 1 56 14
M  V30 61 1 57 16
M  V30 62 1 58 17
M  V30 63 1 59 17
M  V30 64 1 60 19
M  V30 65 1 61 20
M  V30 66 1 62 20
M  V30 67 1 63 22
M  V30 68 1 64 24
M  V30 69 1 65 24
M  V30 70 1 66 24
M  V30 71 1 25 67 CFG=1
M  V30 72 1 68 26
M  V30 73 1 69 29
M  V30 74 1 70 29
M  V30 75 1 71 29
M  V30 76 1 30 72 CFG=1
M  V30 77 1 73 32
M  V30 78 1 33 74 CFG=1
M  V30 79 1 75 34
M  V30 80 1 76 35
M  V30 81 1 77 37
M  V30 82 1 78 37
M  V30 83 1 38 79 CFG=3
M  V30 END BOND
M  V30 END CTAB
M  END
>  <i_epik_Tot_Q>  (1) 
0

>  <i_epik_Tot_abs_Q>  (1) 
0

>  <i_i_glide_confnum>  (1) 
292

>  <i_i_glide_lignum>  (1) 
71

>  <i_i_glide_posenum>  (1) 
375

>  <i_i_glide_rotatable_bonds>  (1) 
16

>  <i_lp_mmshare_version>  (1) 
72125

>  <i_m_source_file_index>  (1) 
25

>  <i_f3d_flags>  (1) 
0

>  <num_sample>  (1) 
50

>  <b_lp_Chiralities_Consistent>  (1) 
1

>  <r_epik_Charging_Adjusted_Penalty>  (1) 
0

>  <r_epik_Ionization_Penalty>  (1) 
7.7966095074424399e-05

>  <r_epik_Ionization_Penalty_Charging>  (1) 
0

>  <r_epik_Ionization_Penalty_Neutral>  (1) 
7.7966095074424399e-05

>  <r_epik_State_Penalty>  (1) 
-0

>  <r_glide_ring_energy>  (1) 
0

>  <r_i_docking_score>  (1) 
-4.4528011574423116

>  <r_i_glide_ecoul>  (1) 
-8.4685747350728189

>  <r_i_glide_eff_state_penalty>  (1) 
-0

>  <r_i_glide_einternal>  (1) 
10.793010977228828

>  <r_i_glide_emodel>  (1) 
-48.831602422274436

>  <r_i_glide_emodel_strain>  (1) 
0.39323507859661788

>  <r_i_glide_energy>  (1) 
-43.5257738505722

>  <r_i_glide_erotb>  (1) 
0.5242298981819471

>  <r_i_glide_esite>  (1) 
-0.085061074265451245

>  <r_i_glide_evdw>  (1) 
-35.05719911549938

>  <r_i_glide_gscore>  (1) 
-4.4528011574423116

>  <r_i_glide_gscore_strain>  (1) 
0

>  <r_i_glide_hbond>  (1) 
-0.43745737983565636

>  <r_i_glide_ligand_efficiency>  (1) 
-0.11132002893605779

>  <r_i_glide_ligand_efficiency_ln>  (1) 
-0.94965144679407498

>  <r_i_glide_ligand_efficiency_sa>  (1) 
-0.3807091437280255

>  <r_i_glide_lipo>  (1) 
-0.94535908750978226

>  <r_i_glide_metal>  (1) 
-0

>  <r_i_glide_rewards>  (1) 
-0.48600734797747663

>  <r_lp_Energy>  (1) 
27.684539999999998

>  <r_lp_tautomer_probability>  (1) 
1

>  <s_epik_Chemistry_Notes>  (1) 
This compound contains an acetal/aminal-like group ( X-CH(R)-Y where X, Y are N, S, or O) that may be acid/base labile, releasing an aldehyde.

>  <s_epik_cmdline>  (1) 
J2VwaWtfcHl0aG9uJywgJy1waHQnLCAnMS4wJywgJy1waCcsICc3LjQnLCAnLXRuJywgJzgnLCAnLW1hJywgJzUwMCcsICctaW1hZScsICc8aW5maWxlLm1hZT4nLCAnLW9tYWUnLCAnPG91dGZpbGUubWFlPic=

>  <s_epik_input>  (1) 
W0NIM11bQ0gyXVtDQEhdKFtPSF0pW0NIMl1bQ0BASF0xT1tDQF0xMkMoW09IXSkoW09IXSlbQ0BIXTJbQ0BIXShbT0hdKVtOSF1DKD1PKVtDSDJdW0NIMl1jKFtjSF0zKVtjSF1bY0hdYyhjMzQpT1tDQEBIXShbQ0gyXVtDSDJdW0NIMl00KWMoW2NIXWM1T1tDSDNdKVtjSF1bY0hdYzVPW0NIM10=

>  <s_glide_docking_method>  (1) 
confgen

>  <s_i_glide_gridfile>  (1) 
gpcr_drd2_6luq_protein_autoprepared_prepared

>  <s_lp_Force_Field>  (1) 
S-OPLS

>  <s_lp_Variant>  (1) 
DiffSBDD_24-1

>  <s_m_source_file>  (1) 
generated_generic_title2_ligand_DiffSBDD_2026-06-23_prepared.sdf

>  <GenAI_Model>  (1) 
DiffSBDD

>  <Protein>  (1) 
generic_title2

$$$$
DiffSBDD_13
     RDKit          3D

  0  0  0  0  0  0  0  0  0  0999 V3000
M  V30 BEGIN CTAB
M  V30 COUNTS 48 50 0 0 1
M  V30 BEGIN ATOM
M  V30 1 O 5.775010 4.723632 -12.048555 0
M  V30 2 C 6.278838 4.119707 -12.924171 0
M  V30 3 C 7.409462 8.191300 -22.067564 0
M  V30 4 F 8.175413 0.019411 -14.831563 0
M  V30 5 C 8.227575 5.761467 -20.655702 0
M  V30 6 F 3.434001 9.190206 -20.923998 0
M  V30 7 C 6.832438 3.443781 -13.909150 0
M  V30 8 C 5.120223 7.590420 -19.201004 0
M  V30 9 C 4.525204 8.653636 -21.470267 0
M  V30 10 C 8.839556 4.903296 -19.784969 0
M  V30 11 C 6.175440 0.190842 -12.506197 0
M  V30 12 F 4.935471 9.493384 -22.420596 0
M  V30 13 C 7.121925 4.057705 -15.200532 0
M  V30 14 C 7.191353 1.962251 -13.661527 0 CFG=1
M  V30 15 C 7.956768 4.022215 -17.452787 0
M  V30 16 C 8.844051 7.662438 -22.167667 0
M  V30 17 C 6.192329 6.524607 -19.023983 0
M  V30 18 C 10.291653 5.582869 -22.244516 0
M  V30 19 N 6.014487 1.200918 -13.258457 0
M  V30 20 C 7.690308 3.370635 -16.208546 0
M  V30 21 C 8.040684 1.975249 -16.047216 0
M  V30 22 C 8.282960 4.493341 -18.533406 0
M  V30 23 C 6.839901 6.423264 -20.411113 0 CFG=1
M  V30 24 C 7.822519 1.314058 -14.898200 0
M  V30 25 F 4.199791 7.485930 -22.027191 0
M  V30 26 C 5.597254 8.477628 -20.364175 0 CFG=2
M  V30 27 C 8.875464 6.137881 -21.994885 0 CFG=1
M  V30 28 N 6.863914 7.848172 -20.758875 0
M  V30 29 H 7.416462 9.275080 -22.190427 0
M  V30 30 H 6.790110 7.770555 -22.860919 0
M  V30 31 H 4.969492 8.160649 -18.284551 0
M  V30 32 H 4.175394 7.111489 -19.446607 0
M  V30 33 H 9.801061 4.485003 -20.034802 0
M  V30 34 H 5.317091 -0.409264 -12.192696 0
M  V30 35 H 7.171768 -0.095937 -12.159801 0
M  V30 36 H 6.872207 5.099954 -15.350949 0
M  V30 37 H 7.956866 1.949863 -12.880017 0
M  V30 38 H 9.470560 8.140643 -21.412589 0
M  V30 39 H 9.262623 7.940072 -23.135548 0
M  V30 40 H 6.914801 6.866860 -18.281364 0
M  V30 41 H 5.754763 5.585256 -18.684952 0
M  V30 42 H 10.299377 4.492594 -22.244022 0
M  V30 43 H 10.664760 5.900351 -23.218679 0
M  V30 44 H 11.000943 5.933879 -21.494457 0
M  V30 45 H 8.491295 1.447731 -16.875515 0
M  V30 46 H 6.139015 5.929796 -21.086910 0
M  V30 47 H 5.842240 9.468826 -19.982844 0
M  V30 48 H 8.230758 5.710037 -22.764185 0
M  V30 END ATOM
M  V30 BEGIN BOND
M  V30 1 2 2 1
M  V30 2 2 7 2
M  V30 3 1 9 6
M  V30 4 2 10 5
M  V30 5 1 12 9
M  V30 6 1 13 7
M  V30 7 1 14 7
M  V30 8 1 16 3
M  V30 9 1 17 8
M  V30 10 2 19 11
M  V30 11 1 19 14
M  V30 12 2 20 13
M  V30 13 1 20 15
M  V30 14 1 21 20
M  V30 15 1 22 10
M  V30 16 3 22 15
M  V30 17 1 23 5
M  V30 18 1 23 17
M  V30 19 1 24 4
M  V30 20 1 24 14
M  V30 21 2 24 21
M  V30 22 1 25 9
M  V30 23 1 26 8
M  V30 24 1 26 9
M  V30 25 1 27 5
M  V30 26 1 27 16
M  V30 27 1 27 18
M  V30 28 1 28 3
M  V30 29 1 28 23
M  V30 30 1 28 26
M  V30 31 1 29 3
M  V30 32 1 30 3
M  V30 33 1 31 8
M  V30 34 1 32 8
M  V30 35 1 33 10
M  V30 36 1 34 11
M  V30 37 1 35 11
M  V30 38 1 36 13
M  V30 39 1 14 37 CFG=1
M  V30 40 1 38 16
M  V30 41 1 39 16
M  V30 42 1 40 17
M  V30 43 1 41 17
M  V30 44 1 42 18
M  V30 45 1 43 18
M  V30 46 1 44 18
M  V30 47 1 45 21
M  V30 48 1 23 46 CFG=3
M  V30 49 1 26 47 CFG=1
M  V30 50 1 27 48 CFG=3
M  V30 END BOND
M  V30 END CTAB
M  END
>  <i_epik_Tot_Q>  (1) 
0

>  <i_epik_Tot_abs_Q>  (1) 
0

>  <i_i_glide_confnum>  (1) 
2

>  <i_i_glide_lignum>  (1) 
51

>  <i_i_glide_posenum>  (1) 
68

>  <i_i_glide_rotatable_bonds>  (1) 
4

>  <i_lp_mmshare_version>  (1) 
72125

>  <i_m_source_file_index>  (1) 
14

>  <i_f3d_flags>  (1) 
0

>  <num_sample>  (1) 
50

>  <b_lp_Chiralities_Consistent>  (1) 
1

>  <r_epik_Charging_Adjusted_Penalty>  (1) 
0

>  <r_epik_Ionization_Penalty>  (1) 
0.00020645461892998548

>  <r_epik_Ionization_Penalty_Charging>  (1) 
0

>  <r_epik_Ionization_Penalty_Neutral>  (1) 
0.00020645461892998548

>  <r_epik_State_Penalty>  (1) 
-0

>  <r_glide_ring_energy>  (1) 
0

>  <r_i_docking_score>  (1) 
-4.4512962617546137

>  <r_i_glide_ecoul>  (1) 
-0.56208835583448291

>  <r_i_glide_eff_state_penalty>  (1) 
-0

>  <r_i_glide_einternal>  (1) 
0.26894086398633021

>  <r_i_glide_emodel>  (1) 
-35.166131354004079

>  <r_i_glide_emodel_strain>  (1) 
0

>  <r_i_glide_energy>  (1) 
-28.027509504493597

>  <r_i_glide_erotb>  (1) 
0.38039990127662543

>  <r_i_glide_esite>  (1) 
-0.0011946289992428667

>  <r_i_glide_evdw>  (1) 
-27.465421148659114

>  <r_i_glide_gscore>  (1) 
-4.4512962617546137

>  <r_i_glide_gscore_strain>  (1) 
0

>  <r_i_glide_hbond>  (1) 
0

>  <r_i_glide_ligand_efficiency>  (1) 
-0.15897486649123621

>  <r_i_glide_ligand_efficiency_ln>  (1) 
-1.0274898729502946

>  <r_i_glide_ligand_efficiency_sa>  (1) 
-0.48274132639269374

>  <r_i_glide_lipo>  (1) 
-1.9851820421092936

>  <r_i_glide_metal>  (1) 
-0

>  <r_i_glide_rewards>  (1) 
-1.3877351811145737

>  <r_lp_Energy>  (1) 
25.917797999999998

>  <r_lp_tautomer_probability>  (1) 
1

>  <s_epik_Chemistry_Notes>  (1) 
This compound has an imine and may undergo hydrolysis.

>  <s_epik_cmdline>  (1) 
J2VwaWtfcHl0aG9uJywgJy1waHQnLCAnMS4wJywgJy1waCcsICc3LjQnLCAnLXRuJywgJzgnLCAnLW1hJywgJzUwMCcsICctaW1hZScsICc8aW5maWxlLm1hZT4nLCAnLW9tYWUnLCAnPG91dGZpbGUubWFlPic=

>  <s_epik_input>  (1) 
W0NIMl09TltDQEhdMUMoRik9W0NIXUMoPVtDSF1DMT1DPU8pQyNDL1tDSF09Q1wyW0NASF0oW0NIM10pW0NIMl1bQ0gyXU4oW0NAQEhdMjMpW0NAQEhdKEMoRikoRilGKVtDSDJdW0NIMl0z

>  <s_glide_docking_method>  (1) 
confgen

>  <s_i_glide_gridfile>  (1) 
gpcr_drd2_6luq_protein_autoprepared_prepared

>  <s_lp_Force_Field>  (1) 
S-OPLS

>  <s_lp_Variant>  (1) 
DiffSBDD_13-2

>  <s_m_source_file>  (1) 
generated_generic_title2_ligand_DiffSBDD_2026-06-23_prepared.sdf

>  <GenAI_Model>  (1) 
DiffSBDD

>  <Protein>  (1) 
generic_title2

$$$$
DiffSBDD_28
     RDKit          3D

  0  0  0  0  0  0  0  0  0  0999 V3000
M  V30 BEGIN CTAB
M  V30 COUNTS 79 86 0 0 1
M  V30 BEGIN ATOM
M  V30 1 F 7.512585 -0.496599 -17.841541 0
M  V30 2 C 9.820827 6.804967 -8.740306 0 CFG=1
M  V30 3 C 8.640732 6.615667 -12.307446 0 CFG=2
M  V30 4 C 9.755103 8.396315 -6.459293 0 CFG=2
M  V30 5 C 8.508623 4.451342 -16.280049 0 CFG=1
M  V30 6 C 9.303538 5.645792 -7.892005 0
M  V30 7 C 7.533177 6.028791 -14.402228 0 CFG=2
M  V30 8 C 7.322270 2.492926 -18.643793 0 CFG=1
M  V30 9 C 8.407584 8.089321 -11.993085 0
M  V30 10 C 7.154966 4.327977 -16.944280 0 CFG=1
M  V30 11 C 11.436146 8.330000 -8.552626 0 CFG=1
M  V30 12 C 7.301055 4.731901 -12.270436 0
M  V30 13 C 10.096685 8.058066 -7.894800 0 CFG=1
M  V30 14 O 12.577123 8.489608 -7.745453 0
M  V30 15 C 8.564245 0.261491 -18.318400 0 CFG=1
M  V30 16 C 8.684979 5.226202 -14.999506 0 CFG=1
M  V30 17 O 8.547519 3.811598 -15.001489 0
M  V30 18 N 7.481672 6.014172 -12.936499 0
M  V30 19 O 11.493595 8.439478 -4.801313 0
M  V30 20 C 9.186985 -0.297147 -19.536477 0
M  V30 21 O 9.097917 9.019016 -7.586031 0
M  V30 22 C 6.324111 5.594153 -16.614472 0
M  V30 23 C 11.284271 6.932187 -9.137053 0
M  V30 24 N 8.975410 7.004624 -9.962635 0 CFG=1 CHG=1
M  V30 25 C 10.688575 9.274592 -5.616242 0
M  V30 26 N 7.172154 2.396531 -20.111488 0 CHG=1
M  V30 27 C 6.183398 5.709362 -15.079616 0
M  V30 28 C 6.543438 3.640186 -20.596786 0
M  V30 29 C 6.376069 4.527910 -19.360668 0
M  V30 30 O 9.332461 0.410496 -20.533496 0
M  V30 31 C 7.662901 5.005678 -10.809419 0
M  V30 32 C 8.580856 1.770535 -18.109641 0
M  V30 33 O 9.881305 -0.380821 -18.420093 0
M  V30 34 N 7.321719 3.958644 -18.380214 0 CFG=2 CHG=1
M  V30 35 C 9.198657 8.262417 -10.725219 0
M  V30 36 C 12.394624 9.167469 -3.986605 0
M  V30 37 C 8.881528 5.921937 -10.958744 0 CFG=1
M  V30 38 H 9.551538 6.503403 -12.891645 0
M  V30 39 H 9.113355 7.713018 -5.910557 0
M  V30 40 H 9.395603 4.291992 -16.890114 0
M  V30 41 H 9.854072 5.562297 -6.955643 0
M  V30 42 H 8.250292 5.783585 -7.636122 0
M  V30 43 H 9.404491 4.690884 -8.406739 0
M  V30 44 H 7.734073 7.059896 -14.694152 0
M  V30 45 H 6.423972 2.055413 -18.198797 0
M  V30 46 H 7.352499 8.281336 -11.785745 0
M  V30 47 H 8.718138 8.770884 -12.779923 0
M  V30 48 H 6.661074 3.486637 -16.454937 0
M  V30 49 H 11.414418 9.094142 -9.329819 0
M  V30 50 H 6.282136 4.360158 -12.377000 0
M  V30 51 H 7.986004 3.979152 -12.659148 0
M  V30 52 H 13.283056 8.762261 -8.314391 0
M  V30 53 H 9.691917 5.576543 -14.784658 0
M  V30 54 H 5.326952 5.590124 -17.054291 0
M  V30 55 H 6.813487 6.485785 -17.010066 0
M  V30 56 H 11.564081 6.790681 -10.178060 0
M  V30 57 H 11.775403 6.264784 -8.462563 0
M  V30 58 H 11.296899 9.903247 -6.261700 0
M  V30 59 H 10.175433 9.988006 -4.983888 0
M  V30 60 H 6.609930 1.592194 -20.359294 0
M  V30 61 H 5.773644 4.777785 -14.683216 0
M  V30 62 H 5.461083 6.487654 -14.828534 0
M  V30 63 H 5.587517 3.429898 -21.077441 0
M  V30 64 H 7.198562 4.106598 -21.335439 0
M  V30 65 H 5.352690 4.435629 -18.993458 0
M  V30 66 H 6.577294 5.581045 -19.565544 0
M  V30 67 H 6.839271 5.524668 -10.313821 0
M  V30 68 H 7.881907 4.101163 -10.246671 0
M  V30 69 H 9.479878 2.203875 -18.552899 0
M  V30 70 H 8.675268 1.919423 -17.034366 0
M  V30 71 H 8.879692 9.142177 -10.167891 0
M  V30 72 H 10.238761 8.389304 -11.016704 0
M  V30 73 H 12.982595 8.472041 -3.387800 0
M  V30 74 H 13.085570 9.757398 -4.589628 0
M  V30 75 H 11.864980 9.832697 -3.301112 0
M  V30 76 H 9.796490 5.332663 -11.007667 0
M  V30 77 H 8.010863 7.199618 -9.619297 0
M  V30 78 H 8.085011 2.291455 -20.537896 0
M  V30 79 H 8.229234 4.310304 -18.654506 0
M  V30 END ATOM
M  V30 BEGIN BOND
M  V30 1 1 2 6 CFG=1
M  V30 2 1 9 3
M  V30 3 1 10 5
M  V30 4 1 13 2
M  V30 5 1 13 4
M  V30 6 1 13 11
M  V30 7 1 14 11
M  V30 8 1 15 1 CFG=1
M  V30 9 1 16 5
M  V30 10 1 16 7
M  V30 11 1 17 5
M  V30 12 1 17 16
M  V30 13 1 18 3
M  V30 14 1 18 7
M  V30 15 1 18 12
M  V30 16 1 20 15
M  V30 17 1 21 4
M  V30 18 1 13 21 CFG=3
M  V30 19 1 22 10
M  V30 20 1 23 2
M  V30 21 1 23 11
M  V30 22 1 24 2
M  V30 23 1 25 4
M  V30 24 1 25 19
M  V30 25 1 26 8
M  V30 26 1 27 7
M  V30 27 1 27 22
M  V30 28 1 28 26
M  V30 29 1 29 28
M  V30 30 2 30 20
M  V30 31 1 31 12
M  V30 32 1 32 8
M  V30 33 1 32 15
M  V30 34 1 33 15
M  V30 35 1 33 20
M  V30 36 1 34 8
M  V30 37 1 34 10
M  V30 38 1 34 29
M  V30 39 1 35 9
M  V30 40 1 35 24
M  V30 41 1 36 19
M  V30 42 1 37 3
M  V30 43 1 37 24
M  V30 44 1 37 31
M  V30 45 1 3 38 CFG=3
M  V30 46 1 4 39 CFG=1
M  V30 47 1 5 40 CFG=3
M  V30 48 1 41 6
M  V30 49 1 42 6
M  V30 50 1 43 6
M  V30 51 1 7 44 CFG=1
M  V30 52 1 8 45 CFG=1
M  V30 53 1 46 9
M  V30 54 1 47 9
M  V30 55 1 10 48 CFG=1
M  V30 56 1 11 49 CFG=3
M  V30 57 1 50 12
M  V30 58 1 51 12
M  V30 59 1 52 14
M  V30 60 1 16 53 CFG=3
M  V30 61 1 54 22
M  V30 62 1 55 22
M  V30 63 1 56 23
M  V30 64 1 57 23
M  V30 65 1 58 25
M  V30 66 1 59 25
M  V30 67 1 60 26
M  V30 68 1 61 27
M  V30 69 1 62 27
M  V30 70 1 63 28
M  V30 71 1 64 28
M  V30 72 1 65 29
M  V30 73 1 66 29
M  V30 74 1 67 31
M  V30 75 1 68 31
M  V30 76 1 69 32
M  V30 77 1 70 32
M  V30 78 1 71 35
M  V30 79 1 72 35
M  V30 80 1 73 36
M  V30 81 1 74 36
M  V30 82 1 75 36
M  V30 83 1 37 76 CFG=3
M  V30 84 1 24 77 CFG=1
M  V30 85 1 78 26
M  V30 86 1 34 79 CFG=3
M  V30 END BOND
M  V30 END CTAB
M  END
>  <i_epik_Tot_Q>  (1) 
3

>  <i_epik_Tot_abs_Q>  (1) 
3

>  <i_i_glide_confnum>  (1) 
237

>  <i_i_glide_lignum>  (1) 
84

>  <i_i_glide_posenum>  (1) 
254

>  <i_i_glide_rotatable_bonds>  (1) 
8

>  <i_lp_mmshare_version>  (1) 
72125

>  <i_m_source_file_index>  (1) 
29

>  <i_f3d_flags>  (1) 
0

>  <num_sample>  (1) 
50

>  <b_lp_Chiralities_Consistent>  (1) 
1

>  <r_epik_Charging_Adjusted_Penalty>  (1) 
2.5479580004866769

>  <r_epik_Ionization_Penalty>  (1) 
1.853674345886815

>  <r_epik_Ionization_Penalty_Charging>  (1) 
1.8530809818743854

>  <r_epik_Ionization_Penalty_Neutral>  (1) 
0.00059336401242958479

>  <r_epik_State_Penalty>  (1) 
0.69487701861229134

>  <r_glide_ring_energy>  (1) 
0.81914574756083292

>  <r_i_docking_score>  (1) 
-4.4440217704258513

>  <r_i_glide_ecoul>  (1) 
-12.288821545672507

>  <r_i_glide_eff_state_penalty>  (1) 
0.69487701861229134

>  <r_i_glide_einternal>  (1) 
12.938337171559063

>  <r_i_glide_emodel>  (1) 
-33.944707557098937

>  <r_i_glide_emodel_strain>  (1) 
3.6558349462378033

>  <r_i_glide_energy>  (1) 
-34.500218224601959

>  <r_i_glide_erotb>  (1) 
0.44698704239028575

>  <r_i_glide_esite>  (1) 
-0.10464534500021272

>  <r_i_glide_evdw>  (1) 
-22.211396678929454

>  <r_i_glide_gscore>  (1) 
-5.1388987890381426

>  <r_i_glide_gscore_strain>  (1) 
0

>  <r_i_glide_hbond>  (1) 
-0.072117665545451126

>  <r_i_glide_ligand_efficiency>  (1) 
-0.12010869649799598

>  <r_i_glide_ligand_efficiency_ln>  (1) 
-0.96380413935353215

>  <r_i_glide_ligand_efficiency_sa>  (1) 
-0.40022882304333407

>  <r_i_glide_lipo>  (1) 
-1.7425944161773401

>  <r_i_glide_metal>  (1) 
-0

>  <r_i_glide_rewards>  (1) 
-0.71263533890807573

>  <r_lp_Energy>  (1) 
62.908856

>  <s_epik_Chemistry_Notes>  (1) 
This compound has an ester and may undergo hydrolysis at high or low pH. This compound contains an acetal/aminal-like group ( X-CH(R)-Y where X, Y are N, S, or O) that may be acid/base labile, releasing an aldehyde.

>  <s_epik_cmdline>  (1) 
J2VwaWtfcHl0aG9uJywgJy1waHQnLCAnMS4wJywgJy1waCcsICc3LjQnLCAnLXRuJywgJzgnLCAnLW1hJywgJzUwMCcsICctaW1hZScsICc8aW5maWxlLm1hZT4nLCAnLW9tYWUnLCAnPG91dGZpbGUubWFlPic=

>  <s_epik_input>  (1) 
Tz1DKE8xKUMxKEYpW0NIMl1bQ0BASF0yW05IXVtDSDJdW0NIMl1OMltDQEBIXTNbQ0gyXVtDSDJdW0NASF0oW0NAQEhdKE80KVtDQEhdMzQpTjVbQ0gyXVtDSDJdW0NAQEhdKFtDQEhdNTYpTihbQ0gyXVtDSDJdNilbQ0BAXShbQ0gzXSkoW0NIMl1bQ0BASF03W09IXSlbQ0BAXTc4W0NASF0oTzgpW0NIMl1PW0NIM10=

>  <s_glide_docking_method>  (1) 
confgen

>  <s_i_glide_gridfile>  (1) 
gpcr_drd2_6luq_protein_autoprepared_prepared

>  <s_lp_Force_Field>  (1) 
S-OPLS

>  <s_lp_Variant>  (1) 
DiffSBDD_28-7

>  <s_m_source_file>  (1) 
generated_generic_title2_ligand_DiffSBDD_2026-06-23_prepared.sdf

>  <GenAI_Model>  (1) 
DiffSBDD

>  <Protein>  (1) 
generic_title2

$$$$
DiffSBDD_39
     RDKit          3D

  0  0  0  0  0  0  0  0  0  0999 V3000
M  V30 BEGIN CTAB
M  V30 COUNTS 68 71 0 0 1
M  V30 BEGIN ATOM
M  V30 1 C 8.062747 0.853562 -14.093109 0
M  V30 2 F 7.532150 7.589189 -14.582047 0
M  V30 3 F 7.731108 5.464313 -14.967148 0
M  V30 4 C 8.497860 4.916350 -19.049799 0
M  V30 5 C 7.938819 0.264249 -16.584834 0
M  V30 6 C 6.000655 -0.773733 -17.574134 0 CFG=1
M  V30 7 O 8.935546 5.266521 -17.754511 0
M  V30 8 C 7.420045 5.052594 -11.871774 0 CFG=2
M  V30 9 C 5.235041 0.217012 -13.813582 0
M  V30 10 C 6.607342 1.514165 -18.302774 0 CFG=2
M  V30 11 O 5.457524 6.390218 -11.185036 0
M  V30 12 C 6.193651 0.246876 -12.611693 0
M  V30 13 N 7.310211 1.202333 -12.858923 0 CFG=2 CHG=1
M  V30 14 C 5.750176 6.223917 -13.975685 0
M  V30 15 C 7.155808 0.728979 -15.338475 0 CFG=1
M  V30 16 C 6.850136 2.617431 -12.784986 0
M  V30 17 O 5.375915 5.125016 -13.138682 0
M  V30 18 C 5.165186 -0.496370 -16.300236 0
M  V30 19 N 7.082151 0.207166 -17.785813 0
M  V30 20 C 7.331013 3.912141 -18.987247 0 CFG=1
M  V30 21 C 6.754678 3.680466 -20.391560 0
M  V30 22 C 7.930707 3.646484 -12.366563 0
M  V30 23 C 6.017285 -0.259724 -15.048590 0 CFG=2
M  V30 24 C 5.867018 5.201384 -11.829467 0 CFG=1
M  V30 25 C 7.959191 6.176270 -12.750425 0
M  V30 26 C 5.586435 2.693980 -20.347448 0
M  V30 27 C 7.276337 6.373142 -14.104192 0
M  V30 28 O 8.897634 6.884342 -12.385763 0
M  V30 29 C 6.006557 1.355148 -19.725784 0
M  V30 30 O 6.609475 -2.049538 -17.584964 0
M  V30 31 C 7.749579 2.568322 -18.350198 0
M  V30 32 H 8.576339 -0.093261 -13.925667 0
M  V30 33 H 8.837516 1.590200 -14.256470 0
M  V30 34 H 8.183483 5.830022 -19.556591 0
M  V30 35 H 9.334915 4.508338 -19.618239 0
M  V30 36 H 8.355220 -0.725379 -16.394403 0
M  V30 37 H 8.814715 0.888132 -16.754484 0
M  V30 38 H 5.325682 -0.807829 -18.423956 0
M  V30 39 H 9.310979 4.502602 -17.345012 0
M  V30 40 H 7.785443 5.215726 -10.857155 0
M  V30 41 H 4.379539 -0.409772 -13.595028 0
M  V30 42 H 4.794792 1.191516 -13.985050 0
M  V30 43 H 5.828640 1.896287 -17.644024 0
M  V30 44 H 6.126538 6.687426 -10.566367 0
M  V30 45 H 6.591244 -0.753871 -12.442342 0
M  V30 46 H 5.662032 0.497285 -11.693455 0
M  V30 47 H 5.316429 7.151063 -13.599248 0
M  V30 48 H 5.311522 6.067514 -14.961444 0
M  V30 49 H 6.728369 1.708524 -15.549485 0
M  V30 50 H 6.365796 2.921312 -13.711948 0
M  V30 51 H 6.083151 2.618824 -12.019178 0
M  V30 52 H 4.453385 -1.304203 -16.129980 0
M  V30 53 H 4.571973 0.390241 -16.468180 0
M  V30 54 H 6.543269 4.349921 -18.371489 0
M  V30 55 H 6.416438 4.625455 -20.819076 0
M  V30 56 H 7.531145 3.300470 -21.057431 0
M  V30 57 H 8.565917 3.226702 -11.585061 0
M  V30 58 H 8.619890 3.766933 -13.203923 0
M  V30 59 H 6.460054 -1.209763 -14.785079 0
M  V30 60 H 5.407946 4.412507 -11.236342 0
M  V30 61 H 4.767268 3.126283 -19.774221 0
M  V30 62 H 5.203872 2.529081 -21.354997 0
M  V30 63 H 5.118962 0.726622 -19.726345 0
M  V30 64 H 6.730647 0.865533 -20.378305 0
M  V30 65 H 6.765993 -2.332858 -16.694089 0
M  V30 66 H 8.602255 2.158365 -18.894354 0
M  V30 67 H 8.092801 2.787687 -17.340359 0
M  V30 68 H 7.959536 1.086402 -12.090068 0
M  V30 END ATOM
M  V30 BEGIN BOND
M  V30 1 1 7 4
M  V30 2 1 12 9
M  V30 3 1 13 1
M  V30 4 1 13 12
M  V30 5 1 15 1
M  V30 6 1 15 5
M  V30 7 1 16 13
M  V30 8 1 17 14
M  V30 9 1 18 6
M  V30 10 1 19 5
M  V30 11 1 19 6
M  V30 12 1 19 10
M  V30 13 1 20 4
M  V30 14 1 21 20
M  V30 15 1 22 8
M  V30 16 1 22 16
M  V30 17 1 23 9
M  V30 18 1 23 15
M  V30 19 1 23 18
M  V30 20 1 24 8
M  V30 21 1 24 11
M  V30 22 1 24 17
M  V30 23 1 25 8
M  V30 24 1 26 21
M  V30 25 1 27 2
M  V30 26 1 27 3
M  V30 27 1 27 14
M  V30 28 1 27 25
M  V30 29 2 28 25
M  V30 30 1 29 10
M  V30 31 1 29 26
M  V30 32 1 30 6
M  V30 33 1 31 10
M  V30 34 1 31 20
M  V30 35 1 32 1
M  V30 36 1 33 1
M  V30 37 1 34 4
M  V30 38 1 35 4
M  V30 39 1 36 5
M  V30 40 1 37 5
M  V30 41 1 6 38 CFG=3
M  V30 42 1 39 7
M  V30 43 1 8 40 CFG=1
M  V30 44 1 41 9
M  V30 45 1 42 9
M  V30 46 1 10 43 CFG=1
M  V30 47 1 44 11
M  V30 48 1 45 12
M  V30 49 1 46 12
M  V30 50 1 47 14
M  V30 51 1 48 14
M  V30 52 1 15 49 CFG=3
M  V30 53 1 50 16
M  V30 54 1 51 16
M  V30 55 1 52 18
M  V30 56 1 53 18
M  V30 57 1 20 54 CFG=1
M  V30 58 1 55 21
M  V30 59 1 56 21
M  V30 60 1 57 22
M  V30 61 1 58 22
M  V30 62 1 23 59 CFG=1
M  V30 63 1 24 60 CFG=1
M  V30 64 1 61 26
M  V30 65 1 62 26
M  V30 66 1 63 29
M  V30 67 1 64 29
M  V30 68 1 65 30
M  V30 69 1 66 31
M  V30 70 1 67 31
M  V30 71 1 13 68 CFG=1
M  V30 END BOND
M  V30 END CTAB
M  END
>  <i_epik_Tot_Q>  (1) 
1

>  <i_epik_Tot_abs_Q>  (1) 
1

>  <i_i_glide_confnum>  (1) 
26

>  <i_i_glide_lignum>  (1) 
110

>  <i_i_glide_posenum>  (1) 
198

>  <i_i_glide_rotatable_bonds>  (1) 
8

>  <i_lp_mmshare_version>  (1) 
72125

>  <i_m_source_file_index>  (1) 
40

>  <i_f3d_flags>  (1) 
0

>  <num_sample>  (1) 
50

>  <b_lp_Chiralities_Consistent>  (1) 
1

>  <r_epik_Charging_Adjusted_Penalty>  (1) 
0.93182942678714009

>  <r_epik_Ionization_Penalty>  (1) 
0.32046720352224994

>  <r_epik_Ionization_Penalty_Charging>  (1) 
0.0037689991519664944

>  <r_epik_Ionization_Penalty_Neutral>  (1) 
0.31669820437028345

>  <r_epik_State_Penalty>  (1) 
0.9280604276351736

>  <r_glide_ring_energy>  (1) 
1.2534239858202048

>  <r_i_docking_score>  (1) 
-4.4435599203028691

>  <r_i_glide_ecoul>  (1) 
-8.108557405972558

>  <r_i_glide_eff_state_penalty>  (1) 
0.9280604276351736

>  <r_i_glide_einternal>  (1) 
18.138401075343076

>  <r_i_glide_emodel>  (1) 
-35.221130051446394

>  <r_i_glide_emodel_strain>  (1) 
3.5967320702151255

>  <r_i_glide_energy>  (1) 
-36.063973985004338

>  <r_i_glide_erotb>  (1) 
0.49989103335302049

>  <r_i_glide_esite>  (1) 
-0.031385990500346114

>  <r_i_glide_evdw>  (1) 
-27.955416579031784

>  <r_i_glide_gscore>  (1) 
-5.3716203479380429

>  <r_i_glide_gscore_strain>  (1) 
0

>  <r_i_glide_hbond>  (1) 
-0.44862776885022215

>  <r_i_glide_ligand_efficiency>  (1) 
-0.14334064259041512

>  <r_i_glide_ligand_efficiency_ln>  (1) 
-1.0021589407854041

>  <r_i_glide_ligand_efficiency_sa>  (1) 
-0.45028752133487987

>  <r_i_glide_lipo>  (1) 
-1.6373458006521062

>  <r_i_glide_metal>  (1) 
-0

>  <r_i_glide_rewards>  (1) 
-1.1400973814409165

>  <r_lp_Energy>  (1) 
48.475696999999997

>  <s_epik_Chemistry_Notes>  (1) 
This compound contains an acetal/aminal-like group ( X-CH(R)-Y where X, Y are N, S, or O) that may be acid/base labile, releasing an aldehyde.

>  <s_epik_cmdline>  (1) 
J2VwaWtfcHl0aG9uJywgJy1waHQnLCAnMS4wJywgJy1waCcsICc3LjQnLCAnLXRuJywgJzgnLCAnLW1hJywgJzUwMCcsICctaW1hZScsICc8aW5maWxlLm1hZT4nLCAnLW9tYWUnLCAnPG91dGZpbGUubWFlPic=

>  <s_epik_input>  (1) 
RkMxKEYpW0NIMl1PW0NASF0oW09IXSlbQ0BIXShDMT1PKVtDSDJdW0NIMl1OKFtDSDJdMilbQ0gyXVtDSDJdW0NASF0oW0NAQEhdMjMpW0NIMl1bQ0BIXShbT0hdKU4oW0NIMl0zKVtDQEBIXTRbQ0gyXVtDSDJdW0NIMl1bQ0BASF0oW0NIMl00KVtDSDJdW09IXQ==

>  <s_glide_docking_method>  (1) 
confgen

>  <s_i_glide_gridfile>  (1) 
gpcr_drd2_6luq_protein_autoprepared_prepared

>  <s_lp_Force_Field>  (1) 
S-OPLS

>  <s_lp_Variant>  (1) 
DiffSBDD_39-6

>  <s_m_source_file>  (1) 
generated_generic_title2_ligand_DiffSBDD_2026-06-23_prepared.sdf

>  <GenAI_Model>  (1) 
DiffSBDD

>  <Protein>  (1) 
generic_title2

$$$$
DiffSBDD_11
     RDKit          3D

  0  0  0  0  0  0  0  0  0  0999 V3000
M  V30 BEGIN CTAB
M  V30 COUNTS 46 47 0 0 1
M  V30 BEGIN ATOM
M  V30 1 N 10.033670 6.703288 -8.746199 0
M  V30 2 O 7.058820 3.424093 -14.993191 0
M  V30 3 C 11.559410 8.093022 -9.084241 0
M  V30 4 C 5.205057 1.479155 -13.585057 0
M  V30 5 O 8.410754 5.193514 -8.067242 0
M  V30 6 N 10.841826 7.190254 -9.709209 0
M  V30 7 C 11.760277 9.182572 -6.764037 0
M  V30 8 N 12.575411 8.790244 -9.718013 0
M  V30 9 C 10.217113 7.358084 -7.522964 0
M  V30 10 C 9.104821 5.610837 -8.993048 0
M  V30 11 C 11.209979 8.281275 -7.712761 0
M  V30 12 C 5.865410 0.790225 -14.778038 0
M  V30 13 C 7.556250 2.661721 -13.914140 0 CFG=1
M  V30 14 C 7.583027 3.522487 -12.647373 0
M  V30 15 C 6.478411 -0.375291 -11.901507 0
M  V30 16 C 9.052221 4.998427 -10.391467 0
M  V30 17 C 8.121988 4.962855 -12.761061 0
M  V30 18 C 9.437812 7.025877 -6.287710 0
M  V30 19 N 7.358376 0.390218 -12.821083 0 CHG=1
M  V30 20 N 12.199561 9.916860 -5.985014 0
M  V30 21 C 6.709338 1.406539 -13.687647 0
M  V30 22 C 8.123920 5.692626 -11.398736 0
M  V30 23 H 6.207173 3.762142 -14.762433 0
M  V30 24 H 4.575415 0.790213 -13.047013 0
M  V30 25 H 4.830586 2.499950 -13.585030 0
M  V30 26 H 13.129177 9.489176 -9.236129 0
M  V30 27 H 12.788072 8.634374 -10.691153 0
M  V30 28 H 5.836808 1.267367 -15.754276 0
M  V30 29 H 5.798600 -0.296386 -14.819181 0
M  V30 30 H 8.568407 2.356520 -14.175851 0
M  V30 31 H 6.594144 3.555563 -12.187832 0
M  V30 32 H 8.232171 2.965284 -11.985032 0
M  V30 33 H 6.975410 -1.232065 -11.466279 0
M  V30 34 H 6.109030 0.260693 -11.096991 0
M  V30 35 H 5.625094 -0.809773 -12.401582 0
M  V30 36 H 8.712646 3.990235 -10.226003 0
M  V30 37 H 10.049740 4.914023 -10.815627 0
M  V30 38 H 9.129836 4.949223 -13.178213 0
M  V30 39 H 7.510056 5.533488 -13.460512 0
M  V30 40 H 9.775278 7.634456 -5.449971 0
M  V30 41 H 8.372238 7.209391 -6.418658 0
M  V30 42 H 9.586285 5.990262 -5.990263 0
M  V30 43 H 7.823080 -0.267467 -13.431479 0
M  V30 44 H 8.447217 6.724884 -11.540207 0
M  V30 45 H 7.109860 5.748412 -10.997956 0
M  V30 46 H 8.063813 0.845294 -12.255127 0
M  V30 END ATOM
M  V30 BEGIN BOND
M  V30 1 1 6 1
M  V30 2 2 6 3
M  V30 3 1 8 3
M  V30 4 1 9 1
M  V30 5 1 10 1
M  V30 6 2 10 5
M  V30 7 1 11 3
M  V30 8 1 11 7
M  V30 9 2 11 9
M  V30 10 1 12 4
M  V30 11 1 13 2
M  V30 12 1 14 13
M  V30 13 1 16 10
M  V30 14 1 17 14
M  V30 15 1 18 9
M  V30 16 1 19 15
M  V30 17 3 20 7
M  V30 18 1 21 4
M  V30 19 1 21 12
M  V30 20 1 21 13
M  V30 21 1 21 19
M  V30 22 1 22 16
M  V30 23 1 22 17
M  V30 24 1 23 2
M  V30 25 1 24 4
M  V30 26 1 25 4
M  V30 27 1 26 8
M  V30 28 1 27 8
M  V30 29 1 28 12
M  V30 30 1 29 12
M  V30 31 1 13 30 CFG=3
M  V30 32 1 31 14
M  V30 33 1 32 14
M  V30 34 1 33 15
M  V30 35 1 34 15
M  V30 36 1 35 15
M  V30 37 1 36 16
M  V30 38 1 37 16
M  V30 39 1 38 17
M  V30 40 1 39 17
M  V30 41 1 40 18
M  V30 42 1 41 18
M  V30 43 1 42 18
M  V30 44 1 43 19
M  V30 45 1 44 22
M  V30 46 1 45 22
M  V30 47 1 46 19
M  V30 END BOND
M  V30 END CTAB
M  END
>  <i_epik_Tot_Q>  (1) 
1

>  <i_epik_Tot_abs_Q>  (1) 
1

>  <i_i_glide_confnum>  (1) 
166

>  <i_i_glide_lignum>  (1) 
46

>  <i_i_glide_posenum>  (1) 
166

>  <i_i_glide_rotatable_bonds>  (1) 
9

>  <i_lp_mmshare_version>  (1) 
72125

>  <i_m_source_file_index>  (1) 
12

>  <i_f3d_flags>  (1) 
0

>  <num_sample>  (1) 
50

>  <b_lp_Chiralities_Consistent>  (1) 
1

>  <r_epik_Charging_Adjusted_Penalty>  (1) 
0.78432572632575315

>  <r_epik_Ionization_Penalty>  (1) 
0.3972836053020487

>  <r_epik_Ionization_Penalty_Charging>  (1) 
0.39216286316287657

>  <r_epik_Ionization_Penalty_Neutral>  (1) 
0.0051207421391721471

>  <r_epik_State_Penalty>  (1) 
0.39216286316287657

>  <r_glide_ring_energy>  (1) 
0

>  <r_i_docking_score>  (1) 
-4.4400973293435531

>  <r_i_glide_ecoul>  (1) 
-6.0894803946780476

>  <r_i_glide_eff_state_penalty>  (1) 
0.39216286316287657

>  <r_i_glide_einternal>  (1) 
4.6367504687845678

>  <r_i_glide_emodel>  (1) 
-45.928482132872809

>  <r_i_glide_emodel_strain>  (1) 
1.9648473494635539

>  <r_i_glide_energy>  (1) 
-34.471207758940849

>  <r_i_glide_erotb>  (1) 
1.377350469870575

>  <r_i_glide_esite>  (1) 
-0.13539507533958697

>  <r_i_glide_evdw>  (1) 
-28.381727364262805

>  <r_i_glide_gscore>  (1) 
-4.8322601925064292

>  <r_i_glide_gscore_strain>  (1) 
0

>  <r_i_glide_hbond>  (1) 
-0.22052146096737704

>  <r_i_glide_ligand_efficiency>  (1) 
-0.20182260587925241

>  <r_i_glide_ligand_efficiency_ln>  (1) 
-1.0853217437767479

>  <r_i_glide_ligand_efficiency_sa>  (1) 
-0.56551487948902646

>  <r_i_glide_lipo>  (1) 
-1.1763756108950048

>  <r_i_glide_metal>  (1) 
-0

>  <r_i_glide_rewards>  (1) 
-2.3448100877601878

>  <r_lp_Energy>  (1) 
18.601261000000001

>  <s_epik_cmdline>  (1) 
J2VwaWtfcHl0aG9uJywgJy1waHQnLCAnMS4wJywgJy1waCcsICc3LjQnLCAnLXRuJywgJzgnLCAnLW1hJywgJzUwMCcsICctaW1hZScsICc8aW5maWxlLm1hZT4nLCAnLW9tYWUnLCAnPG91dGZpbGUubWFlPic=

>  <s_epik_input>  (1) 
W0NIM11jMWMoQyNOKWMoW05IMl0pbm4xQyg9TylbQ0gyXVtDSDJdW0NIMl1bQ0gyXVtDQEhdKFtPSF0pQzIoW0NIMl1bQ0gyXTIpW05IXVtDSDNd

>  <s_glide_docking_method>  (1) 
confgen

>  <s_i_glide_gridfile>  (1) 
gpcr_drd2_6luq_protein_autoprepared_prepared

>  <s_lp_Force_Field>  (1) 
S-OPLS

>  <s_lp_Variant>  (1) 
DiffSBDD_11-1

>  <s_m_source_file>  (1) 
generated_generic_title2_ligand_DiffSBDD_2026-06-23_prepared.sdf

>  <GenAI_Model>  (1) 
DiffSBDD

>  <Protein>  (1) 
generic_title2

$$$$
DiffSBDD_0
     RDKit          3D

  0  0  0  0  0  0  0  0  0  0999 V3000
M  V30 BEGIN CTAB
M  V30 COUNTS 70 74 0 0 1
M  V30 BEGIN ATOM
M  V30 1 C 10.119793 6.869313 -5.908879 0
M  V30 2 N 7.482400 5.011700 -14.125457 0
M  V30 3 C 7.601528 5.071761 -18.303807 0 CFG=1
M  V30 4 C 8.792353 6.232149 -12.469697 0
M  V30 5 F 12.175403 8.856679 -6.630288 0
M  V30 6 C 6.804542 6.183912 -14.682510 0
M  V30 7 C 9.066147 7.284014 -6.933469 0
M  V30 8 C 9.860702 7.450248 -10.768337 0
M  V30 9 C 10.888351 8.230705 -8.477872 0 CFG=1
M  V30 10 C 10.145322 4.443953 -18.407613 0
M  V30 11 C 7.241820 3.774564 -14.858167 0 CFG=1
M  V30 12 C 6.770552 0.655396 -12.985599 0
M  V30 13 C 8.782082 4.444601 -19.034628 0 CFG=1
M  V30 14 O 9.775421 6.246642 -11.520839 0
M  V30 15 C 11.936401 7.812211 -7.425967 0 CFG=2
M  V30 16 C 7.613815 3.593854 -18.542183 0 CFG=1
M  V30 17 N 7.761099 5.259875 -16.836656 0 CFG=2 CHG=1
M  V30 18 C 10.828995 7.185007 -9.610990 0
M  V30 19 C 6.686941 2.174837 -13.222257 0
M  V30 20 C 7.984075 3.926001 -16.194456 0 CFG=2
M  V30 21 O 5.885376 -0.009769 -13.870200 0
M  V30 22 C 9.546145 8.484145 -7.757826 0
M  V30 23 N 10.895694 3.313548 -18.265917 0
M  V30 24 C 6.666308 6.069593 -16.223504 0
M  V30 25 N 10.688226 5.569397 -17.939007 0
M  V30 26 O 11.915880 5.152823 -17.399661 0
M  V30 27 C 11.941911 3.827383 -17.641264 0
M  V30 28 O 7.603863 2.581687 -14.235665 0
M  V30 29 N 13.074716 3.175177 -17.185031 0
M  V30 30 C 8.462047 5.110373 -13.136607 0
M  V30 31 C 11.467003 6.604553 -6.574770 0
M  V30 32 C 14.241919 3.664837 -16.475708 0
M  V30 33 C 7.591039 2.861486 -17.224316 0
M  V30 34 H 10.236179 7.669219 -5.179844 0
M  V30 35 H 9.787920 5.990271 -5.356987 0
M  V30 36 H 6.894129 5.715592 -18.823440 0
M  V30 37 H 8.332871 7.200005 -12.612534 0
M  V30 38 H 5.829485 6.314407 -14.210748 0
M  V30 39 H 7.375673 7.087709 -14.477316 0
M  V30 40 H 8.175409 7.567969 -6.385051 0
M  V30 41 H 8.792591 6.450169 -7.580737 0
M  V30 42 H 10.194394 8.280354 -11.390207 0
M  V30 43 H 8.882264 7.709488 -10.385085 0
M  V30 44 H 11.211807 9.170968 -8.926563 0
M  V30 45 H 6.175409 3.730829 -15.053400 0
M  V30 46 H 6.450228 0.425248 -11.969148 0
M  V30 47 H 7.791070 0.286943 -13.095727 0
M  V30 48 H 8.859482 4.617155 -20.106466 0
M  V30 49 H 12.888853 7.590234 -7.908125 0
M  V30 50 H 6.963495 3.188811 -19.315538 0
M  V30 51 H 10.574758 6.213779 -9.188347 0
M  V30 52 H 11.829183 7.089143 -10.032440 0
M  V30 53 H 5.654307 2.446184 -13.448177 0
M  V30 54 H 6.949239 2.723098 -12.320784 0
M  V30 55 H 9.050847 3.845197 -15.983398 0
M  V30 56 H 5.733474 -0.910848 -13.585024 0
M  V30 57 H 9.678461 9.303200 -7.057134 0
M  V30 58 H 8.779832 8.819622 -8.450278 0
M  V30 59 H 5.715757 5.590221 -16.458949 0
M  V30 60 H 6.614386 7.061537 -16.674682 0
M  V30 61 H 13.084575 2.180121 -17.354353 0
M  V30 62 H 8.964342 4.174606 -12.935266 0
M  V30 63 H 12.175408 6.363757 -5.789505 0
M  V30 64 H 11.394097 5.705529 -7.185164 0
M  V30 65 H 14.841878 2.829379 -16.114740 0
M  V30 66 H 14.856909 4.278588 -17.133531 0
M  V30 67 H 13.943230 4.268984 -15.617880 0
M  V30 68 H 6.585540 2.476304 -17.050017 0
M  V30 69 H 8.279785 2.015773 -17.232433 0
M  V30 70 H 8.612232 5.786088 -16.685372 0
M  V30 END ATOM
M  V30 BEGIN BOND
M  V30 1 1 6 2
M  V30 2 1 7 1
M  V30 3 1 11 2
M  V30 4 1 13 3
M  V30 5 1 13 10
M  V30 6 1 14 4
M  V30 7 1 14 8
M  V30 8 1 15 5
M  V30 9 1 15 9
M  V30 10 1 16 3
M  V30 11 1 16 13
M  V30 12 1 17 3
M  V30 13 1 18 8
M  V30 14 1 18 9
M  V30 15 1 19 12
M  V30 16 1 20 11
M  V30 17 1 20 17
M  V30 18 1 21 12
M  V30 19 1 22 7
M  V30 20 1 22 9
M  V30 21 1 23 10
M  V30 22 1 24 6
M  V30 23 1 24 17
M  V30 24 2 25 10
M  V30 25 1 26 25
M  V30 26 2 27 23
M  V30 27 1 27 26
M  V30 28 1 28 11
M  V30 29 1 28 19
M  V30 30 1 29 27
M  V30 31 1 30 2
M  V30 32 2 30 4
M  V30 33 1 31 1
M  V30 34 1 31 15
M  V30 35 1 32 29
M  V30 36 1 33 16
M  V30 37 1 33 20
M  V30 38 1 34 1
M  V30 39 1 35 1
M  V30 40 1 3 36 CFG=3
M  V30 41 1 37 4
M  V30 42 1 38 6
M  V30 43 1 39 6
M  V30 44 1 40 7
M  V30 45 1 41 7
M  V30 46 1 42 8
M  V30 47 1 43 8
M  V30 48 1 9 44 CFG=3
M  V30 49 1 11 45 CFG=3
M  V30 50 1 46 12
M  V30 51 1 47 12
M  V30 52 1 13 48 CFG=3
M  V30 53 1 15 49 CFG=3
M  V30 54 1 16 50 CFG=3
M  V30 55 1 51 18
M  V30 56 1 52 18
M  V30 57 1 53 19
M  V30 58 1 54 19
M  V30 59 1 20 55 CFG=1
M  V30 60 1 56 21
M  V30 61 1 57 22
M  V30 62 1 58 22
M  V30 63 1 59 24
M  V30 64 1 60 24
M  V30 65 1 61 29
M  V30 66 1 62 30
M  V30 67 1 63 31
M  V30 68 1 64 31
M  V30 69 1 65 32
M  V30 70 1 66 32
M  V30 71 1 67 32
M  V30 72 1 68 33
M  V30 73 1 69 33
M  V30 74 1 17 70 CFG=3
M  V30 END BOND
M  V30 END CTAB
M  END
>  <i_epik_Tot_Q>  (1) 
1

>  <i_epik_Tot_abs_Q>  (1) 
1

>  <i_i_glide_confnum>  (1) 
353

>  <i_i_glide_lignum>  (1) 
5

>  <i_i_glide_posenum>  (1) 
149

>  <i_i_glide_rotatable_bonds>  (1) 
11

>  <i_lp_mmshare_version>  (1) 
72125

>  <i_m_source_file_index>  (1) 
1

>  <i_f3d_flags>  (1) 
0

>  <num_sample>  (1) 
50

>  <b_lp_Chiralities_Consistent>  (1) 
1

>  <r_epik_Charging_Adjusted_Penalty>  (1) 
0.41344222577729461

>  <r_epik_Ionization_Penalty>  (1) 
0.0027644559619576371

>  <r_epik_Ionization_Penalty_Charging>  (1) 
0.0027623868246906495

>  <r_epik_Ionization_Penalty_Neutral>  (1) 
2.0691372669875143e-06

>  <r_epik_State_Penalty>  (1) 
0.41067983895260396

>  <r_glide_ring_energy>  (1) 
1.2887488819258046

>  <r_i_docking_score>  (1) 
-4.438826199149049

>  <r_i_glide_ecoul>  (1) 
-2.7065222810073095

>  <r_i_glide_eff_state_penalty>  (1) 
0.41067983895260396

>  <r_i_glide_einternal>  (1) 
8.3848931801544726

>  <r_i_glide_emodel>  (1) 
-43.743364667524332

>  <r_i_glide_emodel_strain>  (1) 
0.82758104630748619

>  <r_i_glide_energy>  (1) 
-36.541125457737614

>  <r_i_glide_erotb>  (1) 
0.74142510397790429

>  <r_i_glide_esite>  (1) 
0

>  <r_i_glide_evdw>  (1) 
-33.834603176730305

>  <r_i_glide_gscore>  (1) 
-4.8495060381016533

>  <r_i_glide_gscore_strain>  (1) 
0

>  <r_i_glide_hbond>  (1) 
-0.16

>  <r_i_glide_ligand_efficiency>  (1) 
-0.13450988482269846

>  <r_i_glide_ligand_efficiency_ln>  (1) 
-0.98717196367871363

>  <r_i_glide_ligand_efficiency_sa>  (1) 
-0.43144507329258991

>  <r_i_glide_lipo>  (1) 
-2.0380577781211868

>  <r_i_glide_metal>  (1) 
-0

>  <r_i_glide_rewards>  (1) 
-1.2951648629707597

>  <r_lp_Energy>  (1) 
43.260881999999995

>  <r_lp_tautomer_probability>  (1) 
0.5

>  <s_epik_Chemistry_Notes>  (1) 
This compound has an imine and may undergo hydrolysis. This compound contains an acetal/aminal-like group ( X-CH(R)-Y where X, Y are N, S, or O) that may be acid/base labile, releasing an aldehyde.

>  <s_epik_cmdline>  (1) 
J2VwaWtfcHl0aG9uJywgJy1waHQnLCAnMS4wJywgJy1waCcsICc3LjQnLCAnLXRuJywgJzgnLCAnLW1hJywgJzUwMCcsICctaW1hZScsICc8aW5maWxlLm1hZT4nLCAnLW9tYWUnLCAnPG91dGZpbGUubWFlPic=

>  <s_epik_input>  (1) 
W0NIMl0xW0NIMl1bQ0gyXVtDSDJdW0NASF0oRilbQ0BIXTFbQ0gyXVtDSDJdTy9bQ0hdPVtDSF0vTihbQ0BIXTJPW0NIMl1bQ0gyXVtPSF0pW0NIMl1bQ0gyXU4zW0NAQEhdMltDSDJdW0NAQEhdKFtDQEBIXTM0KVtDQEBIXTRjNW5jKG9uNSlbTkhdW0NIM10=

>  <s_glide_docking_method>  (1) 
confgen

>  <s_i_glide_gridfile>  (1) 
gpcr_drd2_6luq_protein_autoprepared_prepared

>  <s_lp_Force_Field>  (1) 
S-OPLS

>  <s_lp_Variant>  (1) 
DiffSBDD_0-5

>  <s_m_source_file>  (1) 
generated_generic_title2_ligand_DiffSBDD_2026-06-23_prepared.sdf

>  <GenAI_Model>  (1) 
DiffSBDD

>  <Protein>  (1) 
generic_title2

$$$$
DiffSBDD_8
     RDKit          3D

  0  0  0  0  0  0  0  0  0  0999 V3000
M  V30 BEGIN CTAB
M  V30 COUNTS 69 72 0 0 1
M  V30 BEGIN ATOM
M  V30 1 N 11.600067 7.677812 -7.313097 0
M  V30 2 C 11.250178 9.765925 -4.126141 0
M  V30 3 C 9.335005 5.799800 -9.598237 0 CFG=1
M  V30 4 N 11.839217 7.939776 -2.823181 0
M  V30 5 O 11.775136 7.190301 -11.126313 0
M  V30 6 C 7.317215 8.078643 -12.179301 0
M  V30 7 F 10.786365 6.372842 -4.064636 0
M  V30 8 C 5.975905 7.476951 -12.639388 0
M  V30 9 N 8.361994 7.081020 -12.100498 0
M  V30 10 C 9.547319 7.601780 -11.454009 0 CFG=1
M  V30 11 C 11.623882 7.395994 -4.154740 0 CFG=1
M  V30 12 C 5.941305 1.818783 -13.648332 0
M  V30 13 C 9.704877 7.245347 -9.974875 0 CFG=2
M  V30 14 O 10.574649 5.624932 -12.384982 0
M  V30 15 O 12.975415 7.279933 -2.272271 0
M  V30 16 C 5.642260 6.132122 -11.970011 0
M  V30 17 C 11.605711 8.932781 -9.558461 0
M  V30 18 C 11.309309 6.313172 -6.878160 0
M  V30 19 C 12.082825 7.804438 -8.668749 0 CFG=2
M  V30 20 C 10.991565 8.518292 -5.023803 0 CFG=2
M  V30 21 C 11.496748 8.751773 -6.469403 0
M  V30 22 C 8.655547 5.414605 -8.298134 0
M  V30 23 C 10.788577 6.989264 -12.091110 0 CFG=2
M  V30 24 C 11.180653 7.522999 -9.868642 0 CFG=2
M  V30 25 O 6.550677 0.546988 -13.735391 0
M  V30 26 O 11.775632 9.889132 -6.824482 0
M  V30 27 C 6.449391 2.505347 -12.385718 0
M  V30 28 C 12.587258 5.990354 -1.815963 0
M  V30 29 C 12.245645 9.307754 -3.064235 0
M  V30 30 O 5.841315 3.746965 -12.055167 0
M  V30 31 C 6.174445 4.879530 -12.685037 0
M  V30 32 N 7.913752 5.590172 -9.518672 0 CHG=1
M  V30 33 O 6.838051 4.945146 -13.721170 0
M  V30 34 H 11.639596 10.638103 -4.642640 0
M  V30 35 H 10.358166 10.137262 -3.631651 0
M  V30 36 H 9.775439 4.987515 -10.164362 0
M  V30 37 H 7.666165 8.837142 -12.874192 0
M  V30 38 H 7.193923 8.606002 -11.229240 0
M  V30 39 H 5.952875 7.385756 -13.724795 0
M  V30 40 H 5.174976 8.172475 -12.384534 0
M  V30 41 H 8.589926 6.729015 -13.027349 0
M  V30 42 H 9.621015 8.682651 -11.591489 0
M  V30 43 H 12.575410 7.009021 -4.499156 0
M  V30 44 H 6.176521 2.401292 -14.538666 0
M  V30 45 H 4.861654 1.677992 -13.585026 0
M  V30 46 H 9.157762 7.937057 -9.336566 0
M  V30 47 H 11.298709 5.286990 -12.903979 0
M  V30 48 H 4.575499 6.025272 -11.884185 0
M  V30 49 H 5.981416 6.140729 -10.937731 0
M  V30 50 H 12.338740 9.403722 -10.211296 0
M  V30 51 H 10.828304 9.590223 -9.184773 0
M  V30 52 H 10.351056 6.239303 -6.368910 0
M  V30 53 H 11.259193 5.635102 -7.725481 0
M  V30 54 H 12.101507 5.899928 -6.256429 0
M  V30 55 H 13.141524 7.590745 -8.793834 0
M  V30 56 H 9.926761 8.347007 -5.184874 0
M  V30 57 H 8.579710 4.373780 -7.993649 0
M  V30 58 H 8.340470 6.172527 -7.585365 0
M  V30 59 H 11.067692 7.482660 -13.021793 0
M  V30 60 H 6.050366 -0.000751 -14.323145 0
M  V30 61 H 6.175264 1.825415 -11.585092 0
M  V30 62 H 7.536279 2.606249 -12.394823 0
M  V30 63 H 13.375612 5.558425 -1.203883 0
M  V30 64 H 11.675510 5.999120 -1.219691 0
M  V30 65 H 12.449089 5.319188 -2.657328 0
M  V30 66 H 13.262340 9.350306 -3.456785 0
M  V30 67 H 12.189551 9.904272 -2.152036 0
M  V30 68 H 7.399142 6.488831 -9.585160 0
M  V30 69 H 7.578343 4.769681 -9.999515 0
M  V30 END ATOM
M  V30 BEGIN BOND
M  V30 1 1 8 6
M  V30 2 1 9 6
M  V30 3 1 10 9
M  V30 4 1 11 4
M  V30 5 1 11 7
M  V30 6 1 13 3
M  V30 7 1 13 10
M  V30 8 1 15 4
M  V30 9 1 16 8
M  V30 10 1 18 1
M  V30 11 1 19 1
M  V30 12 1 19 17
M  V30 13 1 20 2
M  V30 14 1 20 11
M  V30 15 1 21 1
M  V30 16 1 21 20
M  V30 17 1 22 3
M  V30 18 1 23 5
M  V30 19 1 23 10
M  V30 20 1 23 14
M  V30 21 1 24 5 CFG=3
M  V30 22 1 24 13
M  V30 23 1 24 17
M  V30 24 1 24 19
M  V30 25 1 25 12
M  V30 26 2 26 21
M  V30 27 1 27 12
M  V30 28 1 28 15
M  V30 29 1 29 2
M  V30 30 1 29 4
M  V30 31 1 30 27
M  V30 32 1 31 16
M  V30 33 1 31 30
M  V30 34 1 32 3
M  V30 35 1 32 22
M  V30 36 2 33 31
M  V30 37 1 34 2
M  V30 38 1 35 2
M  V30 39 1 3 36 CFG=3
M  V30 40 1 37 6
M  V30 41 1 38 6
M  V30 42 1 39 8
M  V30 43 1 40 8
M  V30 44 1 41 9
M  V30 45 1 10 42 CFG=1
M  V30 46 1 11 43 CFG=3
M  V30 47 1 44 12
M  V30 48 1 45 12
M  V30 49 1 13 46 CFG=1
M  V30 50 1 47 14
M  V30 51 1 48 16
M  V30 52 1 49 16
M  V30 53 1 50 17
M  V30 54 1 51 17
M  V30 55 1 52 18
M  V30 56 1 53 18
M  V30 57 1 54 18
M  V30 58 1 19 55 CFG=1
M  V30 59 1 20 56 CFG=3
M  V30 60 1 57 22
M  V30 61 1 58 22
M  V30 62 1 23 59 CFG=3
M  V30 63 1 60 25
M  V30 64 1 61 27
M  V30 65 1 62 27
M  V30 66 1 63 28
M  V30 67 1 64 28
M  V30 68 1 65 28
M  V30 69 1 66 29
M  V30 70 1 67 29
M  V30 71 1 68 32
M  V30 72 1 69 32
M  V30 END BOND
M  V30 END CTAB
M  END
>  <i_epik_Tot_Q>  (1) 
1

>  <i_epik_Tot_abs_Q>  (1) 
1

>  <i_i_glide_confnum>  (1) 
2407

>  <i_i_glide_lignum>  (1) 
39

>  <i_i_glide_posenum>  (1) 
5

>  <i_i_glide_rotatable_bonds>  (1) 
15

>  <i_lp_mmshare_version>  (1) 
72125

>  <i_m_source_file_index>  (1) 
9

>  <i_f3d_flags>  (1) 
0

>  <num_sample>  (1) 
50

>  <b_lp_Chiralities_Consistent>  (1) 
1

>  <r_epik_Charging_Adjusted_Penalty>  (1) 
1.2103720943885907

>  <r_epik_Ionization_Penalty>  (1) 
0.55446808147534954

>  <r_epik_Ionization_Penalty_Charging>  (1) 
0.13553905892425583

>  <r_epik_Ionization_Penalty_Neutral>  (1) 
0.41892902255109377

>  <r_epik_State_Penalty>  (1) 
1.074833035464335

>  <r_glide_ring_energy>  (1) 
0

>  <r_i_docking_score>  (1) 
-4.4377138832240135

>  <r_i_glide_ecoul>  (1) 
-13.408775505621881

>  <r_i_glide_eff_state_penalty>  (1) 
1.074833035464335

>  <r_i_glide_einternal>  (1) 
46.830598844936986

>  <r_i_glide_emodel>  (1) 
-17.494795901747146

>  <r_i_glide_emodel_strain>  (1) 
8.8364244943941372

>  <r_i_glide_energy>  (1) 
-36.764784504191461

>  <r_i_glide_erotb>  (1) 
1.0741905119875848

>  <r_i_glide_esite>  (1) 
-0.10000000000000001

>  <r_i_glide_evdw>  (1) 
-23.356008998569582

>  <r_i_glide_gscore>  (1) 
-5.5125469186883489

>  <r_i_glide_gscore_strain>  (1) 
1.2091061235985343

>  <r_i_glide_hbond>  (1) 
-0.47256634444073686

>  <r_i_glide_ligand_efficiency>  (1) 
-0.13447617827951555

>  <r_i_glide_ligand_efficiency_ln>  (1) 
-0.98692459037624936

>  <r_i_glide_ligand_efficiency_sa>  (1) 
-0.43133695839818531

>  <r_i_glide_lipo>  (1) 
-1.9114516209903591

>  <r_i_glide_metal>  (1) 
-0

>  <r_i_glide_rewards>  (1) 
-2.1327088130716119

>  <r_lp_Energy>  (1) 
38.778824999999998

>  <s_epik_Chemistry_Notes>  (1) 
This compound has an ester and may undergo hydrolysis at high or low pH. This compound contains an acetal/aminal-like group ( X-CH(R)-Y where X, Y are N, S, or O) that may be acid/base labile, releasing an aldehyde. This compound has a N-S or N-O group and may undergo hydrolysis at high or low pH.

>  <s_epik_cmdline>  (1) 
J2VwaWtfcHl0aG9uJywgJy1waHQnLCAnMS4wJywgJy1waCcsICc3LjQnLCAnLXRuJywgJzgnLCAnLW1hJywgJzUwMCcsICctaW1hZScsICc8aW5maWxlLm1hZT4nLCAnLW9tYWUnLCAnPG91dGZpbGUubWFlPic=

>  <s_epik_input>  (1) 
W0NIM11PTjFbQ0BIXShGKVtDQEBIXShbQ0gyXVtDSDJdMSlDKD1PKU4oW0NIM10pW0NASF0yW0NIMl1DMjNPW0NAQEhdKFtPSF0pW0NASF0oW0NASF0zW0NASF00W0NIMl1bTkhdNClbTkhdW0NIMl1bQ0gyXVtDSDJdQyg9TylPW0NIMl1bQ0gyXVtPSF0=

>  <s_glide_docking_method>  (1) 
confgen

>  <s_i_glide_gridfile>  (1) 
gpcr_drd2_6luq_protein_autoprepared_prepared

>  <s_lp_Force_Field>  (1) 
S-OPLS

>  <s_lp_Variant>  (1) 
DiffSBDD_8-8

>  <s_m_source_file>  (1) 
generated_generic_title2_ligand_DiffSBDD_2026-06-23_prepared.sdf

>  <GenAI_Model>  (1) 
DiffSBDD

>  <Protein>  (1) 
generic_title2

$$$$
DiffSBDD_20
     RDKit          3D

  0  0  0  0  0  0  0  0  0  0999 V3000
M  V30 BEGIN CTAB
M  V30 COUNTS 71 73 0 0 1
M  V30 BEGIN ATOM
M  V30 1 C 5.371677 7.102594 -19.452310 0
M  V30 2 C 7.099734 1.796116 -14.397442 0
M  V30 3 C 7.517670 4.627500 -16.154614 0 CFG=1
M  V30 4 C 6.296268 6.143321 -19.486370 0
M  V30 5 C 4.725766 7.689535 -18.272014 0 CFG=1
M  V30 6 C 11.648260 7.193046 -8.461399 0
M  V30 7 C 9.058572 6.794707 -10.709190 0 CFG=1
M  V30 8 F 3.403535 7.592052 -18.385028 0
M  V30 9 C 8.245548 4.513494 -11.741892 0
M  V30 10 O 10.048966 8.789593 -9.030620 0
M  V30 11 C 8.506690 5.376423 -15.244573 0
M  V30 12 C 7.921035 5.987939 -11.373487 0 CFG=2
M  V30 13 C 9.632818 6.468947 -6.077784 0
M  V30 14 C 6.908977 5.412750 -18.370175 0
M  V30 15 C 6.736841 5.579956 -17.028359 0
M  V30 16 C 5.881407 6.565331 -16.343081 0
M  V30 17 C 9.287975 6.480066 -9.187526 0 CFG=2
M  V30 18 C 7.593045 2.168323 -16.946560 0
M  V30 19 N 8.973904 4.558985 -14.109637 0 CHG=1
M  V30 20 C 7.906365 1.401225 -15.652280 0
M  V30 21 C 10.615593 8.768440 -6.150833 0
M  V30 22 C 7.935218 4.034725 -13.187774 0 CFG=1
M  V30 23 O 7.448740 6.747818 -12.464049 0
M  V30 24 C 10.157010 7.533267 -8.396272 0 CFG=1
M  V30 25 S 8.020712 4.140699 -18.784349 0
M  V30 26 C 5.042717 7.457676 -16.860819 0
M  V30 27 C 9.717751 7.761965 -6.909540 0
M  V30 28 C 7.894058 2.481005 -13.264706 0
M  V30 29 C 8.205683 3.573019 -17.070457 0 CFG=1
M  V30 30 O 9.772703 5.163645 -8.999368 0
M  V30 31 N 10.291327 6.789507 -11.521457 0
M  V30 32 H 5.039703 7.512655 -20.396646 0
M  V30 33 H 6.735028 0.857942 -13.974331 0
M  V30 34 H 6.175860 2.320381 -14.630060 0
M  V30 35 H 6.735103 4.158253 -15.571641 0
M  V30 36 H 6.633050 5.855836 -20.472354 0
M  V30 37 H 4.973986 8.736709 -18.423951 0
M  V30 38 H 11.775100 6.325629 -7.829600 0
M  V30 39 H 12.284525 7.988113 -8.071740 0
M  V30 40 H 12.003469 6.967283 -9.467703 0
M  V30 41 H 8.688640 7.819809 -10.732419 0
M  V30 42 H 9.267031 4.239984 -11.471821 0
M  V30 43 H 7.622979 3.946004 -11.057721 0
M  V30 44 H 10.612533 9.398934 -8.583245 0
M  V30 45 H 9.369808 5.691382 -15.830385 0
M  V30 46 H 8.074902 6.292021 -14.849617 0
M  V30 47 H 7.078356 5.984298 -10.680972 0
M  V30 48 H 10.395736 5.742430 -6.340970 0
M  V30 49 H 8.664401 5.990942 -6.213109 0
M  V30 50 H 9.774600 6.665686 -5.014818 0
M  V30 51 H 5.938160 6.561077 -15.263887 0
M  V30 52 H 8.311426 6.394132 -8.713893 0
M  V30 53 H 7.998424 1.570195 -17.763980 0
M  V30 54 H 6.517206 2.207290 -17.117278 0
M  V30 55 H 9.492586 3.778305 -14.473442 0
M  V30 56 H 8.974912 1.408797 -15.466076 0
M  V30 57 H 7.683329 0.352377 -15.856224 0
M  V30 58 H 11.599986 8.353789 -5.939537 0
M  V30 59 H 10.193322 9.043472 -5.187837 0
M  V30 60 H 10.760299 9.686903 -6.708494 0
M  V30 61 H 6.943978 4.411998 -13.439539 0
M  V30 62 H 7.095624 7.549855 -12.100456 0
M  V30 63 H 4.504770 8.093515 -16.172864 0
M  V30 64 H 8.714084 8.192091 -6.931016 0
M  V30 65 H 7.368515 2.137510 -12.384647 0
M  V30 66 H 8.892314 2.051680 -13.186463 0
M  V30 67 H 9.274787 3.515722 -16.864336 0
M  V30 68 H 10.695760 5.147636 -9.199716 0
M  V30 69 H 10.602004 5.834841 -11.682298 0
M  V30 70 H 10.100734 7.211908 -12.427544 0
M  V30 71 H 9.606762 5.131593 -13.570754 0
M  V30 END ATOM
M  V30 BEGIN BOND
M  V30 1 2 4 1
M  V30 2 1 5 1
M  V30 3 1 8 5
M  V30 4 1 11 3
M  V30 5 1 12 7
M  V30 6 1 12 9
M  V30 7 1 14 4
M  V30 8 1 15 3
M  V30 9 2 15 14
M  V30 10 1 16 15
M  V30 11 1 17 7
M  V30 12 1 19 11
M  V30 13 1 20 2
M  V30 14 1 20 18
M  V30 15 1 22 9
M  V30 16 1 22 19
M  V30 17 1 23 12
M  V30 18 1 24 6
M  V30 19 1 24 10 CFG=3
M  V30 20 1 24 17
M  V30 21 1 25 14
M  V30 22 1 26 5
M  V30 23 2 26 16
M  V30 24 1 27 13
M  V30 25 1 27 21
M  V30 26 1 27 24
M  V30 27 1 28 2
M  V30 28 1 28 22
M  V30 29 1 29 3
M  V30 30 1 29 18
M  V30 31 1 29 25
M  V30 32 1 30 17
M  V30 33 1 31 7
M  V30 34 1 32 1
M  V30 35 1 33 2
M  V30 36 1 34 2
M  V30 37 1 3 35 CFG=1
M  V30 38 1 36 4
M  V30 39 1 5 37 CFG=3
M  V30 40 1 38 6
M  V30 41 1 39 6
M  V30 42 1 40 6
M  V30 43 1 7 41 CFG=1
M  V30 44 1 42 9
M  V30 45 1 43 9
M  V30 46 1 44 10
M  V30 47 1 45 11
M  V30 48 1 46 11
M  V30 49 1 12 47 CFG=1
M  V30 50 1 48 13
M  V30 51 1 49 13
M  V30 52 1 50 13
M  V30 53 1 51 16
M  V30 54 1 17 52 CFG=1
M  V30 55 1 53 18
M  V30 56 1 54 18
M  V30 57 1 55 19
M  V30 58 1 56 20
M  V30 59 1 57 20
M  V30 60 1 58 21
M  V30 61 1 59 21
M  V30 62 1 60 21
M  V30 63 1 22 61 CFG=3
M  V30 64 1 62 23
M  V30 65 1 63 26
M  V30 66 1 64 27
M  V30 67 1 65 28
M  V30 68 1 66 28
M  V30 69 1 29 67 CFG=1
M  V30 70 1 68 30
M  V30 71 1 69 31
M  V30 72 1 70 31
M  V30 73 1 71 19
M  V30 END BOND
M  V30 END CTAB
M  END
>  <i_epik_Tot_Q>  (1) 
1

>  <i_epik_Tot_abs_Q>  (1) 
1

>  <i_i_glide_confnum>  (1) 
72

>  <i_i_glide_lignum>  (1) 
66

>  <i_i_glide_posenum>  (1) 
209

>  <i_i_glide_rotatable_bonds>  (1) 
9

>  <i_lp_mmshare_version>  (1) 
72125

>  <i_m_source_file_index>  (1) 
21

>  <i_f3d_flags>  (1) 
0

>  <num_sample>  (1) 
50

>  <b_lp_Chiralities_Consistent>  (1) 
1

>  <r_epik_Charging_Adjusted_Penalty>  (1) 
1.0900107648315034

>  <r_epik_Ionization_Penalty>  (1) 
1.0648013143729294

>  <r_epik_Ionization_Penalty_Charging>  (1) 
0.018420486395911647

>  <r_epik_Ionization_Penalty_Neutral>  (1) 
1.0463808279770177

>  <r_epik_State_Penalty>  (1) 
1.0715902784355917

>  <r_glide_ring_energy>  (1) 
0

>  <r_i_docking_score>  (1) 
-4.4329906401617043

>  <r_i_glide_ecoul>  (1) 
-4.6475654235971247

>  <r_i_glide_eff_state_penalty>  (1) 
1.0715902784355917

>  <r_i_glide_einternal>  (1) 
20.439106166492337

>  <r_i_glide_emodel>  (1) 
-32.167459067635143

>  <r_i_glide_emodel_strain>  (1) 
0.86921121195922524

>  <r_i_glide_energy>  (1) 
-32.531378417606803

>  <r_i_glide_erotb>  (1) 
0.38705737007943358

>  <r_i_glide_esite>  (1) 
0

>  <r_i_glide_evdw>  (1) 
-27.883812994009677

>  <r_i_glide_gscore>  (1) 
-5.5045809185972958

>  <r_i_glide_gscore_strain>  (1) 
0

>  <r_i_glide_hbond>  (1) 
0

>  <r_i_glide_ligand_efficiency>  (1) 
-0.14299969806973239

>  <r_i_glide_ligand_efficiency_ln>  (1) 
-0.99977524420403519

>  <r_i_glide_ligand_efficiency_sa>  (1) 
-0.44921648481406828

>  <r_i_glide_lipo>  (1) 
-2.8074351186345772

>  <r_i_glide_metal>  (1) 
-0

>  <r_i_glide_rewards>  (1) 
-0.9928777068020993

>  <r_lp_Energy>  (1) 
43.646164999999996

>  <s_epik_cmdline>  (1) 
J2VwaWtfcHl0aG9uJywgJy1waHQnLCAnMS4wJywgJy1waCcsICc3LjQnLCAnLXRuJywgJzgnLCAnLW1hJywgJzUwMCcsICctaW1hZScsICc8aW5maWxlLm1hZT4nLCAnLW9tYWUnLCAnPG91dGZpbGUubWFlPic=

>  <s_epik_input>  (1) 
W0NIXTE9W0NIXVtDQEhdKEYpW0NIXT1bQ0hdQyg9QzFbQ0BIXTIzKVNbQ0BASF0zW0NIMl1bQ0gyXVtDSDJdW0NIMl1bQ0BIXShbTkhdW0NIMl0yKVtDSDJdW0NASF0oW09IXSlbQ0BIXShbTkgyXSlbQ0BASF0oW09IXSlbQ0BAXShbQ0gzXSkoW09IXSlbQ0hdKFtDSDNdKVtDSDNd

>  <s_glide_docking_method>  (1) 
confgen

>  <s_i_glide_gridfile>  (1) 
gpcr_drd2_6luq_protein_autoprepared_prepared

>  <s_lp_Force_Field>  (1) 
S-OPLS

>  <s_lp_Variant>  (1) 
DiffSBDD_20-3

>  <s_m_source_file>  (1) 
generated_generic_title2_ligand_DiffSBDD_2026-06-23_prepared.sdf

>  <GenAI_Model>  (1) 
DiffSBDD

>  <Protein>  (1) 
generic_title2

$$$$
DiffSBDD_21
     RDKit          3D

  0  0  0  0  0  0  0  0  0  0999 V3000
M  V30 BEGIN CTAB
M  V30 COUNTS 63 67 0 0 1
M  V30 BEGIN ATOM
M  V30 1 C 10.899711 7.712249 -7.554060 0
M  V30 2 N 11.963818 8.474039 -9.250121 0
M  V30 3 C 7.935528 5.336489 -15.337304 0 CFG=1
M  V30 4 C 6.595270 2.433618 -13.164641 0
M  V30 5 C 10.493222 7.510527 -6.127128 0
M  V30 6 C 6.751888 3.590222 -12.215292 0 CFG=2
M  V30 7 C 9.035037 3.779406 -17.180943 0 CFG=1
M  V30 8 C 7.386544 1.814481 -16.913182 0
M  V30 9 O 6.618899 5.704835 -15.700719 0
M  V30 10 C 10.158436 3.764427 -18.237192 0
M  V30 11 C 10.787580 7.190227 -11.132189 0
M  V30 12 C 10.349655 7.078982 -8.706222 0
M  V30 13 C 7.947677 4.178555 -14.297720 0 CFG=1
M  V30 14 C 8.857598 5.190192 -16.578712 0
M  V30 15 C 7.522887 4.664550 -12.928111 0 CFG=2
M  V30 16 C 9.332390 6.123843 -8.965077 0
M  V30 17 C 9.040343 5.713031 -10.289965 0
M  V30 18 C 7.680104 3.149415 -17.634525 0 CFG=2
M  V30 19 O 8.037904 4.790224 -10.506642 0
M  V30 20 C 7.050781 2.929040 -14.555599 0 CFG=1
M  V30 21 C 7.619791 1.757326 -15.387643 0
M  V30 22 C 8.102223 4.015259 -11.694896 0 CFG=1
M  V30 23 C 11.056012 7.590230 -9.815928 0
M  V30 24 C 6.066632 2.844398 -19.698706 0 CFG=1
M  V30 25 C 9.775411 6.254819 -11.375256 0
M  V30 26 C 5.532144 1.496161 -19.439885 0
M  V30 27 C 7.504460 3.061401 -19.174269 0
M  V30 28 C 5.986903 3.156563 -21.199567 0
M  V30 29 N 5.110305 0.438126 -19.236814 0
M  V30 30 N 11.864040 8.544309 -7.886481 0
M  V30 31 H 8.307879 6.221820 -14.821846 0
M  V30 32 H 7.217273 1.611995 -12.805736 0
M  V30 33 H 5.562773 2.084692 -13.185023 0
M  V30 34 H 10.704358 6.491750 -5.801845 0
M  V30 35 H 9.423658 7.680636 -5.999555 0
M  V30 36 H 11.018531 8.189478 -5.455101 0
M  V30 37 H 5.868534 3.887851 -11.652782 0
M  V30 38 H 9.458912 3.177383 -16.385142 0
M  V30 39 H 7.956656 1.011781 -17.382515 0
M  V30 40 H 6.338058 1.566121 -17.063440 0
M  V30 41 H 6.194360 4.957078 -16.090057 0
M  V30 42 H 9.959849 4.444572 -19.065460 0
M  V30 43 H 10.309316 2.763616 -18.642272 0
M  V30 44 H 11.106334 4.073431 -17.795366 0
M  V30 45 H 11.355393 7.590227 -11.951731 0
M  V30 46 H 8.975412 3.854875 -14.175365 0
M  V30 47 H 9.847913 5.538022 -16.280261 0
M  V30 48 H 8.538344 5.883654 -17.357785 0
M  V30 49 H 7.124955 5.675442 -12.851525 0
M  V30 50 H 8.766424 5.711716 -8.143213 0
M  V30 51 H 6.892741 3.826083 -17.325264 0
M  V30 52 H 6.175410 3.292750 -15.063342 0
M  V30 53 H 7.133686 0.837605 -15.057886 0
M  V30 54 H 8.664144 1.590218 -15.147362 0
M  V30 55 H 8.950609 3.334718 -11.762227 0
M  V30 56 H 5.399782 3.533419 -19.179928 0
M  V30 57 H 9.568606 5.950317 -12.386559 0
M  V30 58 H 8.158884 2.292527 -19.586443 0
M  V30 59 H 7.841154 4.007293 -19.598297 0
M  V30 60 H 4.975408 3.017703 -21.577126 0
M  V30 61 H 6.643973 2.501725 -21.772471 0
M  V30 62 H 6.276483 4.186885 -21.407219 0
M  V30 63 H 12.646746 9.033932 -9.743996 0
M  V30 END ATOM
M  V30 BEGIN BOND
M  V30 1 1 5 1
M  V30 2 1 6 4
M  V30 3 1 9 3
M  V30 4 1 10 7
M  V30 5 1 12 1
M  V30 6 1 13 3
M  V30 7 1 14 3
M  V30 8 1 14 7
M  V30 9 1 15 6
M  V30 10 1 15 13
M  V30 11 1 16 12
M  V30 12 2 17 16
M  V30 13 1 18 7
M  V30 14 1 18 8
M  V30 15 1 19 17
M  V30 16 1 20 4
M  V30 17 1 20 13
M  V30 18 1 21 8
M  V30 19 1 21 20
M  V30 20 1 22 6
M  V30 21 1 22 15
M  V30 22 1 22 19
M  V30 23 1 23 2
M  V30 24 1 23 11
M  V30 25 2 23 12
M  V30 26 2 25 11
M  V30 27 1 25 17
M  V30 28 1 26 24
M  V30 29 1 27 18
M  V30 30 1 27 24
M  V30 31 1 28 24
M  V30 32 3 29 26
M  V30 33 2 30 1
M  V30 34 1 30 2
M  V30 35 1 3 31 CFG=1
M  V30 36 1 32 4
M  V30 37 1 33 4
M  V30 38 1 34 5
M  V30 39 1 35 5
M  V30 40 1 36 5
M  V30 41 1 6 37 CFG=1
M  V30 42 1 7 38 CFG=1
M  V30 43 1 39 8
M  V30 44 1 40 8
M  V30 45 1 41 9
M  V30 46 1 42 10
M  V30 47 1 43 10
M  V30 48 1 44 10
M  V30 49 1 45 11
M  V30 50 1 13 46 CFG=1
M  V30 51 1 47 14
M  V30 52 1 48 14
M  V30 53 1 15 49 CFG=3
M  V30 54 1 50 16
M  V30 55 1 18 51 CFG=1
M  V30 56 1 20 52 CFG=3
M  V30 57 1 53 21
M  V30 58 1 54 21
M  V30 59 1 22 55 CFG=3
M  V30 60 1 24 56 CFG=1
M  V30 61 1 57 25
M  V30 62 1 58 27
M  V30 63 1 59 27
M  V30 64 1 60 28
M  V30 65 1 61 28
M  V30 66 1 62 28
M  V30 67 1 63 2
M  V30 END BOND
M  V30 END CTAB
M  END
>  <i_epik_Tot_Q>  (1) 
0

>  <i_epik_Tot_abs_Q>  (1) 
0

>  <i_i_glide_confnum>  (1) 
8

>  <i_i_glide_lignum>  (1) 
68

>  <i_i_glide_posenum>  (1) 
149

>  <i_i_glide_rotatable_bonds>  (1) 
5

>  <i_lp_mmshare_version>  (1) 
72125

>  <i_m_source_file_index>  (1) 
22

>  <i_f3d_flags>  (1) 
0

>  <num_sample>  (1) 
50

>  <b_lp_Chiralities_Consistent>  (1) 
1

>  <r_epik_Charging_Adjusted_Penalty>  (1) 
0

>  <r_epik_Ionization_Penalty>  (1) 
6.9991700099201596e-06

>  <r_epik_Ionization_Penalty_Charging>  (1) 
0

>  <r_epik_Ionization_Penalty_Neutral>  (1) 
6.9991700099201596e-06

>  <r_epik_State_Penalty>  (1) 
-0

>  <r_glide_ring_energy>  (1) 
0

>  <r_i_docking_score>  (1) 
-4.4327915490644161

>  <r_i_glide_ecoul>  (1) 
0.16790841008846069

>  <r_i_glide_eff_state_penalty>  (1) 
-0

>  <r_i_glide_einternal>  (1) 
4.5121743443914877

>  <r_i_glide_emodel>  (1) 
-38.502927598617468

>  <r_i_glide_emodel_strain>  (1) 
0

>  <r_i_glide_energy>  (1) 
-32.690926848670522

>  <r_i_glide_erotb>  (1) 
0.35530975304463774

>  <r_i_glide_esite>  (1) 
0

>  <r_i_glide_evdw>  (1) 
-32.85883525875898

>  <r_i_glide_gscore>  (1) 
-4.4327915490644161

>  <r_i_glide_gscore_strain>  (1) 
0

>  <r_i_glide_hbond>  (1) 
0

>  <r_i_glide_ligand_efficiency>  (1) 
-0.14775971830214721

>  <r_i_glide_ligand_efficiency_ln>  (1) 
-1.0071785390798194

>  <r_i_glide_ligand_efficiency_sa>  (1) 
-0.45912379977901718

>  <r_i_glide_lipo>  (1) 
-1.8489531667947823

>  <r_i_glide_metal>  (1) 
-0

>  <r_i_glide_rewards>  (1) 
-1.3213926338895923

>  <r_lp_Energy>  (1) 
45.650846999999999

>  <r_lp_tautomer_probability>  (1) 
1

>  <s_epik_cmdline>  (1) 
J2VwaWtfcHl0aG9uJywgJy1waHQnLCAnMS4wJywgJy1waCcsICc3LjQnLCAnLXRuJywgJzgnLCAnLW1hJywgJzUwMCcsICctaW1hZScsICc8aW5maWxlLm1hZT4nLCAnLW9tYWUnLCAnPG91dGZpbGUubWFlPic=

>  <s_epik_input>  (1) 
W0NIM11jMVtuSF1uYyhjMTIpW2NIXVtjSF1jKFtjSF0yKU9bQ0BASF0zW0NASF0oW0NASF0zNClbQ0BIXTVbQ0BIXShbQ0gyXTQpW0NIMl1bQ0gyXVtDQEhdKFtDSDJdW0NASF0oQyNOKVtDSDNdKVtDQEBIXShbQ0gzXSlbQ0gyXVtDQEhdNVtPSF0=

>  <s_glide_docking_method>  (1) 
confgen

>  <s_i_glide_gridfile>  (1) 
gpcr_drd2_6luq_protein_autoprepared_prepared

>  <s_lp_Force_Field>  (1) 
S-OPLS

>  <s_lp_Variant>  (1) 
DiffSBDD_21-1

>  <s_m_source_file>  (1) 
generated_generic_title2_ligand_DiffSBDD_2026-06-23_prepared.sdf

>  <GenAI_Model>  (1) 
DiffSBDD

>  <Protein>  (1) 
generic_title2

$$$$
DiffSBDD_29
     RDKit          3D

  0  0  0  0  0  0  0  0  0  0999 V3000
M  V30 BEGIN CTAB
M  V30 COUNTS 70 74 0 0 1
M  V30 BEGIN ATOM
M  V30 1 C 7.253950 5.588397 -15.078235 0 CFG=2
M  V30 2 F 10.249740 4.710165 -21.538260 0
M  V30 3 C 9.439289 7.313430 -7.622212 0
M  V30 4 C 7.824177 3.856953 -18.172110 0
M  V30 5 C 8.986283 6.322553 -10.956239 0 CFG=1
M  V30 6 C 6.158987 6.572846 -15.594805 0
M  V30 7 F 10.309664 7.600708 -20.723705 0
M  V30 8 O 11.070761 6.790242 -11.985010 0
M  V30 9 C 6.276698 5.699498 -17.895468 0
M  V30 10 C 5.947566 5.888258 -19.384244 0 CFG=1
M  V30 11 C 8.767777 5.954101 -7.940930 0
M  V30 12 C 8.213463 6.831825 -20.134314 0
M  V30 13 C 10.147793 6.219573 -23.257106 0
M  V30 14 C 5.724425 6.604313 -16.888837 0
M  V30 15 C 9.446659 5.664915 -22.010877 0 CFG=1
M  V30 16 C 8.100647 4.946329 -22.374271 0
M  V30 17 N 7.365796 4.590910 -16.120717 0
M  V30 18 C 9.837294 8.263846 -8.776603 0
M  V30 19 C 7.096140 5.941388 -20.298493 0
M  V30 20 C 9.364053 4.976879 -10.278118 0
M  V30 21 C 9.301517 6.732923 -20.915171 0
M  V30 22 C 9.636616 4.995926 -8.754595 0
M  V30 23 C 6.857924 4.874992 -13.762528 0
M  V30 24 C 10.781173 7.696796 -9.853672 0
M  V30 25 N 10.071084 7.307145 -11.069691 0
M  V30 26 O 8.542822 3.608703 -16.017222 0
M  V30 27 C 7.057281 5.104798 -21.284084 0
M  V30 28 C 8.622232 3.217407 -17.367612 0
M  V30 29 C 6.060838 6.793169 -12.244672 0
M  V30 30 O 5.990055 4.287128 -21.352700 0
M  V30 31 C 7.118243 4.746858 -17.441681 0
M  V30 32 C 7.057371 5.642825 -12.441698 0 CFG=2
M  V30 33 N 8.464500 6.094759 -12.320183 0 CHG=1
M  V30 34 C 5.244028 4.657013 -20.131840 0
M  V30 35 H 8.206526 6.108456 -14.985806 0
M  V30 36 H 10.331102 7.115675 -7.026160 0
M  V30 37 H 8.770905 7.862968 -6.957367 0
M  V30 38 H 7.754803 3.702318 -19.233593 0
M  V30 39 H 8.183965 6.790203 -10.402997 0
M  V30 40 H 5.743869 7.262532 -14.878555 0
M  V30 41 H 11.153029 7.491274 -12.614952 0
M  V30 42 H 5.359102 6.796182 -19.523873 0
M  V30 43 H 8.585324 5.506041 -6.967579 0
M  V30 44 H 7.775418 5.998024 -8.385028 0
M  V30 45 H 8.177795 7.590226 -19.368195 0
M  V30 46 H 9.554622 6.999614 -23.735466 0
M  V30 47 H 11.122624 6.642525 -23.013136 0
M  V30 48 H 10.312720 5.423642 -23.981297 0
M  V30 49 H 4.975129 7.326887 -17.178185 0
M  V30 50 H 8.260938 3.888519 -22.588192 0
M  V30 51 H 7.675293 5.386145 -23.277424 0
M  V30 52 H 10.367850 9.090229 -8.304938 0
M  V30 53 H 8.975437 8.736226 -9.237411 0
M  V30 54 H 10.175410 4.485129 -10.814094 0
M  V30 55 H 8.522011 4.298879 -10.402899 0
M  V30 56 H 10.671773 5.190203 -8.507011 0
M  V30 57 H 9.463659 3.990228 -8.384998 0
M  V30 58 H 7.450537 3.962264 -13.677402 0
M  V30 59 H 5.825663 4.529192 -13.834738 0
M  V30 60 H 11.406508 6.896495 -9.465454 0
M  V30 61 H 11.476972 8.487098 -10.139589 0
M  V30 62 H 9.338604 2.438926 -17.585849 0
M  V30 63 H 5.065036 6.517778 -12.590193 0
M  V30 64 H 5.958734 7.051057 -11.191621 0
M  V30 65 H 6.371901 7.688475 -12.777199 0
M  V30 66 H 6.850662 4.919922 -11.653233 0
M  V30 67 H 8.556338 6.965037 -12.820325 0
M  V30 68 H 5.189777 3.782082 -19.482845 0
M  V30 69 H 4.216892 4.908011 -20.399189 0
M  V30 70 H 9.079957 5.416576 -12.746758 0
M  V30 END ATOM
M  V30 BEGIN BOND
M  V30 1 1 6 1
M  V30 2 1 10 9
M  V30 3 1 11 3
M  V30 4 2 14 6
M  V30 5 1 14 9
M  V30 6 1 15 2 CFG=1
M  V30 7 1 15 13
M  V30 8 1 16 15
M  V30 9 1 17 1
M  V30 10 1 18 3
M  V30 11 1 19 10
M  V30 12 1 19 12
M  V30 13 1 20 5
M  V30 14 1 21 7
M  V30 15 2 21 12
M  V30 16 1 21 15
M  V30 17 1 22 11
M  V30 18 1 22 20
M  V30 19 1 23 1
M  V30 20 1 24 18
M  V30 21 1 25 5
M  V30 22 1 25 8
M  V30 23 1 25 24
M  V30 24 1 26 17
M  V30 25 1 27 16
M  V30 26 2 27 19
M  V30 27 2 28 4
M  V30 28 1 28 26
M  V30 29 1 30 27
M  V30 30 1 31 4
M  V30 31 2 31 9
M  V30 32 1 31 17
M  V30 33 1 32 23
M  V30 34 1 32 29
M  V30 35 1 33 5
M  V30 36 1 33 32
M  V30 37 1 34 10
M  V30 38 1 34 30
M  V30 39 1 1 35 CFG=1
M  V30 40 1 36 3
M  V30 41 1 37 3
M  V30 42 1 38 4
M  V30 43 1 5 39 CFG=1
M  V30 44 1 40 6
M  V30 45 1 41 8
M  V30 46 1 10 42 CFG=1
M  V30 47 1 43 11
M  V30 48 1 44 11
M  V30 49 1 45 12
M  V30 50 1 46 13
M  V30 51 1 47 13
M  V30 52 1 48 13
M  V30 53 1 49 14
M  V30 54 1 50 16
M  V30 55 1 51 16
M  V30 56 1 52 18
M  V30 57 1 53 18
M  V30 58 1 54 20
M  V30 59 1 55 20
M  V30 60 1 56 22
M  V30 61 1 57 22
M  V30 62 1 58 23
M  V30 63 1 59 23
M  V30 64 1 60 24
M  V30 65 1 61 24
M  V30 66 1 62 28
M  V30 67 1 63 29
M  V30 68 1 64 29
M  V30 69 1 65 29
M  V30 70 1 32 66 CFG=1
M  V30 71 1 67 33
M  V30 72 1 68 34
M  V30 73 1 69 34
M  V30 74 1 70 33
M  V30 END BOND
M  V30 END CTAB
M  END
>  <i_epik_Tot_Q>  (1) 
1

>  <i_epik_Tot_abs_Q>  (1) 
1

>  <i_i_glide_confnum>  (1) 
267

>  <i_i_glide_lignum>  (1) 
88

>  <i_i_glide_posenum>  (1) 
244

>  <i_i_glide_rotatable_bonds>  (1) 
6

>  <i_lp_mmshare_version>  (1) 
72125

>  <i_m_source_file_index>  (1) 
30

>  <i_f3d_flags>  (1) 
0

>  <num_sample>  (1) 
50

>  <b_lp_Chiralities_Consistent>  (1) 
1

>  <r_epik_Charging_Adjusted_Penalty>  (1) 
0.00017158895476856407

>  <r_epik_Ionization_Penalty>  (1) 
0.00032717489199656771

>  <r_epik_Ionization_Penalty_Charging>  (1) 
0.00017158895476856407

>  <r_epik_Ionization_Penalty_Neutral>  (1) 
0.00015558593722800364

>  <r_epik_State_Penalty>  (1) 
-0

>  <r_glide_ring_energy>  (1) 
0.12064896419407886

>  <r_i_docking_score>  (1) 
-4.4246562978625263

>  <r_i_glide_ecoul>  (1) 
-2.4458300553370775

>  <r_i_glide_eff_state_penalty>  (1) 
-0

>  <r_i_glide_einternal>  (1) 
6.2142417781658406

>  <r_i_glide_emodel>  (1) 
-36.711609159035767

>  <r_i_glide_emodel_strain>  (1) 
0

>  <r_i_glide_energy>  (1) 
-30.618694300613829

>  <r_i_glide_erotb>  (1) 
0.44578028893005395

>  <r_i_glide_esite>  (1) 
-0.12677324218338101

>  <r_i_glide_evdw>  (1) 
-28.172864245276752

>  <r_i_glide_gscore>  (1) 
-4.4246562978625263

>  <r_i_glide_gscore_strain>  (1) 
0

>  <r_i_glide_hbond>  (1) 
0

>  <r_i_glide_ligand_efficiency>  (1) 
-0.13013694993713312

>  <r_i_glide_ligand_efficiency_ln>  (1) 
-0.97753068360318918

>  <r_i_glide_ligand_efficiency_sa>  (1) 
-0.42159319879859358

>  <r_i_glide_lipo>  (1) 
-1.5930636451372167

>  <r_i_glide_metal>  (1) 
-0

>  <r_i_glide_rewards>  (1) 
-1.3750819789075834

>  <r_lp_Energy>  (1) 
36.679803

>  <r_lp_tautomer_probability>  (1) 
1

>  <s_epik_Chemistry_Notes>  (1) 
This compound contains an acetal/aminal-like group ( X-CH(R)-Y where X, Y are N, S, or O) that may be acid/base labile, releasing an aldehyde. This compound has a N-S or N-O group and may undergo hydrolysis at high or low pH.

>  <s_epik_cmdline>  (1) 
J2VwaWtfcHl0aG9uJywgJy1waHQnLCAnMS4wJywgJy1waCcsICc3LjQnLCAnLXRuJywgJzgnLCAnLW1hJywgJzUwMCcsICctaW1hZScsICc8aW5maWxlLm1hZT4nLCAnLW9tYWUnLCAnPG91dGZpbGUubWFlPic=

>  <s_epik_input>  (1) 
RkMoPVtDSF0xKVtDQF0oRikoW0NIM10pW0NIMl1DKD1DMTIpT1tDSDJdW0NASF0yQyg9QyhOMzQpW0NIXT1bQ0hdTzQpW0NIXT1bQ0hdW0NASF0zW0NIMl1bQ0BIXShbQ0gzXSlbTkhdW0NASF01W0NIMl1bQ0gyXVtDSDJdW0NIMl1bQ0gyXVtDSDJdTjVbT0hd

>  <s_glide_docking_method>  (1) 
confgen

>  <s_i_glide_gridfile>  (1) 
gpcr_drd2_6luq_protein_autoprepared_prepared

>  <s_lp_Force_Field>  (1) 
S-OPLS

>  <s_lp_Variant>  (1) 
DiffSBDD_29-1

>  <s_m_source_file>  (1) 
generated_generic_title2_ligand_DiffSBDD_2026-06-23_prepared.sdf

>  <GenAI_Model>  (1) 
DiffSBDD

>  <Protein>  (1) 
generic_title2

$$$$
DiffSBDD_39
     RDKit          3D

  0  0  0  0  0  0  0  0  0  0999 V3000
M  V30 BEGIN CTAB
M  V30 COUNTS 69 72 0 0 1
M  V30 BEGIN ATOM
M  V30 1 C 7.955046 5.727614 -15.063527 0
M  V30 2 F 14.634689 3.232272 -17.065189 0
M  V30 3 F 14.119217 2.755122 -19.114488 0
M  V30 4 C 11.508783 8.816607 -9.577639 0
M  V30 5 C 7.608065 6.437364 -12.614477 0
M  V30 6 C 6.659861 4.804760 -11.004798 0 CFG=1
M  V30 7 O 12.733321 8.790196 -8.876191 0
M  V30 8 C 12.174353 5.109990 -16.961535 0 CFG=2
M  V30 9 C 7.473522 2.959425 -14.370213 0
M  V30 10 C 8.876982 5.935747 -10.449980 0 CFG=2
M  V30 11 O 12.780336 7.453590 -16.720537 0
M  V30 12 C 7.570067 3.427874 -15.833808 0
M  V30 13 N 8.396149 4.652370 -15.993586 0 CFG=2 CHG=1
M  V30 14 C 14.591841 4.999323 -18.607167 0
M  V30 15 C 7.975786 5.290049 -13.586309 0 CFG=1
M  V30 16 C 9.859692 4.392293 -16.006985 0
M  V30 17 O 14.296597 6.024045 -17.662550 0
M  V30 18 C 6.980715 3.658677 -11.985104 0
M  V30 19 N 7.557770 5.990213 -11.185005 0 CFG=1 CHG=1
M  V30 20 C 10.847280 7.436438 -9.531556 0 CFG=1
M  V30 21 C 10.443806 7.045508 -8.103146 0
M  V30 22 C 10.647586 5.401179 -16.869712 0
M  V30 23 C 7.018331 4.101483 -13.442983 0 CFG=2
M  V30 24 C 12.938205 6.329813 -17.553400 0 CFG=1
M  V30 25 C 12.514368 3.877751 -17.813589 0
M  V30 26 C 9.875959 5.629362 -8.066215 0
M  V30 27 C 13.986375 3.664421 -18.147213 0
M  V30 28 O 11.643999 3.101906 -18.209577 0
M  V30 29 C 8.664408 5.470870 -8.978196 0
M  V30 30 O 5.383597 5.365541 -11.231890 0
M  V30 31 C 9.644064 7.305681 -10.494957 0
M  V30 32 H 6.948369 6.043034 -15.344237 0
M  V30 33 H 8.575396 6.593081 -15.185014 0
M  V30 34 H 10.853705 9.589358 -9.185010 0
M  V30 35 H 11.747793 9.068104 -10.604253 0
M  V30 36 H 6.627545 6.830914 -12.886683 0
M  V30 37 H 8.277643 7.283021 -12.750096 0
M  V30 38 H 6.609791 4.423029 -9.988835 0
M  V30 39 H 13.279736 9.505298 -9.185090 0
M  V30 40 H 12.573241 4.937125 -15.962510 0
M  V30 41 H 6.772078 2.126282 -14.304025 0
M  V30 42 H 8.435988 2.570232 -14.037440 0
M  V30 43 H 9.506974 5.189563 -10.935305 0
M  V30 44 H 13.105935 8.212783 -17.184764 0
M  V30 45 H 6.575463 3.681023 -16.182158 0
M  V30 46 H 7.922995 2.622697 -16.480479 0
M  V30 47 H 15.674494 4.907365 -18.698783 0
M  V30 48 H 14.219042 5.280631 -19.593371 0
M  V30 49 H 8.982637 4.966992 -13.321385 0
M  V30 50 H 10.252598 4.390453 -14.994113 0
M  V30 51 H 10.020131 3.388821 -16.392429 0
M  V30 52 H 6.253618 2.851999 -11.869291 0
M  V30 53 H 7.971021 3.263965 -11.753243 0
M  V30 54 H 11.636045 6.790283 -9.878822 0
M  V30 55 H 11.303211 7.100375 -7.433702 0
M  V30 56 H 9.703925 7.750015 -7.719676 0
M  V30 57 H 10.222357 5.443513 -17.873507 0
M  V30 58 H 10.501834 6.390201 -16.444511 0
M  V30 59 H 6.013193 4.410942 -13.736011 0
M  V30 60 H 12.546246 6.609958 -18.533444 0
M  V30 61 H 10.627108 4.902760 -8.357365 0
M  V30 62 H 9.588647 5.387659 -7.044700 0
M  V30 63 H 8.412819 4.412599 -8.945027 0
M  V30 64 H 7.822018 5.990191 -8.525848 0
M  V30 65 H 4.888206 5.302396 -10.425637 0
M  V30 66 H 8.975079 8.130449 -10.269110 0
M  V30 67 H 10.016045 7.489554 -11.503001 0
M  V30 68 H 8.192258 4.981538 -16.927443 0
M  V30 69 H 7.090481 6.736387 -10.662046 0
M  V30 END ATOM
M  V30 BEGIN BOND
M  V30 1 1 7 4
M  V30 2 1 12 9
M  V30 3 1 13 1
M  V30 4 1 13 12
M  V30 5 1 15 1
M  V30 6 1 15 5
M  V30 7 1 16 13
M  V30 8 1 17 14
M  V30 9 1 18 6
M  V30 10 1 19 5
M  V30 11 1 19 6
M  V30 12 1 19 10
M  V30 13 1 20 4
M  V30 14 1 21 20
M  V30 15 1 22 8
M  V30 16 1 22 16
M  V30 17 1 23 9
M  V30 18 1 23 15
M  V30 19 1 23 18
M  V30 20 1 24 8
M  V30 21 1 24 11
M  V30 22 1 24 17
M  V30 23 1 25 8
M  V30 24 1 26 21
M  V30 25 1 27 2
M  V30 26 1 27 3
M  V30 27 1 27 14
M  V30 28 1 27 25
M  V30 29 2 28 25
M  V30 30 1 29 10
M  V30 31 1 29 26
M  V30 32 1 30 6
M  V30 33 1 31 10
M  V30 34 1 31 20
M  V30 35 1 32 1
M  V30 36 1 33 1
M  V30 37 1 34 4
M  V30 38 1 35 4
M  V30 39 1 36 5
M  V30 40 1 37 5
M  V30 41 1 6 38 CFG=1
M  V30 42 1 39 7
M  V30 43 1 8 40 CFG=1
M  V30 44 1 41 9
M  V30 45 1 42 9
M  V30 46 1 10 43 CFG=3
M  V30 47 1 44 11
M  V30 48 1 45 12
M  V30 49 1 46 12
M  V30 50 1 47 14
M  V30 51 1 48 14
M  V30 52 1 15 49 CFG=1
M  V30 53 1 50 16
M  V30 54 1 51 16
M  V30 55 1 52 18
M  V30 56 1 53 18
M  V30 57 1 20 54 CFG=3
M  V30 58 1 55 21
M  V30 59 1 56 21
M  V30 60 1 57 22
M  V30 61 1 58 22
M  V30 62 1 23 59 CFG=3
M  V30 63 1 24 60 CFG=3
M  V30 64 1 61 26
M  V30 65 1 62 26
M  V30 66 1 63 29
M  V30 67 1 64 29
M  V30 68 1 65 30
M  V30 69 1 66 31
M  V30 70 1 67 31
M  V30 71 1 13 68 CFG=3
M  V30 72 1 19 69 CFG=1
M  V30 END BOND
M  V30 END CTAB
M  END
>  <i_epik_Tot_Q>  (1) 
2

>  <i_epik_Tot_abs_Q>  (1) 
2

>  <i_i_glide_confnum>  (1) 
265

>  <i_i_glide_lignum>  (1) 
112

>  <i_i_glide_posenum>  (1) 
212

>  <i_i_glide_rotatable_bonds>  (1) 
8

>  <i_lp_mmshare_version>  (1) 
72125

>  <i_m_source_file_index>  (1) 
40

>  <i_f3d_flags>  (1) 
0

>  <num_sample>  (1) 
50

>  <b_lp_Chiralities_Consistent>  (1) 
1

>  <r_epik_Charging_Adjusted_Penalty>  (1) 
1.743801429740254

>  <r_epik_Ionization_Penalty>  (1) 
1.6051069046209219

>  <r_epik_Ionization_Penalty_Charging>  (1) 
0.6098477401054202

>  <r_epik_Ionization_Penalty_Neutral>  (1) 
0.99525916451550167

>  <r_epik_State_Penalty>  (1) 
1.1339536896348337

>  <r_glide_ring_energy>  (1) 
0

>  <r_i_docking_score>  (1) 
-4.4209741848613922

>  <r_i_glide_ecoul>  (1) 
-12.682654271533059

>  <r_i_glide_eff_state_penalty>  (1) 
1.1339536896348337

>  <r_i_glide_einternal>  (1) 
5.9717106686721761

>  <r_i_glide_emodel>  (1) 
-41.662833883416212

>  <r_i_glide_emodel_strain>  (1) 
0.18818916626496929

>  <r_i_glide_energy>  (1) 
-33.411640485888533

>  <r_i_glide_erotb>  (1) 
0.49785121930328097

>  <r_i_glide_esite>  (1) 
-0.13128371553851301

>  <r_i_glide_evdw>  (1) 
-20.728986214355473

>  <r_i_glide_gscore>  (1) 
-5.5549278744962258

>  <r_i_glide_gscore_strain>  (1) 
0

>  <r_i_glide_hbond>  (1) 
-0.52000000000000002

>  <r_i_glide_ligand_efficiency>  (1) 
-0.14261207047939975

>  <r_i_glide_ligand_efficiency_ln>  (1) 
-0.99706516527368616

>  <r_i_glide_ligand_efficiency_sa>  (1) 
-0.44799879900146417

>  <r_i_glide_lipo>  (1) 
-1.0553406613145424

>  <r_i_glide_metal>  (1) 
-0

>  <r_i_glide_rewards>  (1) 
-1.4073072654987191

>  <r_lp_Energy>  (1) 
50.801770999999995

>  <r_lp_tautomer_probability>  (1) 
0.99995000000000001

>  <s_epik_Chemistry_Notes>  (1) 
This compound contains an acetal/aminal-like group ( X-CH(R)-Y where X, Y are N, S, or O) that may be acid/base labile, releasing an aldehyde.

>  <s_epik_cmdline>  (1) 
J2VwaWtfcHl0aG9uJywgJy1waHQnLCAnMS4wJywgJy1waCcsICc3LjQnLCAnLXRuJywgJzgnLCAnLW1hJywgJzUwMCcsICctaW1hZScsICc8aW5maWxlLm1hZT4nLCAnLW9tYWUnLCAnPG91dGZpbGUubWFlPic=

>  <s_epik_input>  (1) 
RkMxKEYpW0NIMl1PW0NASF0oW09IXSlbQ0BIXShDMT1PKVtDSDJdW0NIMl1OKFtDSDJdMilbQ0gyXVtDSDJdW0NASF0oW0NAQEhdMjMpW0NIMl1bQ0BIXShbT0hdKU4oW0NIMl0zKVtDQEBIXTRbQ0gyXVtDSDJdW0NIMl1bQ0BASF0oW0NIMl00KVtDSDJdW09IXQ==

>  <s_glide_docking_method>  (1) 
confgen

>  <s_i_glide_gridfile>  (1) 
gpcr_drd2_6luq_protein_autoprepared_prepared

>  <s_lp_Force_Field>  (1) 
S-OPLS

>  <s_lp_Variant>  (1) 
DiffSBDD_39-8

>  <s_m_source_file>  (1) 
generated_generic_title2_ligand_DiffSBDD_2026-06-23_prepared.sdf

>  <GenAI_Model>  (1) 
DiffSBDD

>  <Protein>  (1) 
generic_title2

$$$$
DiffSBDD_0
     RDKit          3D

  0  0  0  0  0  0  0  0  0  0999 V3000
M  V30 BEGIN CTAB
M  V30 COUNTS 70 74 0 0 1
M  V30 BEGIN ATOM
M  V30 1 C 11.551599 6.858316 -5.902381 0
M  V30 2 N 7.724259 4.337653 -13.455268 0
M  V30 3 C 7.734591 5.543266 -17.500139 0 CFG=1
M  V30 4 C 8.965338 4.689727 -11.364606 0
M  V30 5 F 11.386331 9.190374 -7.502435 0
M  V30 6 C 7.339420 5.736328 -13.669882 0
M  V30 7 C 10.065222 6.544024 -5.784547 0
M  V30 8 C 9.409690 6.786190 -10.371037 0
M  V30 9 C 9.601863 7.735186 -7.993776 0 CFG=1
M  V30 10 C 10.175981 4.677253 -18.014488 0
M  V30 11 C 7.311454 3.422503 -14.517368 0 CFG=1
M  V30 12 C 6.959083 0.128153 -12.971679 0
M  V30 13 C 8.791247 5.030314 -18.471634 0 CFG=1
M  V30 14 O 8.591152 5.994989 -11.216971 0
M  V30 15 C 11.102005 8.042164 -8.097227 0 CFG=2
M  V30 16 C 7.571419 4.189084 -18.118699 0 CFG=1
M  V30 17 N 7.994158 5.312508 -16.054686 0 CFG=2 CHG=1
M  V30 18 C 9.213410 6.510268 -8.865612 0
M  V30 19 C 6.526447 1.514363 -13.432918 0
M  V30 20 C 8.069697 3.845081 -15.791170 0 CFG=2
M  V30 21 O 5.951696 -0.409775 -12.146306 0
M  V30 22 C 9.214967 7.589471 -6.505802 0
M  V30 23 N 10.765734 3.480650 -18.299200 0
M  V30 24 C 7.057865 6.044890 -15.158671 0
M  V30 25 N 10.903717 5.531086 -17.292204 0
M  V30 26 O 12.101060 4.835788 -17.054531 0
M  V30 27 C 11.920014 3.656411 -17.680667 0
M  V30 28 O 7.537573 2.075937 -14.260124 0
M  V30 29 N 12.983634 2.775093 -17.582830 0
M  V30 30 C 8.553753 3.926889 -12.398715 0
M  V30 31 C 11.924400 6.980278 -7.386277 0
M  V30 32 C 14.265489 2.889254 -16.912076 0
M  V30 33 C 7.578616 3.123566 -17.052438 0
M  V30 34 H 11.775238 7.782167 -5.367807 0
M  V30 35 H 12.131853 6.062747 -5.433371 0
M  V30 36 H 7.070117 6.362461 -17.771491 0
M  V30 37 H 9.610639 4.345087 -10.568640 0
M  V30 38 H 6.494706 6.008795 -13.035893 0
M  V30 39 H 8.176078 6.377061 -13.396907 0
M  V30 40 H 9.776252 6.447113 -4.740103 0
M  V30 41 H 9.867898 5.590262 -6.257067 0
M  V30 42 H 10.457744 6.681605 -10.654212 0
M  V30 43 H 9.143711 7.820541 -10.589946 0
M  V30 44 H 9.048278 8.593738 -8.377991 0
M  V30 45 H 6.237564 3.560060 -14.661792 0
M  V30 46 H 7.891469 0.190222 -12.410511 0
M  V30 47 H 7.120905 -0.524947 -13.829504 0
M  V30 48 H 8.822338 5.477334 -19.463862 0
M  V30 49 H 11.420075 8.154887 -9.133167 0
M  V30 50 H 6.834084 4.061951 -18.908704 0
M  V30 51 H 8.175392 6.262676 -8.673961 0
M  V30 52 H 9.752910 5.608797 -8.583085 0
M  V30 53 H 5.589429 1.447547 -13.984968 0
M  V30 54 H 6.342590 2.142819 -12.559712 0
M  V30 55 H 9.121432 3.619019 -15.644750 0
M  V30 56 H 5.487109 -1.083098 -12.643556 0
M  V30 57 H 9.314885 8.551427 -6.002535 0
M  V30 58 H 8.175307 7.308197 -6.408331 0
M  V30 59 H 6.035817 5.753258 -15.407003 0
M  V30 60 H 7.116995 7.119432 -15.331224 0
M  V30 61 H 12.840936 1.890552 -18.047615 0
M  V30 62 H 8.860684 2.893742 -12.474340 0
M  V30 63 H 12.975423 7.191056 -7.581506 0
M  V30 64 H 11.722179 6.014158 -7.827830 0
M  V30 65 H 14.657976 1.899673 -16.677413 0
M  V30 66 H 14.982800 3.406702 -17.549356 0
M  V30 67 H 14.165043 3.447376 -15.981267 0
M  V30 68 H 6.575445 2.721485 -16.929699 0
M  V30 69 H 8.230010 2.295501 -17.335545 0
M  V30 70 H 8.914632 5.679348 -15.851113 0
M  V30 END ATOM
M  V30 BEGIN BOND
M  V30 1 1 6 2
M  V30 2 1 7 1
M  V30 3 1 11 2
M  V30 4 1 13 3
M  V30 5 1 13 10
M  V30 6 1 14 4
M  V30 7 1 14 8
M  V30 8 1 15 5
M  V30 9 1 15 9
M  V30 10 1 16 3
M  V30 11 1 16 13
M  V30 12 1 17 3
M  V30 13 1 18 8
M  V30 14 1 18 9
M  V30 15 1 19 12
M  V30 16 1 20 11
M  V30 17 1 20 17
M  V30 18 1 21 12
M  V30 19 1 22 7
M  V30 20 1 22 9
M  V30 21 1 23 10
M  V30 22 1 24 6
M  V30 23 1 24 17
M  V30 24 2 25 10
M  V30 25 1 26 25
M  V30 26 2 27 23
M  V30 27 1 27 26
M  V30 28 1 28 11
M  V30 29 1 28 19
M  V30 30 1 29 27
M  V30 31 1 30 2
M  V30 32 2 30 4
M  V30 33 1 31 1
M  V30 34 1 31 15
M  V30 35 1 32 29
M  V30 36 1 33 16
M  V30 37 1 33 20
M  V30 38 1 34 1
M  V30 39 1 35 1
M  V30 40 1 3 36 CFG=1
M  V30 41 1 37 4
M  V30 42 1 38 6
M  V30 43 1 39 6
M  V30 44 1 40 7
M  V30 45 1 41 7
M  V30 46 1 42 8
M  V30 47 1 43 8
M  V30 48 1 9 44 CFG=3
M  V30 49 1 11 45 CFG=3
M  V30 50 1 46 12
M  V30 51 1 47 12
M  V30 52 1 13 48 CFG=3
M  V30 53 1 15 49 CFG=3
M  V30 54 1 16 50 CFG=3
M  V30 55 1 51 18
M  V30 56 1 52 18
M  V30 57 1 53 19
M  V30 58 1 54 19
M  V30 59 1 20 55 CFG=1
M  V30 60 1 56 21
M  V30 61 1 57 22
M  V30 62 1 58 22
M  V30 63 1 59 24
M  V30 64 1 60 24
M  V30 65 1 61 29
M  V30 66 1 62 30
M  V30 67 1 63 31
M  V30 68 1 64 31
M  V30 69 1 65 32
M  V30 70 1 66 32
M  V30 71 1 67 32
M  V30 72 1 68 33
M  V30 73 1 69 33
M  V30 74 1 17 70 CFG=1
M  V30 END BOND
M  V30 END CTAB
M  END
>  <i_epik_Tot_Q>  (1) 
1

>  <i_epik_Tot_abs_Q>  (1) 
1

>  <i_i_glide_confnum>  (1) 
304

>  <i_i_glide_lignum>  (1) 
7

>  <i_i_glide_posenum>  (1) 
218

>  <i_i_glide_rotatable_bonds>  (1) 
11

>  <i_lp_mmshare_version>  (1) 
72125

>  <i_m_source_file_index>  (1) 
1

>  <i_f3d_flags>  (1) 
0

>  <num_sample>  (1) 
50

>  <b_lp_Chiralities_Consistent>  (1) 
1

>  <r_epik_Charging_Adjusted_Penalty>  (1) 
0.41344222577729461

>  <r_epik_Ionization_Penalty>  (1) 
0.0027644559619576371

>  <r_epik_Ionization_Penalty_Charging>  (1) 
0.0027623868246906495

>  <r_epik_Ionization_Penalty_Neutral>  (1) 
2.0691372669875143e-06

>  <r_epik_State_Penalty>  (1) 
0.41067983895260396

>  <r_glide_ring_energy>  (1) 
1.2887488819257911

>  <r_i_docking_score>  (1) 
-4.4182355463428484

>  <r_i_glide_ecoul>  (1) 
-2.9409969676382257

>  <r_i_glide_eff_state_penalty>  (1) 
0.41067983895260396

>  <r_i_glide_einternal>  (1) 
6.3854888724404777

>  <r_i_glide_emodel>  (1) 
-36.298030614226974

>  <r_i_glide_emodel_strain>  (1) 
0.92435758944964164

>  <r_i_glide_energy>  (1) 
-32.184900833318508

>  <r_i_glide_erotb>  (1) 
0.74142510397790429

>  <r_i_glide_esite>  (1) 
0

>  <r_i_glide_evdw>  (1) 
-29.243903865680284

>  <r_i_glide_gscore>  (1) 
-4.8289153852954527

>  <r_i_glide_gscore_strain>  (1) 
0

>  <r_i_glide_hbond>  (1) 
-0.16

>  <r_i_glide_ligand_efficiency>  (1) 
-0.13388592564675297

>  <r_i_glide_ligand_efficiency_ln>  (1) 
-0.98259270910730911

>  <r_i_glide_ligand_efficiency_sa>  (1) 
-0.42944370281522892

>  <r_i_glide_lipo>  (1) 
-2.1672011839573759

>  <r_i_glide_metal>  (1) 
-0

>  <r_i_glide_rewards>  (1) 
-1.3397945668862328

>  <r_lp_Energy>  (1) 
39.472059000000002

>  <r_lp_tautomer_probability>  (1) 
0.5

>  <s_epik_Chemistry_Notes>  (1) 
This compound has an imine and may undergo hydrolysis. This compound contains an acetal/aminal-like group ( X-CH(R)-Y where X, Y are N, S, or O) that may be acid/base labile, releasing an aldehyde.

>  <s_epik_cmdline>  (1) 
J2VwaWtfcHl0aG9uJywgJy1waHQnLCAnMS4wJywgJy1waCcsICc3LjQnLCAnLXRuJywgJzgnLCAnLW1hJywgJzUwMCcsICctaW1hZScsICc8aW5maWxlLm1hZT4nLCAnLW9tYWUnLCAnPG91dGZpbGUubWFlPic=

>  <s_epik_input>  (1) 
W0NIMl0xW0NIMl1bQ0gyXVtDSDJdW0NASF0oRilbQ0BIXTFbQ0gyXVtDSDJdTy9bQ0hdPVtDSF1cTihbQ0BIXTJPW0NIMl1bQ0gyXVtPSF0pW0NIMl1bQ0gyXU4zW0NAQEhdMltDSDJdW0NAQEhdKFtDQEBIXTM0KVtDQEBIXTRjNW5jKG9uNSlbTkhdW0NIM10=

>  <s_glide_docking_method>  (1) 
confgen

>  <s_i_glide_gridfile>  (1) 
gpcr_drd2_6luq_protein_autoprepared_prepared

>  <s_lp_Force_Field>  (1) 
S-OPLS

>  <s_lp_Variant>  (1) 
DiffSBDD_0-7

>  <s_m_source_file>  (1) 
generated_generic_title2_ligand_DiffSBDD_2026-06-23_prepared.sdf

>  <GenAI_Model>  (1) 
DiffSBDD

>  <Protein>  (1) 
generic_title2

$$$$
DiffSBDD_0
     RDKit          3D

  0  0  0  0  0  0  0  0  0  0999 V3000
M  V30 BEGIN CTAB
M  V30 COUNTS 70 74 0 0 1
M  V30 BEGIN ATOM
M  V30 1 C 10.112878 6.856819 -5.761265 0
M  V30 2 N 7.393418 4.653066 -14.036879 0
M  V30 3 C 7.736371 5.120897 -18.164978 0 CFG=1
M  V30 4 C 8.614565 5.804214 -12.273740 0
M  V30 5 F 12.131286 8.809284 -6.682700 0
M  V30 6 C 6.667354 5.829963 -14.515140 0
M  V30 7 C 9.042504 7.204593 -6.797603 0
M  V30 8 C 9.506763 6.906243 -10.429030 0
M  V30 9 C 10.803084 8.003878 -8.438152 0 CFG=1
M  V30 10 C 10.290861 4.512226 -18.236317 0
M  V30 11 C 7.236039 3.473346 -14.871197 0 CFG=1
M  V30 12 C 7.176137 0.272266 -13.011848 0
M  V30 13 C 8.948423 4.568309 -18.902578 0 CFG=1
M  V30 14 O 9.586341 5.802059 -11.315312 0
M  V30 15 C 11.886460 7.699705 -7.383112 0 CFG=2
M  V30 16 C 7.767880 3.670932 -18.543350 0 CFG=1
M  V30 17 N 7.818868 5.165372 -16.679698 0 CFG=2 CHG=1
M  V30 18 C 10.672842 6.836633 -9.444230 0
M  V30 19 C 6.690480 1.658619 -13.458553 0
M  V30 20 C 8.023162 3.774392 -16.161408 0 CFG=2
M  V30 21 O 6.175392 -0.406994 -12.271529 0
M  V30 22 C 9.501968 8.350419 -7.698499 0
M  V30 23 N 11.064702 3.388737 -18.221456 0
M  V30 24 C 6.678179 5.903103 -16.062624 0
M  V30 25 N 10.798381 5.580952 -17.618958 0
M  V30 26 O 12.038591 5.134198 -17.135654 0
M  V30 27 C 12.101388 3.851158 -17.542980 0
M  V30 28 O 7.657044 2.262605 -14.317975 0
M  V30 29 N 13.260658 3.183028 -17.184908 0
M  V30 30 C 8.356670 4.724538 -13.031234 0
M  V30 31 C 11.455496 6.557718 -6.423936 0
M  V30 32 C 14.425973 3.619019 -16.437352 0
M  V30 33 C 7.691143 2.813762 -17.305876 0
M  V30 34 H 10.237873 7.701253 -5.086167 0
M  V30 35 H 9.792578 6.013237 -5.149972 0
M  V30 36 H 7.050522 5.810864 -18.653992 0
M  V30 37 H 8.099220 6.751302 -12.345223 0
M  V30 38 H 5.645228 5.819301 -14.133876 0
M  V30 39 H 7.121401 6.748606 -14.150601 0
M  V30 40 H 8.158586 7.535713 -6.279029 0
M  V30 41 H 8.758082 6.329660 -7.382856 0
M  V30 42 H 9.500166 7.860007 -10.960054 0
M  V30 43 H 8.575422 6.790221 -9.884323 0
M  V30 44 H 11.107854 8.887174 -9.001543 0
M  V30 45 H 6.175449 3.393216 -15.099786 0
M  V30 46 H 8.067497 0.376294 -12.392657 0
M  V30 47 H 7.446501 -0.334876 -13.877023 0
M  V30 48 H 9.064028 4.843020 -19.949225 0
M  V30 49 H 12.831336 7.473183 -7.871517 0
M  V30 50 H 7.153064 3.341272 -19.379128 0
M  V30 51 H 10.575429 5.886685 -8.923629 0
M  V30 52 H 11.601203 6.790340 -10.008265 0
M  V30 53 H 5.742946 1.544275 -13.984980 0
M  V30 54 H 6.505833 2.294990 -12.591915 0
M  V30 55 H 9.083146 3.687968 -15.924125 0
M  V30 56 H 5.743436 -1.057090 -12.823027 0
M  V30 57 H 9.674700 9.209702 -7.058056 0
M  V30 58 H 8.722124 8.665812 -8.385066 0
M  V30 59 H 5.752987 5.472790 -16.441543 0
M  V30 60 H 6.673754 6.942622 -16.391492 0
M  V30 61 H 13.301246 2.219785 -17.483470 0
M  V30 62 H 8.910518 3.805643 -12.899243 0
M  V30 63 H 12.175408 6.390179 -5.631078 0
M  V30 64 H 11.395698 5.607996 -6.952763 0
M  V30 65 H 14.980885 2.758471 -16.063123 0
M  V30 66 H 15.085287 4.207680 -17.075187 0
M  V30 67 H 14.131334 4.232701 -15.585137 0
M  V30 68 H 6.681566 2.410572 -17.216145 0
M  V30 69 H 8.388773 1.977372 -17.362673 0
M  V30 70 H 8.652735 5.681356 -16.429149 0
M  V30 END ATOM
M  V30 BEGIN BOND
M  V30 1 1 6 2
M  V30 2 1 7 1
M  V30 3 1 11 2
M  V30 4 1 13 3
M  V30 5 1 13 10
M  V30 6 1 14 4
M  V30 7 1 14 8
M  V30 8 1 15 5
M  V30 9 1 15 9
M  V30 10 1 16 3
M  V30 11 1 16 13
M  V30 12 1 17 3
M  V30 13 1 18 8
M  V30 14 1 18 9
M  V30 15 1 19 12
M  V30 16 1 20 11
M  V30 17 1 20 17
M  V30 18 1 21 12
M  V30 19 1 22 7
M  V30 20 1 22 9
M  V30 21 1 23 10
M  V30 22 1 24 6
M  V30 23 1 24 17
M  V30 24 2 25 10
M  V30 25 1 26 25
M  V30 26 2 27 23
M  V30 27 1 27 26
M  V30 28 1 28 11
M  V30 29 1 28 19
M  V30 30 1 29 27
M  V30 31 1 30 2
M  V30 32 2 30 4
M  V30 33 1 31 1
M  V30 34 1 31 15
M  V30 35 1 32 29
M  V30 36 1 33 16
M  V30 37 1 33 20
M  V30 38 1 34 1
M  V30 39 1 35 1
M  V30 40 1 3 36 CFG=3
M  V30 41 1 37 4
M  V30 42 1 38 6
M  V30 43 1 39 6
M  V30 44 1 40 7
M  V30 45 1 41 7
M  V30 46 1 42 8
M  V30 47 1 43 8
M  V30 48 1 9 44 CFG=3
M  V30 49 1 11 45 CFG=3
M  V30 50 1 46 12
M  V30 51 1 47 12
M  V30 52 1 13 48 CFG=3
M  V30 53 1 15 49 CFG=3
M  V30 54 1 16 50 CFG=3
M  V30 55 1 51 18
M  V30 56 1 52 18
M  V30 57 1 53 19
M  V30 58 1 54 19
M  V30 59 1 20 55 CFG=1
M  V30 60 1 56 21
M  V30 61 1 57 22
M  V30 62 1 58 22
M  V30 63 1 59 24
M  V30 64 1 60 24
M  V30 65 1 61 29
M  V30 66 1 62 30
M  V30 67 1 63 31
M  V30 68 1 64 31
M  V30 69 1 65 32
M  V30 70 1 66 32
M  V30 71 1 67 32
M  V30 72 1 68 33
M  V30 73 1 69 33
M  V30 74 1 17 70 CFG=3
M  V30 END BOND
M  V30 END CTAB
M  END
>  <i_epik_Tot_Q>  (1) 
1

>  <i_epik_Tot_abs_Q>  (1) 
1

>  <i_i_glide_confnum>  (1) 
87

>  <i_i_glide_lignum>  (1) 
5

>  <i_i_glide_posenum>  (1) 
172

>  <i_i_glide_rotatable_bonds>  (1) 
11

>  <i_lp_mmshare_version>  (1) 
72125

>  <i_m_source_file_index>  (1) 
1

>  <i_f3d_flags>  (1) 
0

>  <num_sample>  (1) 
50

>  <b_lp_Chiralities_Consistent>  (1) 
1

>  <r_epik_Charging_Adjusted_Penalty>  (1) 
0.41344222577729461

>  <r_epik_Ionization_Penalty>  (1) 
0.0027644559619576371

>  <r_epik_Ionization_Penalty_Charging>  (1) 
0.0027623868246906495

>  <r_epik_Ionization_Penalty_Neutral>  (1) 
2.0691372669875143e-06

>  <r_epik_State_Penalty>  (1) 
0.41067983895260396

>  <r_glide_ring_energy>  (1) 
1.2887488819258046

>  <r_i_docking_score>  (1) 
-4.4024837224419651

>  <r_i_glide_ecoul>  (1) 
-3.2841404480943632

>  <r_i_glide_eff_state_penalty>  (1) 
0.41067983895260396

>  <r_i_glide_einternal>  (1) 
6.8111783727043189

>  <r_i_glide_emodel>  (1) 
-42.581342876921283

>  <r_i_glide_emodel_strain>  (1) 
1.2110410666049347

>  <r_i_glide_energy>  (1) 
-35.067300653251962

>  <r_i_glide_erotb>  (1) 
0.74142510397790429

>  <r_i_glide_esite>  (1) 
0

>  <r_i_glide_evdw>  (1) 
-31.7831602051576

>  <r_i_glide_gscore>  (1) 
-4.8131635613945694

>  <r_i_glide_gscore_strain>  (1) 
0

>  <r_i_glide_hbond>  (1) 
-0.16

>  <r_i_glide_ligand_efficiency>  (1) 
-0.13340859764975652

>  <r_i_glide_ligand_efficiency_ln>  (1) 
-0.97908958503033183

>  <r_i_glide_ligand_efficiency_sa>  (1) 
-0.42791265687819457

>  <r_i_glide_lipo>  (1) 
-1.9113106475007842

>  <r_i_glide_metal>  (1) 
-0

>  <r_i_glide_rewards>  (1) 
-1.4014989403996536

>  <r_lp_Energy>  (1) 
43.260881999999995

>  <r_lp_tautomer_probability>  (1) 
0.5

>  <s_epik_Chemistry_Notes>  (1) 
This compound has an imine and may undergo hydrolysis. This compound contains an acetal/aminal-like group ( X-CH(R)-Y where X, Y are N, S, or O) that may be acid/base labile, releasing an aldehyde.

>  <s_epik_cmdline>  (1) 
J2VwaWtfcHl0aG9uJywgJy1waHQnLCAnMS4wJywgJy1waCcsICc3LjQnLCAnLXRuJywgJzgnLCAnLW1hJywgJzUwMCcsICctaW1hZScsICc8aW5maWxlLm1hZT4nLCAnLW9tYWUnLCAnPG91dGZpbGUubWFlPic=

>  <s_epik_input>  (1) 
W0NIMl0xW0NIMl1bQ0gyXVtDSDJdW0NASF0oRilbQ0BIXTFbQ0gyXVtDSDJdTy9bQ0hdPVtDSF0vTihbQ0BIXTJPW0NIMl1bQ0gyXVtPSF0pW0NIMl1bQ0gyXU4zW0NAQEhdMltDSDJdW0NAQEhdKFtDQEBIXTM0KVtDQEBIXTRjNW5jKG9uNSlbTkhdW0NIM10=

>  <s_glide_docking_method>  (1) 
confgen

>  <s_i_glide_gridfile>  (1) 
gpcr_drd2_6luq_protein_autoprepared_prepared

>  <s_lp_Force_Field>  (1) 
S-OPLS

>  <s_lp_Variant>  (1) 
DiffSBDD_0-5

>  <s_m_source_file>  (1) 
generated_generic_title2_ligand_DiffSBDD_2026-06-23_prepared.sdf

>  <GenAI_Model>  (1) 
DiffSBDD

>  <Protein>  (1) 
generic_title2

$$$$
DiffSBDD_0
     RDKit          3D

  0  0  0  0  0  0  0  0  0  0999 V3000
M  V30 BEGIN CTAB
M  V30 COUNTS 70 74 0 0 1
M  V30 BEGIN ATOM
M  V30 1 C 10.279778 7.220094 -5.942275 0
M  V30 2 N 8.174636 3.852622 -13.262660 0
M  V30 3 C 7.552778 5.388623 -17.207602 0 CFG=1
M  V30 4 C 9.226363 4.157923 -11.075288 0
M  V30 5 F 12.376365 8.612161 -7.565559 0
M  V30 6 C 7.595123 5.200948 -13.368162 0
M  V30 7 C 9.025545 7.713604 -6.668772 0
M  V30 8 C 9.333324 6.073081 -9.721684 0
M  V30 9 C 10.400523 8.294427 -8.761064 0 CFG=1
M  V30 10 C 10.022651 4.784590 -17.947255 0
M  V30 11 C 7.890175 2.939928 -14.366309 0 CFG=2
M  V30 12 C 5.000431 0.766850 -13.617191 0
M  V30 13 C 8.582429 5.050580 -18.290869 0 CFG=1
M  V30 14 O 8.893766 5.479690 -10.938914 0
M  V30 15 C 11.625779 7.641191 -8.087052 0 CFG=2
M  V30 16 C 7.462245 4.079878 -17.933129 0 CFG=1
M  V30 17 N 7.946129 5.067350 -15.808891 0 CFG=2 CHG=1
M  V30 18 C 9.798892 7.517426 -9.966336 0
M  V30 19 C 6.422504 1.322728 -13.500471 0
M  V30 20 C 8.225223 3.615951 -15.717404 0 CFG=2
M  V30 21 O 4.866444 -0.009736 -14.785081 0
M  V30 22 C 9.390189 8.774266 -7.703429 0
M  V30 23 N 10.695246 3.677751 -18.374868 0
M  V30 24 C 7.017355 5.531970 -14.759966 0
M  V30 25 N 10.707234 5.613793 -17.159499 0
M  V30 26 O 11.952020 4.986444 -17.002704 0
M  V30 27 C 11.841006 3.864916 -17.736652 0
M  V30 28 O 6.584370 2.457263 -14.351656 0
M  V30 29 N 12.953734 3.043758 -17.704919 0
M  V30 30 C 8.897668 3.423703 -12.152559 0
M  V30 31 C 11.279012 6.640198 -6.952372 0
M  V30 32 C 13.215133 1.765996 -18.337668 0
M  V30 33 C 7.625913 2.939994 -16.958318 0
M  V30 34 H 10.741195 8.041819 -5.393557 0
M  V30 35 H 10.011638 6.461445 -5.205837 0
M  V30 36 H 6.809120 6.169399 -17.358323 0
M  V30 37 H 9.775401 3.772927 -10.232947 0
M  V30 38 H 6.836710 5.339369 -12.596332 0
M  V30 39 H 8.387120 5.923186 -13.172934 0
M  V30 40 H 8.310152 8.158469 -5.985032 0
M  V30 41 H 8.520448 6.865490 -7.115190 0
M  V30 42 H 8.506832 6.008147 -9.019061 0
M  V30 43 H 10.172763 5.531857 -9.297185 0
M  V30 44 H 10.776493 9.206311 -9.225820 0
M  V30 45 H 8.560698 2.082671 -14.266139 0
M  V30 46 H 4.252175 1.557612 -13.584984 0
M  V30 47 H 4.806217 0.093641 -12.784989 0
M  V30 48 H 8.508438 5.572174 -19.243407 0
M  V30 49 H 12.244217 7.190215 -8.857264 0
M  V30 50 H 6.684610 3.951560 -18.684069 0
M  V30 51 H 10.551336 7.487559 -10.754589 0
M  V30 52 H 8.975402 8.092592 -10.387333 0
M  V30 53 H 6.597203 1.628428 -12.467855 0
M  V30 54 H 7.144820 0.537334 -13.730814 0
M  V30 55 H 9.306812 3.590239 -15.804476 0
M  V30 56 H 4.975406 -0.923583 -14.535768 0
M  V30 57 H 9.835314 9.581871 -7.126403 0
M  V30 58 H 8.509701 9.190213 -8.182225 0
M  V30 59 H 6.048127 5.048648 -14.892856 0
M  V30 60 H 6.852539 6.606342 -14.850052 0
M  V30 61 H 13.714248 3.384784 -17.134980 0
M  V30 62 H 9.193257 2.389909 -12.217178 0
M  V30 63 H 12.175406 6.330496 -6.425179 0
M  V30 64 H 10.868194 5.716120 -7.347068 0
M  V30 65 H 14.112409 1.309096 -17.920551 0
M  V30 66 H 12.374937 1.088268 -18.182042 0
M  V30 67 H 13.357701 1.897040 -19.410517 0
M  V30 68 H 6.646207 2.501082 -16.768749 0
M  V30 69 H 8.270465 2.160978 -17.365286 0
M  V30 70 H 8.822363 5.538697 -15.626147 0
M  V30 END ATOM
M  V30 BEGIN BOND
M  V30 1 1 6 2
M  V30 2 1 7 1
M  V30 3 1 11 2
M  V30 4 1 13 3
M  V30 5 1 13 10
M  V30 6 1 14 4
M  V30 7 1 14 8
M  V30 8 1 15 5
M  V30 9 1 15 9
M  V30 10 1 16 3
M  V30 11 1 16 13
M  V30 12 1 17 3
M  V30 13 1 18 8
M  V30 14 1 18 9
M  V30 15 1 19 12
M  V30 16 1 20 11
M  V30 17 1 20 17
M  V30 18 1 21 12
M  V30 19 1 22 7
M  V30 20 1 22 9
M  V30 21 1 23 10
M  V30 22 1 24 6
M  V30 23 1 24 17
M  V30 24 2 25 10
M  V30 25 1 26 25
M  V30 26 2 27 23
M  V30 27 1 27 26
M  V30 28 1 28 11
M  V30 29 1 28 19
M  V30 30 1 29 27
M  V30 31 1 30 2
M  V30 32 2 30 4
M  V30 33 1 31 1
M  V30 34 1 31 15
M  V30 35 1 32 29
M  V30 36 1 33 16
M  V30 37 1 33 20
M  V30 38 1 34 1
M  V30 39 1 35 1
M  V30 40 1 3 36 CFG=1
M  V30 41 1 37 4
M  V30 42 1 38 6
M  V30 43 1 39 6
M  V30 44 1 40 7
M  V30 45 1 41 7
M  V30 46 1 42 8
M  V30 47 1 43 8
M  V30 48 1 9 44 CFG=3
M  V30 49 1 11 45 CFG=1
M  V30 50 1 46 12
M  V30 51 1 47 12
M  V30 52 1 13 48 CFG=3
M  V30 53 1 15 49 CFG=3
M  V30 54 1 16 50 CFG=3
M  V30 55 1 51 18
M  V30 56 1 52 18
M  V30 57 1 53 19
M  V30 58 1 54 19
M  V30 59 1 20 55 CFG=3
M  V30 60 1 56 21
M  V30 61 1 57 22
M  V30 62 1 58 22
M  V30 63 1 59 24
M  V30 64 1 60 24
M  V30 65 1 61 29
M  V30 66 1 62 30
M  V30 67 1 63 31
M  V30 68 1 64 31
M  V30 69 1 65 32
M  V30 70 1 66 32
M  V30 71 1 67 32
M  V30 72 1 68 33
M  V30 73 1 69 33
M  V30 74 1 17 70 CFG=1
M  V30 END BOND
M  V30 END CTAB
M  END
>  <i_epik_Tot_Q>  (1) 
1

>  <i_epik_Tot_abs_Q>  (1) 
1

>  <i_i_glide_confnum>  (1) 
165

>  <i_i_glide_lignum>  (1) 
3

>  <i_i_glide_posenum>  (1) 
143

>  <i_i_glide_rotatable_bonds>  (1) 
11

>  <i_lp_mmshare_version>  (1) 
72125

>  <i_m_source_file_index>  (1) 
1

>  <i_f3d_flags>  (1) 
0

>  <num_sample>  (1) 
50

>  <b_lp_Chiralities_Consistent>  (1) 
1

>  <r_epik_Charging_Adjusted_Penalty>  (1) 
0.41344222577729461

>  <r_epik_Ionization_Penalty>  (1) 
0.0027644559619576371

>  <r_epik_Ionization_Penalty_Charging>  (1) 
0.0027623868246906495

>  <r_epik_Ionization_Penalty_Neutral>  (1) 
2.0691372669875143e-06

>  <r_epik_State_Penalty>  (1) 
0.41067983895260396

>  <r_glide_ring_energy>  (1) 
1.2880141380397463

>  <r_i_docking_score>  (1) 
-4.399796319335139

>  <r_i_glide_ecoul>  (1) 
-2.3714300274105256

>  <r_i_glide_eff_state_penalty>  (1) 
0.41067983895260396

>  <r_i_glide_einternal>  (1) 
11.111354869284442

>  <r_i_glide_emodel>  (1) 
-39.509797704212119

>  <r_i_glide_emodel_strain>  (1) 
1.4162867115540507

>  <r_i_glide_energy>  (1) 
-35.293252892330486

>  <r_i_glide_erotb>  (1) 
0.74142510397790429

>  <r_i_glide_esite>  (1) 
0

>  <r_i_glide_evdw>  (1) 
-32.92182286491996

>  <r_i_glide_gscore>  (1) 
-4.8104761582877433

>  <r_i_glide_gscore_strain>  (1) 
0

>  <r_i_glide_hbond>  (1) 
-0.16

>  <r_i_glide_ligand_efficiency>  (1) 
-0.13332716119197391

>  <r_i_glide_ligand_efficiency_ln>  (1) 
-0.97849192049400235

>  <r_i_glide_ligand_efficiency_sa>  (1) 
-0.42765144664414362

>  <r_i_glide_lipo>  (1) 
-1.8801068210939234

>  <r_i_glide_metal>  (1) 
-0

>  <r_i_glide_rewards>  (1) 
-1.509988793814147

>  <r_lp_Energy>  (1) 
41.293589999999995

>  <r_lp_tautomer_probability>  (1) 
0.5

>  <s_epik_Chemistry_Notes>  (1) 
This compound has an imine and may undergo hydrolysis. This compound contains an acetal/aminal-like group ( X-CH(R)-Y where X, Y are N, S, or O) that may be acid/base labile, releasing an aldehyde.

>  <s_epik_cmdline>  (1) 
J2VwaWtfcHl0aG9uJywgJy1waHQnLCAnMS4wJywgJy1waCcsICc3LjQnLCAnLXRuJywgJzgnLCAnLW1hJywgJzUwMCcsICctaW1hZScsICc8aW5maWxlLm1hZT4nLCAnLW9tYWUnLCAnPG91dGZpbGUubWFlPic=

>  <s_epik_input>  (1) 
W0NIMl0xW0NIMl1bQ0gyXVtDSDJdW0NASF0oRilbQ0BIXTFbQ0gyXVtDSDJdTy9bQ0hdPVtDSF1cTihbQ0BIXTJPW0NIMl1bQ0gyXVtPSF0pW0NIMl1bQ0gyXU4zW0NAQEhdMltDSDJdW0NAQEhdKFtDQEBIXTM0KVtDQEBIXTRjNW5jKG9uNSlbTkhdW0NIM10=

>  <s_glide_docking_method>  (1) 
confgen

>  <s_i_glide_gridfile>  (1) 
gpcr_drd2_6luq_protein_autoprepared_prepared

>  <s_lp_Force_Field>  (1) 
S-OPLS

>  <s_lp_Variant>  (1) 
DiffSBDD_0-3

>  <s_m_source_file>  (1) 
generated_generic_title2_ligand_DiffSBDD_2026-06-23_prepared.sdf

>  <GenAI_Model>  (1) 
DiffSBDD

>  <Protein>  (1) 
generic_title2

$$$$
DiffSBDD_0
     RDKit          3D

  0  0  0  0  0  0  0  0  0  0999 V3000
M  V30 BEGIN CTAB
M  V30 COUNTS 70 74 0 0 1
M  V30 BEGIN ATOM
M  V30 1 C 11.905406 7.772684 -4.191912 0
M  V30 2 N 8.074905 4.786446 -11.173888 0
M  V30 3 C 7.180087 7.422735 -14.219230 0 CFG=1
M  V30 4 C 7.827291 4.868455 -8.701412 0
M  V30 5 F 11.305913 5.590206 -7.185012 0
M  V30 6 C 9.071418 5.838046 -11.327340 0
M  V30 7 C 11.529101 9.114300 -4.871244 0
M  V30 8 C 8.734046 6.318748 -7.098668 0
M  V30 9 C 10.827218 7.863015 -7.054832 0 CFG=1
M  V30 10 C 6.761344 6.137000 -16.533941 0
M  V30 11 C 7.733616 4.112814 -12.429259 0 CFG=2
M  V30 12 C 6.017815 0.961990 -13.374642 0
M  V30 13 C 6.383106 7.149900 -15.488880 0 CFG=1
M  V30 14 O 8.741022 5.863096 -8.461029 0
M  V30 15 C 11.570523 6.671062 -6.492018 0 CFG=1
M  V30 16 C 5.775359 6.876589 -14.120855 0 CFG=1
M  V30 17 N 8.030662 6.390158 -13.567281 0 CFG=2 CHG=1
M  V30 18 C 9.298556 7.745696 -6.894569 0
M  V30 19 C 7.170386 1.959963 -13.191425 0
M  V30 20 C 7.263620 5.120892 -13.496362 0 CFG=2
M  V30 21 O 6.026277 -0.009825 -12.353777 0
M  V30 22 C 11.481875 9.106455 -6.418703 0
M  V30 23 N 8.004827 5.576257 -16.612776 0
M  V30 24 C 8.499422 6.915548 -12.249214 0
M  V30 25 N 5.897617 5.771997 -17.480325 0
M  V30 26 O 6.620684 4.860571 -18.267952 0
M  V30 27 C 7.829943 4.815430 -17.680792 0
M  V30 28 O 6.794861 3.078379 -12.385034 0
M  V30 29 N 8.735706 3.965651 -18.288920 0
M  V30 30 C 7.525031 4.390337 -9.939666 0
M  V30 31 C 11.425873 6.521357 -4.960442 0
M  V30 32 C 10.115807 3.653734 -17.969106 0
M  V30 33 C 5.796684 5.541331 -13.408486 0
M  V30 34 H 12.975204 7.730047 -3.985022 0
M  V30 35 H 11.482857 7.747872 -3.189196 0
M  V30 36 H 7.415702 8.443720 -13.956891 0
M  V30 37 H 7.375403 4.505096 -7.795303 0
M  V30 38 H 9.422640 6.313423 -10.423607 0
M  V30 39 H 9.960369 5.401301 -11.784455 0
M  V30 40 H 12.224440 9.887528 -4.542739 0
M  V30 41 H 10.575417 9.449756 -4.491433 0
M  V30 42 H 7.775412 6.277021 -6.622832 0
M  V30 43 H 9.229661 5.590248 -6.474233 0
M  V30 44 H 11.021751 7.897605 -8.127804 0
M  V30 45 H 8.689016 3.681632 -12.742487 0
M  V30 46 H 6.158843 0.430167 -14.316282 0
M  V30 47 H 5.050518 1.459658 -13.439203 0
M  V30 48 H 6.007822 8.034683 -16.002028 0
M  V30 49 H 12.575411 6.790245 -6.794352 0
M  V30 50 H 4.999017 7.564800 -13.790310 0
M  V30 51 H 8.796964 8.437700 -7.570841 0
M  V30 52 H 9.025586 8.066359 -5.893029 0
M  V30 53 H 8.054524 1.464677 -12.785172 0
M  V30 54 H 7.443925 2.318565 -14.184352 0
M  V30 55 H 7.383952 4.592073 -14.434686 0
M  V30 56 H 5.539694 -0.767638 -12.661011 0
M  V30 57 H 12.506471 9.183248 -6.787311 0
M  V30 58 H 10.975597 9.991879 -6.777286 0
M  V30 59 H 7.658794 7.381791 -11.731636 0
M  V30 60 H 9.238790 7.699757 -12.408364 0
M  V30 61 H 8.381302 3.480630 -19.100962 0
M  V30 62 H 6.784234 3.610872 -10.045391 0
M  V30 63 H 11.976800 5.645856 -4.619258 0
M  V30 64 H 10.385892 6.328149 -4.699459 0
M  V30 65 H 10.530579 2.967970 -18.707869 0
M  V30 66 H 10.720089 4.561391 -17.962963 0
M  V30 67 H 10.186020 3.187518 -16.985902 0
M  V30 68 H 5.494694 5.685218 -12.369926 0
M  V30 69 H 5.121237 4.825991 -13.878288 0
M  V30 70 H 8.847001 6.216065 -14.137005 0
M  V30 END ATOM
M  V30 BEGIN BOND
M  V30 1 1 6 2
M  V30 2 1 7 1
M  V30 3 1 11 2
M  V30 4 1 13 3
M  V30 5 1 13 10
M  V30 6 1 14 4
M  V30 7 1 14 8
M  V30 8 1 15 5
M  V30 9 1 15 9
M  V30 10 1 16 3
M  V30 11 1 16 13
M  V30 12 1 17 3
M  V30 13 1 18 8
M  V30 14 1 18 9
M  V30 15 1 19 12
M  V30 16 1 20 11
M  V30 17 1 20 17
M  V30 18 1 21 12
M  V30 19 1 22 7
M  V30 20 1 22 9
M  V30 21 1 23 10
M  V30 22 1 24 6
M  V30 23 1 24 17
M  V30 24 2 25 10
M  V30 25 1 26 25
M  V30 26 2 27 23
M  V30 27 1 27 26
M  V30 28 1 28 11
M  V30 29 1 28 19
M  V30 30 1 29 27
M  V30 31 1 30 2
M  V30 32 2 30 4
M  V30 33 1 31 1
M  V30 34 1 31 15
M  V30 35 1 32 29
M  V30 36 1 33 16
M  V30 37 1 33 20
M  V30 38 1 34 1
M  V30 39 1 35 1
M  V30 40 1 3 36 CFG=1
M  V30 41 1 37 4
M  V30 42 1 38 6
M  V30 43 1 39 6
M  V30 44 1 40 7
M  V30 45 1 41 7
M  V30 46 1 42 8
M  V30 47 1 43 8
M  V30 48 1 9 44 CFG=3
M  V30 49 1 11 45 CFG=3
M  V30 50 1 46 12
M  V30 51 1 47 12
M  V30 52 1 13 48 CFG=3
M  V30 53 1 15 49 CFG=1
M  V30 54 1 16 50 CFG=1
M  V30 55 1 51 18
M  V30 56 1 52 18
M  V30 57 1 53 19
M  V30 58 1 54 19
M  V30 59 1 20 55 CFG=3
M  V30 60 1 56 21
M  V30 61 1 57 22
M  V30 62 1 58 22
M  V30 63 1 59 24
M  V30 64 1 60 24
M  V30 65 1 61 29
M  V30 66 1 62 30
M  V30 67 1 63 31
M  V30 68 1 64 31
M  V30 69 1 65 32
M  V30 70 1 66 32
M  V30 71 1 67 32
M  V30 72 1 68 33
M  V30 73 1 69 33
M  V30 74 1 17 70 CFG=3
M  V30 END BOND
M  V30 END CTAB
M  END
>  <i_epik_Tot_Q>  (1) 
1

>  <i_epik_Tot_abs_Q>  (1) 
1

>  <i_i_glide_confnum>  (1) 
530

>  <i_i_glide_lignum>  (1) 
11

>  <i_i_glide_posenum>  (1) 
300

>  <i_i_glide_rotatable_bonds>  (1) 
11

>  <i_lp_mmshare_version>  (1) 
72125

>  <i_m_source_file_index>  (1) 
1

>  <i_f3d_flags>  (1) 
0

>  <num_sample>  (1) 
50

>  <b_lp_Chiralities_Consistent>  (1) 
1

>  <r_epik_Charging_Adjusted_Penalty>  (1) 
0.41344222577729461

>  <r_epik_Ionization_Penalty>  (1) 
0.0027644559619576371

>  <r_epik_Ionization_Penalty_Charging>  (1) 
0.0027623868246906495

>  <r_epik_Ionization_Penalty_Neutral>  (1) 
2.0691372669875143e-06

>  <r_epik_State_Penalty>  (1) 
0.41067983895260396

>  <r_glide_ring_energy>  (1) 
1.6783687507504006

>  <r_i_docking_score>  (1) 
-4.3966823406179953

>  <r_i_glide_ecoul>  (1) 
-2.488818705187104

>  <r_i_glide_eff_state_penalty>  (1) 
0.41067983895260396

>  <r_i_glide_einternal>  (1) 
8.2934652873785613

>  <r_i_glide_emodel>  (1) 
-29.525989312088811

>  <r_i_glide_emodel_strain>  (1) 
4.5324914477407958

>  <r_i_glide_energy>  (1) 
-30.161231092944423

>  <r_i_glide_erotb>  (1) 
0.74142510397790429

>  <r_i_glide_esite>  (1) 
0

>  <r_i_glide_evdw>  (1) 
-27.672412387757319

>  <r_i_glide_gscore>  (1) 
-4.8073621795705996

>  <r_i_glide_gscore_strain>  (1) 
0.13312286193519896

>  <r_i_glide_hbond>  (1) 
-0.15958161325678941

>  <r_i_glide_ligand_efficiency>  (1) 
-0.13323279820054532

>  <r_i_glide_ligand_efficiency_ln>  (1) 
-0.97779938775062847

>  <r_i_glide_ligand_efficiency_sa>  (1) 
-0.42734877410965527

>  <r_i_glide_lipo>  (1) 
-2.5237662934330189

>  <r_i_glide_metal>  (1) 
-0

>  <r_i_glide_rewards>  (1) 
-1.2416188136279624

>  <r_lp_Energy>  (1) 
38.871550999999997

>  <r_lp_tautomer_probability>  (1) 
0.5

>  <s_epik_Chemistry_Notes>  (1) 
This compound has an imine and may undergo hydrolysis. This compound contains an acetal/aminal-like group ( X-CH(R)-Y where X, Y are N, S, or O) that may be acid/base labile, releasing an aldehyde.

>  <s_epik_cmdline>  (1) 
J2VwaWtfcHl0aG9uJywgJy1waHQnLCAnMS4wJywgJy1waCcsICc3LjQnLCAnLXRuJywgJzgnLCAnLW1hJywgJzUwMCcsICctaW1hZScsICc8aW5maWxlLm1hZT4nLCAnLW9tYWUnLCAnPG91dGZpbGUubWFlPic=

>  <s_epik_input>  (1) 
W0NIMl0xW0NIMl1bQ0gyXVtDSDJdW0NASF0oRilbQ0BIXTFbQ0gyXVtDSDJdTy9bQ0hdPVtDSF1cTihbQ0BIXTJPW0NIMl1bQ0gyXVtPSF0pW0NIMl1bQ0gyXU4zW0NAQEhdMltDSDJdW0NAQEhdKFtDQEBIXTM0KVtDQEBIXTRjNW5jKG9uNSlbTkhdW0NIM10=

>  <s_glide_docking_method>  (1) 
confgen

>  <s_i_glide_gridfile>  (1) 
gpcr_drd2_6luq_protein_autoprepared_prepared

>  <s_lp_Force_Field>  (1) 
S-OPLS

>  <s_lp_Variant>  (1) 
DiffSBDD_0-11

>  <s_m_source_file>  (1) 
generated_generic_title2_ligand_DiffSBDD_2026-06-23_prepared.sdf

>  <GenAI_Model>  (1) 
DiffSBDD

>  <Protein>  (1) 
generic_title2

$$$$
DiffSBDD_0
     RDKit          3D

  0  0  0  0  0  0  0  0  0  0999 V3000
M  V30 BEGIN CTAB
M  V30 COUNTS 70 74 0 0 1
M  V30 BEGIN ATOM
M  V30 1 C 11.519442 7.485406 -5.755563 0
M  V30 2 N 7.542399 4.234616 -13.701658 0
M  V30 3 C 7.435851 4.309454 -17.952467 0 CFG=1
M  V30 4 C 8.631291 5.549802 -11.964417 0
M  V30 5 F 11.501347 8.976622 -9.146022 0
M  V30 6 C 6.828848 5.364069 -14.315425 0
M  V30 7 C 10.124831 6.875515 -5.787296 0
M  V30 8 C 9.677304 6.908743 -10.339512 0
M  V30 9 C 9.630600 8.035201 -7.997472 0 CFG=1
M  V30 10 C 10.082711 4.311284 -17.956456 0
M  V30 11 C 7.444735 2.961402 -14.433284 0 CFG=1
M  V30 12 C 6.361274 0.570587 -12.843520 0
M  V30 13 C 8.775779 3.985916 -18.609835 0 CFG=1
M  V30 14 O 9.490193 5.619704 -10.907828 0
M  V30 15 C 11.035053 8.658815 -7.938155 0 CFG=1
M  V30 16 C 7.839912 2.869546 -18.179723 0 CFG=1
M  V30 17 N 7.284161 4.343813 -16.476278 0 CFG=1 CHG=1
M  V30 18 C 9.542180 6.732254 -8.827377 0
M  V30 19 C 7.580023 0.643539 -13.784327 0
M  V30 20 C 8.028932 3.252840 -15.832692 0 CFG=2
M  V30 21 O 5.171962 0.390447 -13.584635 0
M  V30 22 C 9.157772 7.786820 -6.550786 0
M  V30 23 N 10.380600 5.552886 -17.475574 0
M  V30 24 C 7.347968 5.622335 -15.746282 0
M  V30 25 N 11.038348 3.389865 -17.829315 0
M  V30 26 O 12.082814 4.072251 -17.185935 0
M  V30 27 C 11.604081 5.321722 -17.029965 0
M  V30 28 O 8.175362 1.934285 -13.839974 0
M  V30 29 N 12.474604 6.204994 -16.416110 0
M  V30 30 C 8.398086 4.396825 -12.610918 0
M  V30 31 C 12.026663 7.782286 -7.185010 0
M  V30 32 C 13.821472 6.023303 -15.909464 0
M  V30 33 C 7.946745 2.125451 -16.857687 0
M  V30 34 H 11.507809 8.405540 -5.169114 0
M  V30 35 H 12.175014 6.786354 -5.232390 0
M  V30 36 H 6.600807 4.714811 -18.521695 0
M  V30 37 H 8.182223 6.499673 -12.205542 0
M  V30 38 H 5.767530 5.111405 -14.342909 0
M  V30 39 H 6.890672 6.282981 -13.738500 0
M  V30 40 H 9.775987 6.696925 -4.774562 0
M  V30 41 H 10.164722 5.895813 -6.259073 0
M  V30 42 H 10.677163 7.246472 -10.607705 0
M  V30 43 H 8.976354 7.668432 -10.687695 0
M  V30 44 H 8.967745 8.773144 -8.448298 0
M  V30 45 H 6.388632 2.694255 -14.477736 0
M  V30 46 H 6.278078 1.465923 -12.229379 0
M  V30 47 H 6.458355 -0.275992 -12.160867 0
M  V30 48 H 8.853409 4.176699 -19.678973 0
M  V30 49 H 10.977545 9.590224 -7.383461 0
M  V30 50 H 7.359106 2.319139 -18.986611 0
M  V30 51 H 8.574557 6.270243 -8.636124 0
M  V30 52 H 10.273960 5.995832 -8.498990 0
M  V30 53 H 8.360850 0.002016 -13.380360 0
M  V30 54 H 7.357008 0.256076 -14.778711 0
M  V30 55 H 9.053747 3.588479 -15.698150 0
M  V30 56 H 5.015146 -0.548528 -13.660515 0
M  V30 57 H 9.055132 8.739783 -6.031360 0
M  V30 58 H 8.175434 7.329825 -6.538994 0
M  V30 59 H 6.736031 6.374705 -16.244264 0
M  V30 60 H 8.374047 5.990279 -15.719866 0
M  V30 61 H 12.114323 7.140672 -16.299852 0
M  V30 62 H 8.888901 3.484649 -12.306723 0
M  V30 63 H 12.980163 8.308420 -7.185025 0
M  V30 64 H 12.175276 6.843993 -7.709382 0
M  V30 65 H 14.055871 6.790351 -15.174788 0
M  V30 66 H 13.927841 5.050551 -15.429740 0
M  V30 67 H 14.543924 6.089159 -16.723688 0
M  V30 68 H 7.042422 1.529848 -16.723563 0
M  V30 69 H 8.813304 1.463638 -16.832533 0
M  V30 70 H 6.323514 4.060191 -16.350593 0
M  V30 END ATOM
M  V30 BEGIN BOND
M  V30 1 1 6 2
M  V30 2 1 7 1
M  V30 3 1 11 2
M  V30 4 1 13 3
M  V30 5 1 13 10
M  V30 6 1 14 4
M  V30 7 1 14 8
M  V30 8 1 15 5
M  V30 9 1 15 9
M  V30 10 1 16 3
M  V30 11 1 16 13
M  V30 12 1 17 3
M  V30 13 1 18 8
M  V30 14 1 18 9
M  V30 15 1 19 12
M  V30 16 1 20 11
M  V30 17 1 20 17
M  V30 18 1 21 12
M  V30 19 1 22 7
M  V30 20 1 22 9
M  V30 21 1 23 10
M  V30 22 1 24 6
M  V30 23 1 24 17
M  V30 24 2 25 10
M  V30 25 1 26 25
M  V30 26 2 27 23
M  V30 27 1 27 26
M  V30 28 1 28 11
M  V30 29 1 28 19
M  V30 30 1 29 27
M  V30 31 1 30 2
M  V30 32 2 30 4
M  V30 33 1 31 1
M  V30 34 1 31 15
M  V30 35 1 32 29
M  V30 36 1 33 16
M  V30 37 1 33 20
M  V30 38 1 34 1
M  V30 39 1 35 1
M  V30 40 1 3 36 CFG=3
M  V30 41 1 37 4
M  V30 42 1 38 6
M  V30 43 1 39 6
M  V30 44 1 40 7
M  V30 45 1 41 7
M  V30 46 1 42 8
M  V30 47 1 43 8
M  V30 48 1 9 44 CFG=3
M  V30 49 1 11 45 CFG=3
M  V30 50 1 46 12
M  V30 51 1 47 12
M  V30 52 1 13 48 CFG=3
M  V30 53 1 15 49 CFG=1
M  V30 54 1 16 50 CFG=3
M  V30 55 1 51 18
M  V30 56 1 52 18
M  V30 57 1 53 19
M  V30 58 1 54 19
M  V30 59 1 20 55 CFG=1
M  V30 60 1 56 21
M  V30 61 1 57 22
M  V30 62 1 58 22
M  V30 63 1 59 24
M  V30 64 1 60 24
M  V30 65 1 61 29
M  V30 66 1 62 30
M  V30 67 1 63 31
M  V30 68 1 64 31
M  V30 69 1 65 32
M  V30 70 1 66 32
M  V30 71 1 67 32
M  V30 72 1 68 33
M  V30 73 1 69 33
M  V30 74 1 17 70 CFG=3
M  V30 END BOND
M  V30 END CTAB
M  END
>  <i_epik_Tot_Q>  (1) 
1

>  <i_epik_Tot_abs_Q>  (1) 
1

>  <i_i_glide_confnum>  (1) 
275

>  <i_i_glide_lignum>  (1) 
14

>  <i_i_glide_posenum>  (1) 
176

>  <i_i_glide_rotatable_bonds>  (1) 
11

>  <i_lp_mmshare_version>  (1) 
72125

>  <i_m_source_file_index>  (1) 
1

>  <i_f3d_flags>  (1) 
0

>  <num_sample>  (1) 
50

>  <b_lp_Chiralities_Consistent>  (1) 
1

>  <r_epik_Charging_Adjusted_Penalty>  (1) 
0.41344222577729461

>  <r_epik_Ionization_Penalty>  (1) 
0.0027644559619576371

>  <r_epik_Ionization_Penalty_Charging>  (1) 
0.0027623868246906495

>  <r_epik_Ionization_Penalty_Neutral>  (1) 
2.0691372669875143e-06

>  <r_epik_State_Penalty>  (1) 
0.41067983895260396

>  <r_glide_ring_energy>  (1) 
1.7272227408313596

>  <r_i_docking_score>  (1) 
-4.3965870223524801

>  <r_i_glide_ecoul>  (1) 
-1.8871354586928035

>  <r_i_glide_eff_state_penalty>  (1) 
0.41067983895260396

>  <r_i_glide_einternal>  (1) 
10.445966923291795

>  <r_i_glide_emodel>  (1) 
-37.414746938237073

>  <r_i_glide_emodel_strain>  (1) 
1.4818182887353117

>  <r_i_glide_energy>  (1) 
-34.3787659737742

>  <r_i_glide_erotb>  (1) 
0.74142510397790429

>  <r_i_glide_esite>  (1) 
0

>  <r_i_glide_evdw>  (1) 
-32.491630515081397

>  <r_i_glide_gscore>  (1) 
-4.8072668613050844

>  <r_i_glide_gscore_strain>  (1) 
0

>  <r_i_glide_hbond>  (1) 
-0.16

>  <r_i_glide_ligand_efficiency>  (1) 
-0.13322990976825697

>  <r_i_glide_ligand_efficiency_ln>  (1) 
-0.97777818946190942

>  <r_i_glide_ligand_efficiency_sa>  (1) 
-0.42733950936393056

>  <r_i_glide_lipo>  (1) 
-2.1311706501724523

>  <r_i_glide_metal>  (1) 
-0

>  <r_i_glide_rewards>  (1) 
-1.3498694705525458

>  <r_lp_Energy>  (1) 
49.633499

>  <r_lp_tautomer_probability>  (1) 
0.5

>  <s_epik_Chemistry_Notes>  (1) 
This compound has an imine and may undergo hydrolysis. This compound contains an acetal/aminal-like group ( X-CH(R)-Y where X, Y are N, S, or O) that may be acid/base labile, releasing an aldehyde.

>  <s_epik_cmdline>  (1) 
J2VwaWtfcHl0aG9uJywgJy1waHQnLCAnMS4wJywgJy1waCcsICc3LjQnLCAnLXRuJywgJzgnLCAnLW1hJywgJzUwMCcsICctaW1hZScsICc8aW5maWxlLm1hZT4nLCAnLW9tYWUnLCAnPG91dGZpbGUubWFlPic=

>  <s_epik_input>  (1) 
W0NIMl0xW0NIMl1bQ0gyXVtDSDJdW0NASF0oRilbQ0BIXTFbQ0gyXVtDSDJdTy9bQ0hdPVtDSF0vTihbQ0BIXTJPW0NIMl1bQ0gyXVtPSF0pW0NIMl1bQ0gyXU4zW0NAQEhdMltDSDJdW0NAQEhdKFtDQEBIXTM0KVtDQEBIXTRjNW5jKG9uNSlbTkhdW0NIM10=

>  <s_glide_docking_method>  (1) 
confgen

>  <s_i_glide_gridfile>  (1) 
gpcr_drd2_6luq_protein_autoprepared_prepared

>  <s_lp_Force_Field>  (1) 
S-OPLS

>  <s_lp_Variant>  (1) 
DiffSBDD_0-14

>  <s_m_source_file>  (1) 
generated_generic_title2_ligand_DiffSBDD_2026-06-23_prepared.sdf

>  <GenAI_Model>  (1) 
DiffSBDD

>  <Protein>  (1) 
generic_title2

$$$$
DiffSBDD_16
     RDKit          3D

  0  0  0  0  0  0  0  0  0  0999 V3000
M  V30 BEGIN CTAB
M  V30 COUNTS 41 43 0 0 1
M  V30 BEGIN ATOM
M  V30 1 O 10.776489 6.862242 -5.105668 0
M  V30 2 O 11.944334 9.579232 -5.735485 0
M  V30 3 C 6.152010 4.530231 -13.410287 0
M  V30 4 C 10.174426 6.911929 -9.761605 0 CFG=1
M  V30 5 C 6.680099 6.783748 -14.451478 0
M  V30 6 S 11.775405 8.655763 -8.275264 0
M  V30 7 F 5.226770 3.589680 -13.185024 0
M  V30 8 C 7.389071 7.422106 -13.253587 0
M  V30 9 C 10.476584 7.506624 -8.395637 0
M  V30 10 C 11.375401 8.790222 -6.489988 0
M  V30 11 C 5.775398 5.624979 -14.095860 0
M  V30 12 C 9.375406 5.579732 -9.701239 0
M  V30 13 C 9.703835 7.459732 -12.180102 0
M  V30 14 C 9.226647 4.812712 -11.033311 0
M  V30 15 C 9.847008 7.196982 -7.277376 0
M  V30 16 C 10.255703 7.833718 -5.992107 0 CFG=1
M  V30 17 C 8.108527 5.373655 -11.933029 0 CFG=2
M  V30 18 C 7.558301 4.284839 -12.885357 0
M  V30 19 C 8.575389 6.583580 -12.762769 0 CFG=1
M  V30 20 C 9.583699 7.918978 -10.736340 0
M  V30 21 H 10.076418 6.277316 -4.853192 0
M  V30 22 H 11.182019 6.790228 -10.148439 0
M  V30 23 H 6.051490 7.542306 -14.919843 0
M  V30 24 H 7.389313 6.471733 -15.218410 0
M  V30 25 H 7.759900 8.390205 -13.587201 0
M  V30 26 H 6.692088 7.634870 -12.440936 0
M  V30 27 H 4.754656 5.700876 -14.433273 0
M  V30 28 H 9.876698 4.915046 -8.996646 0
M  V30 29 H 8.384626 5.757211 -9.280438 0
M  V30 30 H 9.780202 8.360086 -12.785025 0
M  V30 31 H 10.662361 6.960892 -12.329610 0
M  V30 32 H 10.172455 4.753763 -11.573804 0
M  V30 33 H 8.986317 3.780746 -10.782497 0
M  V30 34 H 9.034280 6.486064 -7.260542 0
M  V30 35 H 9.416814 8.390210 -5.585024 0
M  V30 36 H 7.293820 5.680173 -11.274357 0
M  V30 37 H 7.506677 3.330818 -12.361183 0
M  V30 38 H 8.232394 4.108292 -13.724511 0
M  V30 39 H 9.044826 6.163461 -13.648726 0
M  V30 40 H 10.212422 8.790227 -10.647151 0
M  V30 41 H 8.575418 8.241898 -10.503810 0
M  V30 END ATOM
M  V30 BEGIN BOND
M  V30 1 1 7 3
M  V30 2 1 8 5
M  V30 3 1 9 4
M  V30 4 1 9 6
M  V30 5 2 10 2
M  V30 6 1 10 6
M  V30 7 2 11 3
M  V30 8 1 11 5
M  V30 9 1 12 4
M  V30 10 1 14 12
M  V30 11 2 15 9
M  V30 12 1 16 1
M  V30 13 1 16 10
M  V30 14 1 16 15
M  V30 15 1 17 14
M  V30 16 1 18 3
M  V30 17 1 18 17
M  V30 18 1 19 8
M  V30 19 1 19 13
M  V30 20 1 19 17
M  V30 21 1 20 4
M  V30 22 1 20 13
M  V30 23 1 21 1
M  V30 24 1 4 22 CFG=3
M  V30 25 1 23 5
M  V30 26 1 24 5
M  V30 27 1 25 8
M  V30 28 1 26 8
M  V30 29 1 27 11
M  V30 30 1 28 12
M  V30 31 1 29 12
M  V30 32 1 30 13
M  V30 33 1 31 13
M  V30 34 1 32 14
M  V30 35 1 33 14
M  V30 36 1 34 15
M  V30 37 1 16 35 CFG=1
M  V30 38 1 17 36 CFG=1
M  V30 39 1 37 18
M  V30 40 1 38 18
M  V30 41 1 19 39 CFG=3
M  V30 42 1 40 20
M  V30 43 1 41 20
M  V30 END BOND
M  V30 END CTAB
M  END
>  <i_epik_Tot_Q>  (1) 
0

>  <i_epik_Tot_abs_Q>  (1) 
0

>  <i_i_glide_confnum>  (1) 
2

>  <i_i_glide_lignum>  (1) 
59

>  <i_i_glide_posenum>  (1) 
221

>  <i_i_glide_rotatable_bonds>  (1) 
2

>  <i_lp_mmshare_version>  (1) 
72125

>  <i_m_source_file_index>  (1) 
17

>  <i_f3d_flags>  (1) 
0

>  <num_sample>  (1) 
50

>  <b_lp_Chiralities_Consistent>  (1) 
1

>  <r_epik_Charging_Adjusted_Penalty>  (1) 
0.89600900946001893

>  <r_epik_Ionization_Penalty>  (1) 
0.89600900946003292

>  <r_epik_Ionization_Penalty_Charging>  (1) 
0

>  <r_epik_Ionization_Penalty_Neutral>  (1) 
0.89600900946003292

>  <r_epik_State_Penalty>  (1) 
0.89600900946001893

>  <r_glide_ring_energy>  (1) 
0

>  <r_i_docking_score>  (1) 
-4.3943299549528341

>  <r_i_glide_ecoul>  (1) 
-1.9070524752588425

>  <r_i_glide_eff_state_penalty>  (1) 
0.89600900946001893

>  <r_i_glide_einternal>  (1) 
2.0870060555212984

>  <r_i_glide_emodel>  (1) 
-40.498071874592327

>  <r_i_glide_emodel_strain>  (1) 
0.29014005079788774

>  <r_i_glide_energy>  (1) 
-32.330109205843819

>  <r_i_glide_erotb>  (1) 
0.20851456216113889

>  <r_i_glide_esite>  (1) 
0

>  <r_i_glide_evdw>  (1) 
-30.423056730584978

>  <r_i_glide_gscore>  (1) 
-5.2903389644128529

>  <r_i_glide_gscore_strain>  (1) 
0

>  <r_i_glide_hbond>  (1) 
0

>  <r_i_glide_ligand_efficiency>  (1) 
-0.21971649774764171

>  <r_i_glide_ligand_efficiency_ln>  (1) 
-1.0997558530227332

>  <r_i_glide_ligand_efficiency_sa>  (1) 
-0.59640233214273375

>  <r_i_glide_lipo>  (1) 
-1.2203707561461632

>  <r_i_glide_metal>  (1) 
-0

>  <r_i_glide_rewards>  (1) 
-2.4712720626097533

>  <r_lp_Energy>  (1) 
22.466232999999999

>  <s_epik_cmdline>  (1) 
J2VwaWtfcHl0aG9uJywgJy1waHQnLCAnMS4wJywgJy1waCcsICc3LjQnLCAnLXRuJywgJzgnLCAnLW1hJywgJzUwMCcsICctaW1hZScsICc8aW5maWxlLm1hZT4nLCAnLW9tYWUnLCAnPG91dGZpbGUubWFlPic=

>  <s_epik_input>  (1) 
Tz1DKFMxKVtDQEhdKFtPSF0pW0NIXT1DMVtDQEBIXShbQ0gyXVtDSDJdMilbQ0gyXVtDSDJdW0NAQEhdKFtDQEhdMjMpW0NIMl1bQ0gyXVtDSF09QyhGKVtDSDJdMw==

>  <s_glide_docking_method>  (1) 
confgen

>  <s_i_glide_gridfile>  (1) 
gpcr_drd2_6luq_protein_autoprepared_prepared

>  <s_lp_Force_Field>  (1) 
S-OPLS

>  <s_lp_Variant>  (1) 
DiffSBDD_16-2

>  <s_m_source_file>  (1) 
generated_generic_title2_ligand_DiffSBDD_2026-06-23_prepared.sdf

>  <GenAI_Model>  (1) 
DiffSBDD

>  <Protein>  (1) 
generic_title2

$$$$
DiffSBDD_12
     RDKit          3D

  0  0  0  0  0  0  0  0  0  0999 V3000
M  V30 BEGIN CTAB
M  V30 COUNTS 55 56 0 0 1
M  V30 BEGIN ATOM
M  V30 1 C 10.612071 8.158438 -7.513541 0 CFG=2
M  V30 2 C 7.238793 -0.117179 -16.256262 0 CFG=1
M  V30 3 C 5.793719 -0.670926 -16.352172 0
M  V30 4 C 6.520464 1.180544 -14.205353 0
M  V30 5 C 5.224872 0.428812 -14.063779 0
M  V30 6 C 8.820248 5.110848 -12.277173 0
M  V30 7 C 11.321154 8.271704 -5.058401 0
M  V30 8 C 10.870783 7.372693 -6.218235 0
M  V30 9 C 7.705666 0.408479 -17.624015 0
M  V30 10 C 9.849985 7.185451 -11.210045 0
M  V30 11 C 7.814086 3.039379 -13.322620 0
M  V30 12 C 8.560860 6.394291 -11.459848 0 CFG=1
M  V30 13 C 6.431643 5.167640 -13.123382 0
M  V30 14 C 10.176330 7.263507 -8.683866 0
M  V30 15 C 7.497819 7.260765 -12.162992 0
M  V30 16 C 9.901474 8.069341 -9.966492 0
M  V30 17 C 6.191893 6.470580 -12.341455 0
M  V30 18 O 6.695469 2.159825 -13.247209 0
M  V30 19 F 11.736810 8.790259 -7.855294 0
M  V30 20 C 7.422407 0.944760 -15.178380 0
M  V30 21 C 4.723372 -0.050642 -15.438890 0
M  V30 22 O 10.807287 7.111933 -11.979210 0
M  V30 23 O 5.508745 -1.569498 -17.141556 0
M  V30 24 C 7.530336 4.292886 -12.477783 0 CFG=2
M  V30 25 H 9.856402 8.924519 -7.335642 0
M  V30 26 H 7.882709 -0.953243 -15.985078 0
M  V30 27 H 5.393873 -0.409773 -13.392162 0
M  V30 28 H 4.478666 1.064713 -13.586253 0
M  V30 29 H 9.568992 4.497260 -11.772932 0
M  V30 30 H 9.240184 5.367196 -13.251484 0
M  V30 31 H 11.481034 7.686009 -4.153107 0
M  V30 32 H 12.250909 8.790226 -5.288963 0
M  V30 33 H 10.575410 9.033881 -4.838499 0
M  V30 34 H 9.961584 6.843877 -5.928606 0
M  V30 35 H 11.626632 6.606782 -6.395431 0
M  V30 36 H 7.131266 1.283249 -17.931489 0
M  V30 37 H 8.756850 0.695884 -17.593416 0
M  V30 38 H 7.599939 -0.349136 -18.401957 0
M  V30 39 H 8.696895 2.514804 -12.953529 0
M  V30 40 H 8.015810 3.375220 -14.340426 0
M  V30 41 H 8.175160 6.104387 -10.482038 0
M  V30 42 H 6.713534 5.416147 -14.147559 0
M  V30 43 H 5.499664 4.605497 -13.191616 0
M  V30 44 H 9.273692 6.717126 -8.405672 0
M  V30 45 H 10.947774 6.513447 -8.865718 0
M  V30 46 H 7.863646 7.590300 -13.136885 0
M  V30 47 H 7.299283 8.164753 -11.585407 0
M  V30 48 H 10.703090 8.790233 -10.120593 0
M  V30 49 H 8.975422 8.637897 -9.875873 0
M  V30 50 H 5.452601 7.085030 -12.856587 0
M  V30 51 H 5.770918 6.241425 -11.360895 0
M  V30 52 H 8.333793 1.516153 -15.227382 0
M  V30 53 H 3.908896 -0.763012 -15.314162 0
M  V30 54 H 4.311853 0.790226 -15.985025 0
M  V30 55 H 7.182713 3.978562 -11.493137 0
M  V30 END ATOM
M  V30 BEGIN BOND
M  V30 1 1 3 2
M  V30 2 1 5 4
M  V30 3 1 8 1
M  V30 4 1 8 7
M  V30 5 1 9 2
M  V30 6 1 12 6
M  V30 7 1 12 10
M  V30 8 1 14 1
M  V30 9 1 15 12
M  V30 10 1 16 10
M  V30 11 1 16 14
M  V30 12 1 17 13
M  V30 13 1 17 15
M  V30 14 1 18 4
M  V30 15 1 18 11
M  V30 16 1 19 1
M  V30 17 1 20 2
M  V30 18 2 20 4
M  V30 19 1 21 3
M  V30 20 1 21 5
M  V30 21 2 22 10
M  V30 22 2 23 3
M  V30 23 1 24 6
M  V30 24 1 24 11
M  V30 25 1 24 13
M  V30 26 1 1 25 CFG=1
M  V30 27 1 2 26 CFG=1
M  V30 28 1 27 5
M  V30 29 1 28 5
M  V30 30 1 29 6
M  V30 31 1 30 6
M  V30 32 1 31 7
M  V30 33 1 32 7
M  V30 34 1 33 7
M  V30 35 1 34 8
M  V30 36 1 35 8
M  V30 37 1 36 9
M  V30 38 1 37 9
M  V30 39 1 38 9
M  V30 40 1 39 11
M  V30 41 1 40 11
M  V30 42 1 12 41 CFG=1
M  V30 43 1 42 13
M  V30 44 1 43 13
M  V30 45 1 44 14
M  V30 46 1 45 14
M  V30 47 1 46 15
M  V30 48 1 47 15
M  V30 49 1 48 16
M  V30 50 1 49 16
M  V30 51 1 50 17
M  V30 52 1 51 17
M  V30 53 1 52 20
M  V30 54 1 53 21
M  V30 55 1 54 21
M  V30 56 1 24 55 CFG=1
M  V30 END BOND
M  V30 END CTAB
M  END
>  <i_epik_Tot_Q>  (1) 
0

>  <i_epik_Tot_abs_Q>  (1) 
0

>  <i_i_glide_confnum>  (1) 
207

>  <i_i_glide_lignum>  (1) 
48

>  <i_i_glide_posenum>  (1) 
153

>  <i_i_glide_rotatable_bonds>  (1) 
8

>  <i_lp_mmshare_version>  (1) 
72125

>  <i_m_source_file_index>  (1) 
13

>  <i_f3d_flags>  (1) 
0

>  <num_sample>  (1) 
50

>  <b_lp_Chiralities_Consistent>  (1) 
1

>  <r_epik_Charging_Adjusted_Penalty>  (1) 
0

>  <r_epik_Ionization_Penalty>  (1) 
4.1955247269604324e-12

>  <r_epik_Ionization_Penalty_Charging>  (1) 
0

>  <r_epik_Ionization_Penalty_Neutral>  (1) 
4.1955247269604324e-12

>  <r_epik_State_Penalty>  (1) 
-0

>  <r_glide_ring_energy>  (1) 
0

>  <r_i_docking_score>  (1) 
-4.380701546050112

>  <r_i_glide_ecoul>  (1) 
-1.7226414605526807

>  <r_i_glide_eff_state_penalty>  (1) 
-0

>  <r_i_glide_einternal>  (1) 
1.9330463759583658

>  <r_i_glide_emodel>  (1) 
-41.680732771280859

>  <r_i_glide_emodel_strain>  (1) 
1.0099573487949485

>  <r_i_glide_energy>  (1) 
-34.887599219159888

>  <r_i_glide_erotb>  (1) 
1.1556109002290837

>  <r_i_glide_esite>  (1) 
-0.053079147274937816

>  <r_i_glide_evdw>  (1) 
-33.164957758607208

>  <r_i_glide_gscore>  (1) 
-4.380701546050112

>  <r_i_glide_gscore_strain>  (1) 
0

>  <r_i_glide_hbond>  (1) 
0

>  <r_i_glide_ligand_efficiency>  (1) 
-0.18252923108542132

>  <r_i_glide_ligand_efficiency_ln>  (1) 
-1.0485028972652777

>  <r_i_glide_ligand_efficiency_sa>  (1) 
-0.52650541020298114

>  <r_i_glide_lipo>  (1) 
-1.3283198169681101

>  <r_i_glide_metal>  (1) 
-0

>  <r_i_glide_rewards>  (1) 
-2.2382693750228855

>  <r_lp_Energy>  (1) 
11.614072

>  <r_lp_tautomer_probability>  (1) 
1

>  <s_epik_cmdline>  (1) 
J2VwaWtfcHl0aG9uJywgJy1waHQnLCAnMS4wJywgJy1waCcsICc3LjQnLCAnLXRuJywgJzgnLCAnLW1hJywgJzUwMCcsICctaW1hZScsICc8aW5maWxlLm1hZT4nLCAnLW9tYWUnLCAnPG91dGZpbGUubWFlPic=

>  <s_epik_input>  (1) 
W0NIM11bQ0gyXVtDQEBIXShGKVtDSDJdW0NIMl1DKD1PKVtDQEBIXTFbQ0gyXVtDQEBIXShbQ0gyXVtDSDJdW0NIMl0xKVtDSDJdT0MoPVtDSF0yKVtDSDJdW0NIMl1DKD1PKVtDQEhdMltDSDNd

>  <s_glide_docking_method>  (1) 
confgen

>  <s_i_glide_gridfile>  (1) 
gpcr_drd2_6luq_protein_autoprepared_prepared

>  <s_lp_Force_Field>  (1) 
S-OPLS

>  <s_lp_Variant>  (1) 
DiffSBDD_12-1

>  <s_m_source_file>  (1) 
generated_generic_title2_ligand_DiffSBDD_2026-06-23_prepared.sdf

>  <GenAI_Model>  (1) 
DiffSBDD

>  <Protein>  (1) 
generic_title2

$$$$
DiffSBDD_14
     RDKit          3D

  0  0  0  0  0  0  0  0  0  0999 V3000
M  V30 BEGIN CTAB
M  V30 COUNTS 71 74 0 0 1
M  V30 BEGIN ATOM
M  V30 1 C 6.551973 6.236040 -12.392310 0
M  V30 2 O 6.203655 7.165858 -16.318631 0
M  V30 3 C 6.060689 6.188986 -18.401198 0 CFG=2
M  V30 4 O 8.384474 5.050990 -17.075101 0
M  V30 5 C 12.085554 8.869810 -9.396227 0
M  V30 6 C 9.658163 8.602514 -9.749879 0
M  V30 7 N 9.535431 6.521266 -10.975358 0
M  V30 8 C 10.811906 8.188242 -8.860631 0 CFG=2
M  V30 9 C 11.610316 6.938774 -4.370116 0
M  V30 10 C 5.369308 8.056246 -17.027914 0
M  V30 11 C 12.170909 8.891808 -2.024632 0
M  V30 12 C 11.510123 8.074569 -4.999614 0
M  V30 13 C 11.768844 6.356079 -6.469820 0
M  V30 14 C 11.634297 7.940867 -6.473883 0 CFG=1
M  V30 15 C 7.288423 4.746837 -14.933191 0
M  V30 16 C 12.189848 7.555735 -1.988670 0
M  V30 17 C 8.338499 5.085289 -18.494406 0
M  V30 18 C 10.515813 8.499449 -7.358878 0 CFG=2
M  V30 19 C 6.055248 5.890602 -16.904087 0 CFG=1
M  V30 20 C 7.501903 6.291984 -18.931217 0
M  V30 21 O 9.374083 4.580355 -12.127484 0
M  V30 22 C 9.024235 5.747887 -11.969419 0
M  V30 23 O 11.775353 5.862503 -5.123753 0
M  V30 24 C 5.313310 7.518524 -18.466637 0
M  V30 25 C 11.303021 9.380632 -4.357830 0
M  V30 26 C 11.522299 6.649028 -2.933271 0
M  V30 27 C 9.112672 8.036981 -6.924235 0
M  V30 28 C 9.104071 7.831437 -10.703026 0
M  V30 29 C 8.175658 5.886379 -14.393050 0
M  V30 30 C 7.987530 6.375721 -12.935780 0 CFG=1
M  V30 31 C 11.573449 9.726665 -3.066860 0
M  V30 32 C 7.114259 4.836829 -16.462486 0 CFG=1
M  V30 33 H 6.437903 6.735734 -11.431512 0
M  V30 34 H 5.829586 6.686619 -13.072142 0
M  V30 35 H 6.275662 5.191911 -12.244354 0
M  V30 36 H 5.532302 5.404520 -18.945216 0
M  V30 37 H 12.248458 8.608972 -10.441756 0
M  V30 38 H 11.997924 9.955334 -9.347351 0
M  V30 39 H 12.990461 8.575625 -8.866500 0
M  V30 40 H 9.269411 9.590173 -9.587757 0
M  V30 41 H 10.237453 6.133340 -10.365583 0
M  V30 42 H 10.957484 7.114402 -8.961386 0
M  V30 43 H 5.775400 9.063898 -16.946216 0
M  V30 44 H 4.376477 8.053185 -16.577008 0
M  V30 45 H 12.651509 9.406513 -1.206912 0
M  V30 46 H 12.730911 5.989805 -6.785999 0
M  V30 47 H 10.990497 5.851510 -7.042577 0
M  V30 48 H 12.575353 8.399196 -6.771875 0
M  V30 49 H 7.745646 3.794687 -14.663108 0
M  V30 50 H 6.296991 4.741067 -14.484888 0
M  V30 51 H 12.690536 7.072165 -1.185024 0
M  V30 52 H 9.357470 5.178069 -18.870730 0
M  V30 53 H 7.932697 4.153700 -18.891202 0
M  V30 54 H 10.552106 9.574762 -7.185067 0
M  V30 55 H 5.054040 5.589245 -16.601639 0
M  V30 56 H 7.982335 7.190235 -18.548199 0
M  V30 57 H 7.500332 6.381738 -20.017687 0
M  V30 58 H 5.759087 8.204571 -19.186797 0
M  V30 59 H 4.275368 7.365863 -18.764727 0
M  V30 60 H 10.921568 10.168821 -4.989744 0
M  V30 61 H 10.509155 6.390210 -2.625633 0
M  V30 62 H 12.058603 5.707288 -2.808519 0
M  V30 63 H 8.863997 7.052327 -7.321190 0
M  V30 64 H 9.005318 7.991397 -5.845451 0
M  V30 65 H 8.360228 8.741502 -7.273612 0
M  V30 66 H 8.288388 8.174739 -11.305247 0
M  V30 67 H 8.062866 6.760321 -15.025621 0
M  V30 68 H 9.213269 5.591386 -14.561158 0
M  V30 69 H 8.202071 7.430487 -13.080243 0
M  V30 70 H 11.375166 10.751403 -2.795853 0
M  V30 71 H 6.785233 3.860288 -16.814802 0
M  V30 END ATOM
M  V30 BEGIN BOND
M  V30 1 1 8 5
M  V30 2 1 8 6
M  V30 3 1 10 2
M  V30 4 2 12 9
M  V30 5 1 14 12
M  V30 6 1 14 13
M  V30 7 2 16 11
M  V30 8 1 17 4
M  V30 9 1 18 8
M  V30 10 1 18 14
M  V30 11 1 19 2
M  V30 12 1 19 3
M  V30 13 1 20 3
M  V30 14 1 20 17
M  V30 15 1 22 7
M  V30 16 2 22 21
M  V30 17 1 23 9
M  V30 18 1 23 13
M  V30 19 1 24 3
M  V30 20 1 24 10
M  V30 21 1 25 12
M  V30 22 1 26 9
M  V30 23 1 26 16
M  V30 24 1 27 18
M  V30 25 2 28 6
M  V30 26 1 28 7
M  V30 27 1 29 15
M  V30 28 1 30 1
M  V30 29 1 30 22
M  V30 30 1 30 29
M  V30 31 1 31 11
M  V30 32 2 31 25
M  V30 33 1 32 4
M  V30 34 1 32 15
M  V30 35 1 32 19
M  V30 36 1 33 1
M  V30 37 1 34 1
M  V30 38 1 35 1
M  V30 39 1 3 36 CFG=3
M  V30 40 1 37 5
M  V30 41 1 38 5
M  V30 42 1 39 5
M  V30 43 1 40 6
M  V30 44 1 41 7
M  V30 45 1 8 42 CFG=1
M  V30 46 1 43 10
M  V30 47 1 44 10
M  V30 48 1 45 11
M  V30 49 1 46 13
M  V30 50 1 47 13
M  V30 51 1 14 48 CFG=3
M  V30 52 1 49 15
M  V30 53 1 50 15
M  V30 54 1 51 16
M  V30 55 1 52 17
M  V30 56 1 53 17
M  V30 57 1 18 54 CFG=3
M  V30 58 1 19 55 CFG=1
M  V30 59 1 56 20
M  V30 60 1 57 20
M  V30 61 1 58 24
M  V30 62 1 59 24
M  V30 63 1 60 25
M  V30 64 1 61 26
M  V30 65 1 62 26
M  V30 66 1 63 27
M  V30 67 1 64 27
M  V30 68 1 65 27
M  V30 69 1 66 28
M  V30 70 1 67 29
M  V30 71 1 68 29
M  V30 72 1 30 69 CFG=3
M  V30 73 1 70 31
M  V30 74 1 32 71 CFG=3
M  V30 END BOND
M  V30 END CTAB
M  END
>  <i_epik_Tot_Q>  (1) 
0

>  <i_epik_Tot_abs_Q>  (1) 
0

>  <i_i_glide_confnum>  (1) 
240

>  <i_i_glide_lignum>  (1) 
53

>  <i_i_glide_posenum>  (1) 
118

>  <i_i_glide_rotatable_bonds>  (1) 
9

>  <i_lp_mmshare_version>  (1) 
72125

>  <i_m_source_file_index>  (1) 
15

>  <i_f3d_flags>  (1) 
0

>  <num_sample>  (1) 
50

>  <b_lp_Chiralities_Consistent>  (1) 
1

>  <r_epik_Charging_Adjusted_Penalty>  (1) 
0

>  <r_epik_Ionization_Penalty>  (1) 
2.2973717276536928e-08

>  <r_epik_Ionization_Penalty_Charging>  (1) 
0

>  <r_epik_Ionization_Penalty_Neutral>  (1) 
2.2973717276536928e-08

>  <r_epik_State_Penalty>  (1) 
-0

>  <r_glide_ring_energy>  (1) 
0

>  <r_i_docking_score>  (1) 
-4.3789317470819329

>  <r_i_glide_ecoul>  (1) 
1.385468763721138

>  <r_i_glide_eff_state_penalty>  (1) 
-0

>  <r_i_glide_einternal>  (1) 
13.069876444303668

>  <r_i_glide_emodel>  (1) 
-25.719552297847688

>  <r_i_glide_emodel_strain>  (1) 
2.3956300863994642

>  <r_i_glide_energy>  (1) 
-28.974240723227037

>  <r_i_glide_erotb>  (1) 
0.7170138056727231

>  <r_i_glide_esite>  (1) 
-0.057337358373773809

>  <r_i_glide_evdw>  (1) 
-30.359709486948177

>  <r_i_glide_gscore>  (1) 
-4.3789317470819329

>  <r_i_glide_gscore_strain>  (1) 
0

>  <r_i_glide_hbond>  (1) 
0

>  <r_i_glide_ligand_efficiency>  (1) 
-0.1368416170963104

>  <r_i_glide_ligand_efficiency_ln>  (1) 
-0.98056218334286771

>  <r_i_glide_ligand_efficiency_sa>  (1) 
-0.43444505386342541

>  <r_i_glide_lipo>  (1) 
-3.7465541365095594

>  <r_i_glide_metal>  (1) 
-0

>  <r_i_glide_rewards>  (1) 
0.018111101917916539

>  <r_lp_Energy>  (1) 
16.754915

>  <r_lp_tautomer_probability>  (1) 
1

>  <s_epik_cmdline>  (1) 
J2VwaWtfcHl0aG9uJywgJy1waHQnLCAnMS4wJywgJy1waCcsICc3LjQnLCAnLXRuJywgJzgnLCAnLW1hJywgJzUwMCcsICctaW1hZScsICc8aW5maWxlLm1hZT4nLCAnLW9tYWUnLCAnPG91dGZpbGUubWFlPic=

>  <s_epik_input>  (1) 
W0NIMl0xW0NIMl1PW0NAQEhdKFtDQEBIXTEyKVtDQEBIXShPW0NIMl1bQ0gyXTIpW0NIMl1bQ0gyXVtDQEBIXShbQ0gzXSlDKD1PKVtOSF0vW0NIXT1bQ0hdXFtDQEBIXShbQ0gzXSlbQ0BASF0oW0NIM10pW0NASF0oW0NIMl1PMylDKD1DMzQpW0NIXT1bQ0hdW0NIXT1bQ0hdW0NIMl00

>  <s_glide_docking_method>  (1) 
confgen

>  <s_i_glide_gridfile>  (1) 
gpcr_drd2_6luq_protein_autoprepared_prepared

>  <s_lp_Force_Field>  (1) 
S-OPLS

>  <s_lp_Variant>  (1) 
DiffSBDD_14-2

>  <s_m_source_file>  (1) 
generated_generic_title2_ligand_DiffSBDD_2026-06-23_prepared.sdf

>  <GenAI_Model>  (1) 
DiffSBDD

>  <Protein>  (1) 
generic_title2

$$$$
DiffSBDD_23
     RDKit          3D

  0  0  0  0  0  0  0  0  0  0999 V3000
M  V30 BEGIN CTAB
M  V30 COUNTS 57 60 0 0 1
M  V30 BEGIN ATOM
M  V30 1 C 11.677293 8.971231 -6.239323 0
M  V30 2 C 11.915613 6.899271 -2.443868 0
M  V30 3 F 6.622766 6.637352 -15.848620 0
M  V30 4 S 8.499665 5.217155 -12.678118 0 CHG=1
M  V30 5 C 7.693430 6.221260 -15.165352 0 CFG=1
M  V30 6 C 8.852489 6.844325 -11.917111 0
M  V30 7 C 6.995175 1.906533 -15.436950 0
M  V30 8 C 6.590222 4.125540 -14.378744 0
M  V30 9 C 8.387679 4.390232 -10.117670 0
M  V30 10 O 9.834401 5.519703 -8.549200 0
M  V30 11 O 8.975430 8.389563 -7.391724 0
M  V30 12 C 12.518436 9.459026 -5.225899 0
M  V30 13 C 9.447966 6.642674 -10.525101 0
M  V30 14 C 7.485328 4.614244 -11.315737 0
M  V30 15 C 10.880670 7.834776 -6.011986 0
M  V30 16 C 7.986215 4.007297 -16.478864 0 CFG=2
M  V30 17 C 7.200543 5.462906 -13.928715 0 CFG=1
M  V30 18 F 11.637723 9.590224 -7.430681 0
M  V30 19 C 12.588227 8.793185 -3.985024 0
M  V30 20 C 9.236026 5.583270 -9.767627 0
M  V30 21 S 10.470868 7.854428 -9.870602 0
M  V30 22 C 11.828640 7.626878 -3.770161 0
M  V30 23 C 10.535866 6.772257 -8.349798 0 CFG=1
M  V30 24 C 8.909318 3.201611 -17.420148 0
M  V30 25 C 8.596297 5.383425 -16.117751 0 CFG=2
M  V30 26 C 9.897180 7.366656 -7.075581 0 CFG=2
M  V30 27 O 9.874715 5.190233 -15.548023 0
M  V30 28 C 7.561428 3.248152 -15.194363 0 CFG=2
M  V30 29 C 6.547723 0.782894 -15.605015 0
M  V30 30 C 10.975411 7.147349 -4.785030 0
M  V30 31 H 12.947615 6.622030 -2.227041 0
M  V30 32 H 11.550396 7.538932 -1.639807 0
M  V30 33 H 11.314475 5.990175 -2.450570 0
M  V30 34 H 8.175406 7.128963 -14.817950 0
M  V30 35 H 9.532947 7.410629 -12.551917 0
M  V30 36 H 7.928687 7.415461 -11.820147 0
M  V30 37 H 5.762255 4.390228 -15.020078 0
M  V30 38 H 6.156842 3.574760 -13.546522 0
M  V30 39 H 9.082644 3.590236 -10.385026 0
M  V30 40 H 7.775444 4.117608 -9.257507 0
M  V30 41 H 8.337472 8.043527 -8.012712 0
M  V30 42 H 13.115302 10.334608 -5.406187 0
M  V30 43 H 6.698361 5.333454 -11.081769 0
M  V30 44 H 7.006903 3.674294 -11.582578 0
M  V30 45 H 7.079808 4.211738 -17.051548 0
M  V30 46 H 6.420687 6.057950 -13.451523 0
M  V30 47 H 13.236887 9.168891 -3.206594 0
M  V30 48 H 11.575665 6.526679 -8.146207 0
M  V30 49 H 9.805212 2.849811 -16.908579 0
M  V30 50 H 8.404830 2.325726 -17.827950 0
M  V30 51 H 9.224157 3.808239 -18.269739 0
M  V30 52 H 8.753902 5.950029 -17.036749 0
M  V30 53 H 9.292918 6.588484 -6.605468 0
M  V30 54 H 10.423910 4.737404 -16.171018 0
M  V30 55 H 8.447005 3.055250 -14.591802 0
M  V30 56 H 6.162667 -0.204434 -15.736752 0
M  V30 57 H 10.373138 6.266695 -4.611128 0
M  V30 END ATOM
M  V30 BEGIN BOND
M  V30 1 1 5 3
M  V30 2 1 4 6 CFG=1
M  V30 3 1 12 1
M  V30 4 1 13 6
M  V30 5 1 14 4
M  V30 6 1 14 9
M  V30 7 2 15 1
M  V30 8 1 17 4
M  V30 9 1 17 5
M  V30 10 1 17 8
M  V30 11 1 18 1
M  V30 12 2 19 12
M  V30 13 1 20 9
M  V30 14 1 20 10
M  V30 15 2 20 13
M  V30 16 1 21 13
M  V30 17 1 22 2
M  V30 18 1 22 19
M  V30 19 1 23 10
M  V30 20 1 23 21
M  V30 21 1 24 16
M  V30 22 1 25 5
M  V30 23 1 25 16
M  V30 24 1 26 11
M  V30 25 1 26 15
M  V30 26 1 26 23
M  V30 27 1 27 25
M  V30 28 1 28 7
M  V30 29 1 28 8
M  V30 30 1 28 16
M  V30 31 3 29 7
M  V30 32 1 30 15
M  V30 33 2 30 22
M  V30 34 1 31 2
M  V30 35 1 32 2
M  V30 36 1 33 2
M  V30 37 1 5 34 CFG=1
M  V30 38 1 35 6
M  V30 39 1 36 6
M  V30 40 1 37 8
M  V30 41 1 38 8
M  V30 42 1 39 9
M  V30 43 1 40 9
M  V30 44 1 41 11
M  V30 45 1 42 12
M  V30 46 1 43 14
M  V30 47 1 44 14
M  V30 48 1 16 45 CFG=3
M  V30 49 1 17 46 CFG=1
M  V30 50 1 47 19
M  V30 51 1 23 48 CFG=1
M  V30 52 1 49 24
M  V30 53 1 50 24
M  V30 54 1 51 24
M  V30 55 1 25 52 CFG=3
M  V30 56 1 26 53 CFG=1
M  V30 57 1 54 27
M  V30 58 1 28 55 CFG=1
M  V30 59 1 56 29
M  V30 60 1 57 30
M  V30 END BOND
M  V30 END CTAB
M  END
>  <i_epik_Tot_Q>  (1) 
1

>  <i_epik_Tot_abs_Q>  (1) 
1

>  <i_i_glide_confnum>  (1) 
36

>  <i_i_glide_lignum>  (1) 
70

>  <i_i_glide_posenum>  (1) 
67

>  <i_i_glide_rotatable_bonds>  (1) 
6

>  <i_lp_mmshare_version>  (1) 
72125

>  <i_m_source_file_index>  (1) 
24

>  <i_f3d_flags>  (1) 
0

>  <num_sample>  (1) 
50

>  <b_lp_Chiralities_Consistent>  (1) 
1

>  <r_epik_Charging_Adjusted_Penalty>  (1) 
0

>  <r_epik_Ionization_Penalty>  (1) 
0.0001931723336569867

>  <r_epik_Ionization_Penalty_Charging>  (1) 
0

>  <r_epik_Ionization_Penalty_Neutral>  (1) 
0.0001931723336569867

>  <r_epik_State_Penalty>  (1) 
-0

>  <r_glide_ring_energy>  (1) 
0

>  <r_i_docking_score>  (1) 
-4.377477540527174

>  <r_i_glide_ecoul>  (1) 
-4.7622635737712242

>  <r_i_glide_eff_state_penalty>  (1) 
-0

>  <r_i_glide_einternal>  (1) 
12.027545108901073

>  <r_i_glide_emodel>  (1) 
-30.99048958678085

>  <r_i_glide_emodel_strain>  (1) 
0.014459701985970241

>  <r_i_glide_energy>  (1) 
-31.511565836141294

>  <r_i_glide_erotb>  (1) 
0.39027100354639338

>  <r_i_glide_esite>  (1) 
0

>  <r_i_glide_evdw>  (1) 
-26.749302262370069

>  <r_i_glide_gscore>  (1) 
-4.377477540527174

>  <r_i_glide_gscore_strain>  (1) 
0

>  <r_i_glide_hbond>  (1) 
-0.18247402072540908

>  <r_i_glide_ligand_efficiency>  (1) 
-0.14591591801757248

>  <r_i_glide_ligand_efficiency_ln>  (1) 
-0.99461059364576287

>  <r_i_glide_ligand_efficiency_sa>  (1) 
-0.45339468360029955

>  <r_i_glide_lipo>  (1) 
-2.6754198614956044

>  <r_i_glide_metal>  (1) 
-0

>  <r_i_glide_rewards>  (1) 
0.14194998733163305

>  <r_lp_Energy>  (1) 
9.4869079999999997

>  <r_lp_tautomer_probability>  (1) 
1

>  <s_epik_Chemistry_Notes>  (1) 
This compound contains an acetal/aminal-like group ( X-CH(R)-Y where X, Y are N, S, or O) that may be acid/base labile, releasing an aldehyde.

>  <s_epik_cmdline>  (1) 
J2VwaWtfcHl0aG9uJywgJy1waHQnLCAnMS4wJywgJy1waCcsICc3LjQnLCAnLXRuJywgJzgnLCAnLW1hJywgJzUwMCcsICctaW1hZScsICc8aW5maWxlLm1hZT4nLCAnLW9tYWUnLCAnPG91dGZpbGUubWFlPic=

>  <s_epik_input>  (1) 
RmMxW2NIXVtjSF1jKFtDSDNdKVtjSF1jMVtDQEBIXShbT0hdKVtDQEhdKFMyKU9DKD1DMjMpW0NIMl1bQ0gyXVtTK10oW0NIMl0zKVtDQEBIXShbQ0BASF00RilbQ0gyXVtDQEBIXShDI1tDSF0pW0NASF0oW0NIM10pW0NAQEhdNFtPSF0=

>  <s_glide_docking_method>  (1) 
confgen

>  <s_i_glide_gridfile>  (1) 
gpcr_drd2_6luq_protein_autoprepared_prepared

>  <s_lp_Force_Field>  (1) 
S-OPLS

>  <s_lp_Variant>  (1) 
DiffSBDD_23-1

>  <s_m_source_file>  (1) 
generated_generic_title2_ligand_DiffSBDD_2026-06-23_prepared.sdf

>  <GenAI_Model>  (1) 
DiffSBDD

>  <Protein>  (1) 
generic_title2

$$$$
DiffSBDD_35
     RDKit          3D

  0  0  0  0  0  0  0  0  0  0999 V3000
M  V30 BEGIN CTAB
M  V30 COUNTS 81 86 0 0 1
M  V30 BEGIN ATOM
M  V30 1 C 8.976599 2.658052 -17.053912 0
M  V30 2 O 9.154996 5.015449 -16.340391 0
M  V30 3 C 13.236146 3.412972 -22.674707 0
M  V30 4 C 18.093349 6.215707 -17.753748 0
M  V30 5 O 8.804409 1.590723 -16.465896 0
M  V30 6 C 17.636196 6.603541 -19.906623 0
M  V30 7 C 17.128701 5.408180 -18.124962 0
M  V30 8 C 13.785018 2.486344 -21.575907 0
M  V30 9 C 12.029449 1.780717 -18.795473 0
M  V30 10 C 15.256167 5.107469 -22.771507 0
M  V30 11 C 6.802612 5.979519 -20.088439 0
M  V30 12 F 18.575156 6.214928 -16.502688 0
M  V30 13 C 6.664584 4.612610 -13.139088 0
M  V30 14 O 14.364666 4.209761 -18.052292 0
M  V30 15 C 7.375183 3.760735 -15.278791 0
M  V30 16 N 6.929741 4.840968 -14.577640 0
M  V30 17 C 10.043729 3.965213 -18.941230 0
M  V30 18 C 18.634776 7.158475 -18.837919 0
M  V30 19 C 5.809013 5.961611 -18.903895 0 CFG=2
M  V30 20 N 9.826173 2.737369 -18.128385 0
M  V30 21 C 15.508015 5.030224 -21.485777 0
M  V30 22 O 4.515459 7.587587 -17.623452 0
M  V30 23 F 18.543659 8.173406 -21.449261 0
M  V30 24 O 15.774761 2.419020 -19.185184 0
M  V30 25 N 13.545127 3.107110 -20.265560 0
M  V30 26 F 18.019035 6.256633 -22.216419 0
M  V30 27 C 8.201742 3.981256 -16.575823 0 CFG=2
M  V30 28 C 12.169311 2.945205 -19.768824 0
M  V30 29 C 5.091551 7.328563 -18.882925 0
M  V30 30 O 6.881596 7.082060 -14.227493 0
M  V30 31 C 6.427652 5.564190 -17.541047 0
M  V30 32 S 14.891817 3.590891 -19.277314 0
M  V30 33 F 16.480435 7.704619 -21.658405 0
M  V30 34 C 7.154593 4.251429 -17.574296 0
M  V30 35 C 6.281571 6.397435 -16.452637 0
M  V30 36 C 19.164267 8.547978 -18.612465 0
M  V30 37 C 20.092816 7.424115 -19.081528 0
M  V30 38 C 16.826702 5.621906 -19.449757 0
M  V30 39 C 14.290325 4.179592 -23.489016 0
M  V30 40 C 6.785032 6.151646 -15.030675 0
M  V30 41 O 7.213812 2.621282 -14.839069 0
M  V30 42 C 17.662346 7.184322 -21.328288 0
M  V30 43 C 11.539657 4.216839 -19.185962 0
M  V30 44 C 10.532201 1.523239 -18.594495 0
M  V30 45 C 15.801959 4.881476 -20.215071 0
M  V30 46 C 5.507966 7.699569 -16.619523 0
M  V30 47 H 9.745303 4.727969 -15.657836 0
M  V30 48 H 12.659730 2.804498 -23.372049 0
M  V30 49 H 12.517628 4.125891 -22.268340 0
M  V30 50 H 16.649239 4.690134 -17.480767 0
M  V30 51 H 14.846363 2.279142 -21.717055 0
M  V30 52 H 13.289339 1.515278 -21.610718 0
M  V30 53 H 12.508618 0.885075 -19.192874 0
M  V30 54 H 12.515666 2.006580 -17.845009 0
M  V30 55 H 15.774797 5.822970 -23.392814 0
M  V30 56 H 7.091976 4.982161 -20.416674 0
M  V30 57 H 6.359488 6.457188 -20.963206 0
M  V30 58 H 7.706522 6.535913 -19.837515 0
M  V30 59 H 6.109494 5.417029 -12.652832 0
M  V30 60 H 6.065570 3.716940 -12.968228 0
M  V30 61 H 7.604164 4.493538 -12.598059 0
M  V30 62 H 9.559949 3.790522 -19.903146 0
M  V30 63 H 9.620817 4.901264 -18.600488 0
M  V30 64 H 5.051221 5.205361 -19.112674 0
M  V30 65 H 11.553702 2.695034 -20.635070 0
M  V30 66 H 5.774561 8.138820 -19.141470 0
M  V30 67 H 4.302659 7.346508 -19.634949 0
M  V30 68 H 7.602772 4.188285 -18.550616 0
M  V30 69 H 6.466213 3.413542 -17.648041 0
M  V30 70 H 18.902931 9.325352 -19.326686 0
M  V30 71 H 19.265906 8.887741 -17.585396 0
M  V30 72 H 20.782956 6.958048 -18.385028 0
M  V30 73 H 20.449080 7.464040 -20.107905 0
M  V30 74 H 14.889214 3.470273 -24.056109 0
M  V30 75 H 13.748080 4.805051 -24.190120 0
M  V30 76 H 11.671617 5.053596 -19.872679 0
M  V30 77 H 11.996642 4.505997 -18.241738 0
M  V30 78 H 10.434618 0.670799 -17.921003 0
M  V30 79 H 10.076666 1.204898 -19.533067 0
M  V30 80 H 4.966363 7.926817 -15.700312 0
M  V30 81 H 6.175402 8.540551 -16.785025 0
M  V30 END ATOM
M  V30 BEGIN BOND
M  V30 1 2 5 1
M  V30 2 2 7 4
M  V30 3 1 8 3
M  V30 4 1 12 4
M  V30 5 1 16 13
M  V30 6 1 16 15
M  V30 7 1 18 4
M  V30 8 1 18 6
M  V30 9 1 19 11
M  V30 10 1 20 1
M  V30 11 1 20 17
M  V30 12 2 21 10
M  V30 13 1 25 8
M  V30 14 1 27 1
M  V30 15 1 27 2 CFG=1
M  V30 16 1 27 15
M  V30 17 1 28 9
M  V30 18 1 28 25
M  V30 19 1 29 19
M  V30 20 1 29 22
M  V30 21 1 31 19
M  V30 22 2 32 14
M  V30 23 2 32 24
M  V30 24 1 32 25
M  V30 25 1 34 27
M  V30 26 1 34 31
M  V30 27 2 35 31
M  V30 28 1 36 18
M  V30 29 1 37 18
M  V30 30 1 37 36
M  V30 31 2 38 6
M  V30 32 1 38 7
M  V30 33 1 39 3
M  V30 34 1 39 10
M  V30 35 1 40 16
M  V30 36 2 40 30
M  V30 37 1 40 35
M  V30 38 2 41 15
M  V30 39 1 42 6
M  V30 40 1 42 23
M  V30 41 1 42 26
M  V30 42 1 42 33
M  V30 43 1 43 17
M  V30 44 1 43 28
M  V30 45 1 44 9
M  V30 46 1 44 20
M  V30 47 2 45 21
M  V30 48 1 45 32
M  V30 49 1 45 38
M  V30 50 1 46 22
M  V30 51 1 46 35
M  V30 52 1 47 2
M  V30 53 1 48 3
M  V30 54 1 49 3
M  V30 55 1 50 7
M  V30 56 1 51 8
M  V30 57 1 52 8
M  V30 58 1 53 9
M  V30 59 1 54 9
M  V30 60 1 55 10
M  V30 61 1 56 11
M  V30 62 1 57 11
M  V30 63 1 58 11
M  V30 64 1 59 13
M  V30 65 1 60 13
M  V30 66 1 61 13
M  V30 67 1 62 17
M  V30 68 1 63 17
M  V30 69 1 19 64 CFG=3
M  V30 70 1 65 28
M  V30 71 1 66 29
M  V30 72 1 67 29
M  V30 73 1 68 34
M  V30 74 1 69 34
M  V30 75 1 70 36
M  V30 76 1 71 36
M  V30 77 1 72 37
M  V30 78 1 73 37
M  V30 79 1 74 39
M  V30 80 1 75 39
M  V30 81 1 76 43
M  V30 82 1 77 43
M  V30 83 1 78 44
M  V30 84 1 79 44
M  V30 85 1 80 46
M  V30 86 1 81 46
M  V30 END BOND
M  V30 END CTAB
M  END
>  <i_epik_Tot_Q>  (1) 
0

>  <i_epik_Tot_abs_Q>  (1) 
0

>  <i_i_glide_confnum>  (1) 
91

>  <i_i_glide_lignum>  (1) 
98

>  <i_i_glide_posenum>  (1) 
255

>  <i_i_glide_rotatable_bonds>  (1) 
6

>  <i_lp_mmshare_version>  (1) 
72125

>  <i_m_source_file_index>  (1) 
36

>  <i_f3d_flags>  (1) 
0

>  <num_sample>  (1) 
50

>  <b_lp_Chiralities_Consistent>  (1) 
1

>  <r_epik_Charging_Adjusted_Penalty>  (1) 
0.04028888123744899

>  <r_epik_Ionization_Penalty>  (1) 
0.040288881244714927

>  <r_epik_Ionization_Penalty_Charging>  (1) 
0

>  <r_epik_Ionization_Penalty_Neutral>  (1) 
0.040288881244714927

>  <r_epik_State_Penalty>  (1) 
0.04028888123744899

>  <r_glide_ring_energy>  (1) 
0

>  <r_i_docking_score>  (1) 
-4.3450438528107274

>  <r_i_glide_ecoul>  (1) 
0.069009661947906586

>  <r_i_glide_eff_state_penalty>  (1) 
0.04028888123744899

>  <r_i_glide_einternal>  (1) 
14.462589346280044

>  <r_i_glide_emodel>  (1) 
-26.92547410129329

>  <r_i_glide_emodel_strain>  (1) 
1.9699070178705824

>  <r_i_glide_energy>  (1) 
-28.617026793251121

>  <r_i_glide_erotb>  (1) 
0.028804905803733735

>  <r_i_glide_esite>  (1) 
-0.0039035030502172063

>  <r_i_glide_evdw>  (1) 
-28.686036455199027

>  <r_i_glide_gscore>  (1) 
-4.385332734048176

>  <r_i_glide_gscore_strain>  (1) 
0

>  <r_i_glide_hbond>  (1) 
0

>  <r_i_glide_ligand_efficiency>  (1) 
-0.094457475061102775

>  <r_i_glide_ligand_efficiency_ln>  (1) 
-0.8998481137924238

>  <r_i_glide_ligand_efficiency_sa>  (1) 
-0.33844565491922618

>  <r_i_glide_lipo>  (1) 
-1.8969957674228712

>  <r_i_glide_metal>  (1) 
-0

>  <r_i_glide_rewards>  (1) 
-1.089287995911056

>  <r_lp_Energy>  (1) 
64.057782000000003

>  <s_epik_cmdline>  (1) 
J2VwaWtfcHl0aG9uJywgJy1waHQnLCAnMS4wJywgJy1waCcsICc3LjQnLCAnLXRuJywgJzgnLCAnLW1hJywgJzUwMCcsICctaW1hZScsICc8aW5maWxlLm1hZT4nLCAnLW9tYWUnLCAnPG91dGZpbGUubWFlPic=

>  <s_epik_input>  (1) 
W0NIM11bQ0BASF0xW0NIMl1PW0NIMl1DKD1DMTIpQyg9TylOKFtDSDNdKUMoPU8pW0NAXShbT0hdKShbQ0gyXTIpQyg9TylOM1tDSDJdW0NIMl1bQ0hdKFtDSDJdW0NIMl0zKU4oUzQoPU8pPU8pW0NIMl1bQ0gyXVtDSDJdW0NIXT1DPUM0Qyg9QzVDKEYpKEYpRilbQ0hdPUMoRilDNTZbQ0gyXVtDSDJdNg==

>  <s_glide_docking_method>  (1) 
confgen

>  <s_i_glide_gridfile>  (1) 
gpcr_drd2_6luq_protein_autoprepared_prepared

>  <s_lp_Force_Field>  (1) 
S-OPLS

>  <s_lp_Variant>  (1) 
DiffSBDD_35-1

>  <s_m_source_file>  (1) 
generated_generic_title2_ligand_DiffSBDD_2026-06-23_prepared.sdf

>  <GenAI_Model>  (1) 
DiffSBDD

>  <Protein>  (1) 
generic_title2

$$$$
DiffSBDD_45
     RDKit          3D

  0  0  0  0  0  0  0  0  0  0999 V3000
M  V30 BEGIN CTAB
M  V30 COUNTS 54 58 0 0 1
M  V30 BEGIN ATOM
M  V30 1 C 13.624236 6.299952 -16.867402 0
M  V30 2 C 4.800440 5.727787 -22.957988 0 CFG=1
M  V30 3 C 9.868439 7.678462 -21.629237 0
M  V30 4 C 10.530808 6.990304 -20.586244 0
M  V30 5 C 5.529166 6.924433 -22.373720 0
M  V30 6 C 5.897099 6.810178 -20.879290 0
M  V30 7 C 12.160057 6.101158 -18.959749 0
M  V30 8 C 13.590463 6.059730 -18.391233 0 CFG=1
M  V30 9 C 4.847772 4.295451 -22.459149 0 CFG=1
M  V30 10 C 9.845251 5.343123 -18.884001 0
M  V30 11 N 8.392502 6.444458 -20.692085 0
M  V30 12 C 7.039062 4.483255 -21.213501 0
M  V30 13 O 15.775411 10.790227 -21.229410 0
M  V30 14 C 11.150586 5.301796 -18.374743 0
M  V30 15 O 14.265455 8.613092 -17.185031 0
M  V30 16 C 14.592345 7.057618 -19.013449 0
M  V30 17 C 5.659491 3.821114 -21.272820 0
M  V30 18 F 16.467464 9.311866 -18.780698 0
M  V30 19 C 13.316103 7.769189 -16.542104 0
M  V30 20 C 7.067491 5.858780 -20.517913 0 CFG=2
M  V30 21 C 9.555485 6.180489 -19.969023 0
M  V30 22 O 3.775410 5.190225 -22.131120 0
M  V30 23 C 15.223387 9.569705 -19.189255 0 CFG=1
M  V30 24 C 15.194581 9.605572 -20.729701 0
M  V30 25 C 14.264706 8.515933 -18.602803 0 CFG=2
M  V30 26 C 11.846008 6.936021 -20.069992 0
M  V30 27 N 8.600953 7.359969 -21.697909 0
M  V30 28 H 14.619279 6.064463 -16.487991 0
M  V30 29 H 12.944589 5.640170 -16.329598 0
M  V30 30 H 4.488597 5.864584 -23.988766 0
M  V30 31 H 10.275676 8.391917 -22.330826 0
M  V30 32 H 4.875671 7.788100 -22.498466 0
M  V30 33 H 6.403018 7.126249 -22.990245 0
M  V30 34 H 5.008767 6.509370 -20.323030 0
M  V30 35 H 6.130317 7.805498 -20.498062 0
M  V30 36 H 13.956831 5.051079 -18.585845 0
M  V30 37 H 4.575417 3.519811 -23.172526 0
M  V30 38 H 9.069617 4.735557 -18.442470 0
M  V30 39 H 7.443676 4.561788 -22.224174 0
M  V30 40 H 7.720060 3.818173 -20.680946 0
M  V30 41 H 15.122052 11.484097 -21.185025 0
M  V30 42 H 11.381515 4.659799 -17.537565 0
M  V30 43 H 14.639534 6.932985 -20.094578 0
M  V30 44 H 15.594384 6.816938 -18.656489 0
M  V30 45 H 5.101812 3.976934 -20.348284 0
M  V30 46 H 5.786497 2.742638 -21.373472 0
M  V30 47 H 13.374987 7.933771 -15.466433 0
M  V30 48 H 12.303688 8.033365 -16.847536 0
M  V30 49 H 6.965536 5.675198 -19.447182 0
M  V30 50 H 14.954508 10.548313 -18.787887 0
M  V30 51 H 14.168379 9.563708 -21.095513 0
M  V30 52 H 15.721142 8.747318 -21.147658 0
M  V30 53 H 13.264736 8.790227 -18.926335 0
M  V30 54 H 12.609482 7.538805 -20.528750 0
M  V30 END ATOM
M  V30 BEGIN BOND
M  V30 1 1 4 3
M  V30 2 1 5 2
M  V30 3 1 6 5
M  V30 4 1 8 1
M  V30 5 1 8 7
M  V30 6 1 9 2
M  V30 7 1 14 7
M  V30 8 2 14 10
M  V30 9 1 16 8
M  V30 10 1 17 9
M  V30 11 1 17 12
M  V30 12 1 19 1
M  V30 13 1 19 15
M  V30 14 1 20 6
M  V30 15 1 20 11
M  V30 16 1 20 12
M  V30 17 2 21 4
M  V30 18 1 21 10
M  V30 19 1 21 11
M  V30 20 1 22 2
M  V30 21 1 22 9
M  V30 22 1 23 18
M  V30 23 1 24 13
M  V30 24 1 24 23
M  V30 25 1 25 15
M  V30 26 1 25 16
M  V30 27 1 25 23
M  V30 28 1 26 4
M  V30 29 2 26 7
M  V30 30 2 27 3
M  V30 31 1 27 11
M  V30 32 1 28 1
M  V30 33 1 29 1
M  V30 34 1 2 30 CFG=3
M  V30 35 1 31 3
M  V30 36 1 32 5
M  V30 37 1 33 5
M  V30 38 1 34 6
M  V30 39 1 35 6
M  V30 40 1 8 36 CFG=1
M  V30 41 1 9 37 CFG=3
M  V30 42 1 38 10
M  V30 43 1 39 12
M  V30 44 1 40 12
M  V30 45 1 41 13
M  V30 46 1 42 14
M  V30 47 1 43 16
M  V30 48 1 44 16
M  V30 49 1 45 17
M  V30 50 1 46 17
M  V30 51 1 47 19
M  V30 52 1 48 19
M  V30 53 1 20 49 CFG=1
M  V30 54 1 23 50 CFG=1
M  V30 55 1 51 24
M  V30 56 1 52 24
M  V30 57 1 25 53 CFG=3
M  V30 58 1 54 26
M  V30 END BOND
M  V30 END CTAB
M  END
>  <i_epik_Tot_Q>  (1) 
0

>  <i_epik_Tot_abs_Q>  (1) 
0

>  <i_i_glide_confnum>  (1) 
38

>  <i_i_glide_lignum>  (1) 
122

>  <i_i_glide_posenum>  (1) 
263

>  <i_i_glide_rotatable_bonds>  (1) 
5

>  <i_lp_mmshare_version>  (1) 
72125

>  <i_m_source_file_index>  (1) 
46

>  <i_f3d_flags>  (1) 
0

>  <num_sample>  (1) 
50

>  <b_lp_Chiralities_Consistent>  (1) 
1

>  <r_epik_Charging_Adjusted_Penalty>  (1) 
0

>  <r_epik_Ionization_Penalty>  (1) 
1.2822463511274088e-05

>  <r_epik_Ionization_Penalty_Charging>  (1) 
0

>  <r_epik_Ionization_Penalty_Neutral>  (1) 
1.2822463511274088e-05

>  <r_epik_State_Penalty>  (1) 
-0

>  <r_glide_ring_energy>  (1) 
0.77227948923304535

>  <r_i_docking_score>  (1) 
-4.3387986692012301

>  <r_i_glide_ecoul>  (1) 
-7.8297329660637489

>  <r_i_glide_eff_state_penalty>  (1) 
-0

>  <r_i_glide_einternal>  (1) 
3.4903937041359292

>  <r_i_glide_emodel>  (1) 
-29.172844518307997

>  <r_i_glide_emodel_strain>  (1) 
0.10232327964575916

>  <r_i_glide_energy>  (1) 
-26.634586258519452

>  <r_i_glide_erotb>  (1) 
0.55159765068717725

>  <r_i_glide_esite>  (1) 
0

>  <r_i_glide_evdw>  (1) 
-18.804853292455704

>  <r_i_glide_gscore>  (1) 
-4.3387986692012301

>  <r_i_glide_gscore_strain>  (1) 
0

>  <r_i_glide_hbond>  (1) 
-0.5576762524477058

>  <r_i_glide_ligand_efficiency>  (1) 
-0.16069624700745297

>  <r_i_glide_ligand_efficiency_ln>  (1) 
-1.0100007995035578

>  <r_i_glide_ligand_efficiency_sa>  (1) 
-0.48208874102235899

>  <r_i_glide_lipo>  (1) 
-1.1051560783078305

>  <r_i_glide_metal>  (1) 
-0

>  <r_i_glide_rewards>  (1) 
-1.112861379600524

>  <r_lp_Energy>  (1) 
32.347338000000001

>  <r_lp_tautomer_probability>  (1) 
1

>  <s_epik_cmdline>  (1) 
J2VwaWtfcHl0aG9uJywgJy1waHQnLCAnMS4wJywgJy1waCcsICc3LjQnLCAnLXRuJywgJzgnLCAnLW1hJywgJzUwMCcsICctaW1hZScsICc8aW5maWxlLm1hZT4nLCAnLW9tYWUnLCAnPG91dGZpbGUubWFlPic=

>  <s_epik_input>  (1) 
W09IXVtDSDJdW0NASF0oRilbQ0BASF0oW0NIMl0xKU9bQ0gyXVtDSDJdW0NASF0xYyhbY0hdMilbY0hdW2NIXWMoYzIzKW4obltjSF0zKVtDQEBIXShbQ0gyXVtDSDJdNClbQ0gyXVtDSDJdW0NAQEhdKE81KVtDQEhdNDU=

>  <s_glide_docking_method>  (1) 
confgen

>  <s_i_glide_gridfile>  (1) 
gpcr_drd2_6luq_protein_autoprepared_prepared

>  <s_lp_Force_Field>  (1) 
S-OPLS

>  <s_lp_Variant>  (1) 
DiffSBDD_45-1

>  <s_m_source_file>  (1) 
generated_generic_title2_ligand_DiffSBDD_2026-06-23_prepared.sdf

>  <GenAI_Model>  (1) 
DiffSBDD

>  <Protein>  (1) 
generic_title2

$$$$
DiffSBDD_28
     RDKit          3D

  0  0  0  0  0  0  0  0  0  0999 V3000
M  V30 BEGIN CTAB
M  V30 COUNTS 79 86 0 0 1
M  V30 BEGIN ATOM
M  V30 1 F 7.817374 0.275024 -19.642196 0
M  V30 2 C 10.280716 6.660064 -8.976904 0 CFG=1
M  V30 3 C 7.510488 5.580576 -11.521408 0 CFG=2
M  V30 4 C 9.966375 8.348710 -6.771601 0 CFG=2
M  V30 5 C 9.105234 5.244666 -15.878246 0 CFG=1
M  V30 6 C 10.590831 5.561324 -7.956689 0
M  V30 7 C 7.452415 4.639409 -13.857866 0 CFG=2
M  V30 8 C 8.132160 3.337944 -19.112019 0 CFG=1
M  V30 9 C 6.916190 5.191913 -10.160891 0
M  V30 10 C 8.651863 4.058256 -16.717868 0 CFG=1
M  V30 11 C 11.460970 8.543472 -9.071993 0 CFG=1
M  V30 12 C 8.865026 3.806515 -12.043417 0
M  V30 13 C 10.396096 7.966071 -8.174517 0 CFG=1
M  V30 14 O 12.703847 8.749601 -8.441272 0
M  V30 15 C 8.756201 1.108413 -20.219232 0 CFG=1
M  V30 16 C 8.517385 5.513977 -14.492921 0 CFG=1
M  V30 17 O 9.775578 4.881341 -14.674247 0
M  V30 18 N 7.613390 4.418547 -12.411297 0
M  V30 19 O 11.955554 8.839588 -5.428165 0
M  V30 20 C 8.694850 1.130174 -21.698274 0
M  V30 21 O 9.256628 8.790077 -7.944604 0
M  V30 22 C 7.330269 3.502845 -16.157723 0
M  V30 23 C 11.359870 7.287072 -9.921190 0
M  V30 24 N 8.975410 6.390216 -9.692712 0 CFG=2 CHG=1
M  V30 25 C 10.766653 9.378494 -5.975263 0
M  V30 26 N 7.630102 4.064972 -20.296000 0 CHG=1
M  V30 27 C 7.312282 3.308724 -14.636215 0
M  V30 28 C 7.201844 5.407944 -19.880833 0
M  V30 29 C 7.838094 5.645439 -18.510626 0
M  V30 30 O 8.622105 2.203145 -22.297043 0
M  V30 31 C 9.781596 4.884281 -11.523487 0
M  V30 32 C 9.255691 2.341511 -19.471732 0
M  V30 33 O 9.719078 0.507311 -21.152665 0
M  V30 34 N 8.587078 4.407350 -18.175639 0 CFG=2 CHG=1
M  V30 35 C 8.034837 5.389991 -9.118607 0
M  V30 36 C 11.775388 8.075244 -4.249872 0
M  V30 37 C 8.926621 6.095255 -11.161539 0 CFG=1
M  V30 38 H 6.896789 6.363211 -11.967516 0
M  V30 39 H 9.423568 7.614176 -6.180249 0
M  V30 40 H 9.661023 6.015777 -16.402726 0
M  V30 41 H 11.547323 5.720382 -7.462172 0
M  V30 42 H 9.855299 5.555765 -7.152686 0
M  V30 43 H 10.576577 4.562507 -8.385244 0
M  V30 44 H 6.511566 5.172627 -13.998195 0
M  V30 45 H 7.272588 2.807493 -18.703928 0
M  V30 46 H 6.527214 4.173539 -10.129234 0
M  V30 47 H 6.062590 5.845098 -9.983841 0
M  V30 48 H 9.415211 3.285198 -16.614005 0
M  V30 49 H 11.150159 9.440061 -9.605414 0
M  V30 50 H 8.672123 3.190135 -11.185049 0
M  V30 51 H 9.322468 3.172074 -12.798648 0
M  V30 52 H 13.264079 9.212013 -9.053727 0
M  V30 53 H 8.575383 6.510316 -14.075047 0
M  V30 54 H 7.057869 2.552374 -16.613099 0
M  V30 55 H 6.575462 4.230980 -16.407451 0
M  V30 56 H 11.054852 7.546223 -10.932535 0
M  V30 57 H 12.323283 6.790231 -9.950715 0
M  V30 58 H 11.096583 10.163964 -6.646501 0
M  V30 59 H 10.175457 9.852753 -5.195226 0
M  V30 60 H 6.870159 3.562618 -20.736316 0
M  V30 61 H 8.100210 2.600069 -14.384879 0
M  V30 62 H 6.381560 2.826681 -14.335061 0
M  V30 63 H 6.112963 5.437224 -19.810898 0
M  V30 64 H 7.511861 6.151131 -20.617296 0
M  V30 65 H 7.061364 5.875603 -17.780607 0
M  V30 66 H 8.517469 6.498943 -18.532749 0
M  V30 67 H 10.175418 4.443808 -10.621321 0
M  V30 68 H 10.575513 5.137423 -12.222192 0
M  V30 69 H 10.025427 2.845451 -20.059895 0
M  V30 70 H 9.755329 1.983613 -18.571013 0
M  V30 71 H 8.512316 4.420054 -8.994844 0
M  V30 72 H 7.667358 5.679098 -8.137645 0
M  V30 73 H 12.733958 7.679774 -3.916278 0
M  V30 74 H 11.375511 8.698765 -3.449442 0
M  V30 75 H 11.105055 7.230971 -4.412772 0
M  V30 76 H 9.170926 6.966158 -11.769192 0
M  V30 77 H 8.406106 7.236305 -9.584744 0
M  V30 78 H 8.377943 4.154375 -20.972683 0
M  V30 79 H 9.541867 4.609031 -18.440172 0
M  V30 END ATOM
M  V30 BEGIN BOND
M  V30 1 1 2 6 CFG=1
M  V30 2 1 9 3
M  V30 3 1 10 5
M  V30 4 1 13 2
M  V30 5 1 13 4
M  V30 6 1 13 11
M  V30 7 1 14 11
M  V30 8 1 15 1 CFG=1
M  V30 9 1 16 5
M  V30 10 1 16 7
M  V30 11 1 17 5
M  V30 12 1 17 16
M  V30 13 1 18 3
M  V30 14 1 18 7
M  V30 15 1 18 12
M  V30 16 1 20 15
M  V30 17 1 21 4
M  V30 18 1 13 21 CFG=3
M  V30 19 1 22 10
M  V30 20 1 23 2
M  V30 21 1 23 11
M  V30 22 1 24 2
M  V30 23 1 25 4
M  V30 24 1 25 19
M  V30 25 1 26 8
M  V30 26 1 27 7
M  V30 27 1 27 22
M  V30 28 1 28 26
M  V30 29 1 29 28
M  V30 30 2 30 20
M  V30 31 1 31 12
M  V30 32 1 32 8
M  V30 33 1 32 15
M  V30 34 1 33 15
M  V30 35 1 33 20
M  V30 36 1 34 8
M  V30 37 1 34 10
M  V30 38 1 34 29
M  V30 39 1 35 9
M  V30 40 1 35 24
M  V30 41 1 36 19
M  V30 42 1 37 3
M  V30 43 1 37 24
M  V30 44 1 37 31
M  V30 45 1 3 38 CFG=3
M  V30 46 1 4 39 CFG=1
M  V30 47 1 5 40 CFG=3
M  V30 48 1 41 6
M  V30 49 1 42 6
M  V30 50 1 43 6
M  V30 51 1 7 44 CFG=1
M  V30 52 1 8 45 CFG=1
M  V30 53 1 46 9
M  V30 54 1 47 9
M  V30 55 1 10 48 CFG=3
M  V30 56 1 11 49 CFG=3
M  V30 57 1 50 12
M  V30 58 1 51 12
M  V30 59 1 52 14
M  V30 60 1 16 53 CFG=1
M  V30 61 1 54 22
M  V30 62 1 55 22
M  V30 63 1 56 23
M  V30 64 1 57 23
M  V30 65 1 58 25
M  V30 66 1 59 25
M  V30 67 1 60 26
M  V30 68 1 61 27
M  V30 69 1 62 27
M  V30 70 1 63 28
M  V30 71 1 64 28
M  V30 72 1 65 29
M  V30 73 1 66 29
M  V30 74 1 67 31
M  V30 75 1 68 31
M  V30 76 1 69 32
M  V30 77 1 70 32
M  V30 78 1 71 35
M  V30 79 1 72 35
M  V30 80 1 73 36
M  V30 81 1 74 36
M  V30 82 1 75 36
M  V30 83 1 37 76 CFG=3
M  V30 84 1 24 77 CFG=3
M  V30 85 1 78 26
M  V30 86 1 34 79 CFG=3
M  V30 END BOND
M  V30 END CTAB
M  END
>  <i_epik_Tot_Q>  (1) 
3

>  <i_epik_Tot_abs_Q>  (1) 
3

>  <i_i_glide_confnum>  (1) 
422

>  <i_i_glide_lignum>  (1) 
85

>  <i_i_glide_posenum>  (1) 
225

>  <i_i_glide_rotatable_bonds>  (1) 
8

>  <i_lp_mmshare_version>  (1) 
72125

>  <i_m_source_file_index>  (1) 
29

>  <i_f3d_flags>  (1) 
0

>  <num_sample>  (1) 
50

>  <b_lp_Chiralities_Consistent>  (1) 
1

>  <r_epik_Charging_Adjusted_Penalty>  (1) 
2.5479580004866769

>  <r_epik_Ionization_Penalty>  (1) 
1.853674345886815

>  <r_epik_Ionization_Penalty_Charging>  (1) 
1.8530809818743854

>  <r_epik_Ionization_Penalty_Neutral>  (1) 
0.00059336401242958479

>  <r_epik_State_Penalty>  (1) 
0.69487701861229134

>  <r_glide_ring_energy>  (1) 
0.81914574756082947

>  <r_i_docking_score>  (1) 
-4.3325956057800452

>  <r_i_glide_ecoul>  (1) 
-9.951112808551887

>  <r_i_glide_eff_state_penalty>  (1) 
0.69487701861229134

>  <r_i_glide_einternal>  (1) 
11.195429341507143

>  <r_i_glide_emodel>  (1) 
-31.007790168788475

>  <r_i_glide_emodel_strain>  (1) 
1.5207065302728324

>  <r_i_glide_energy>  (1) 
-32.350044646278917

>  <r_i_glide_erotb>  (1) 
0.44698704239028575

>  <r_i_glide_esite>  (1) 
-0.10000000000000001

>  <r_i_glide_evdw>  (1) 
-22.398931837727034

>  <r_i_glide_gscore>  (1) 
-5.0274726243923364

>  <r_i_glide_gscore_strain>  (1) 
0

>  <r_i_glide_hbond>  (1) 
-0.37924969828083632

>  <r_i_glide_ligand_efficiency>  (1) 
-0.11709717853459582

>  <r_i_glide_ligand_efficiency_ln>  (1) 
-0.93963841644177759

>  <r_i_glide_ligand_efficiency_sa>  (1) 
-0.39019377707906772

>  <r_i_glide_lipo>  (1) 
-1.8704285732750499

>  <r_i_glide_metal>  (1) 
-0

>  <r_i_glide_rewards>  (1) 
-0.51216788205760055

>  <r_lp_Energy>  (1) 
72.568534

>  <s_epik_Chemistry_Notes>  (1) 
This compound has an ester and may undergo hydrolysis at high or low pH. This compound contains an acetal/aminal-like group ( X-CH(R)-Y where X, Y are N, S, or O) that may be acid/base labile, releasing an aldehyde.

>  <s_epik_cmdline>  (1) 
J2VwaWtfcHl0aG9uJywgJy1waHQnLCAnMS4wJywgJy1waCcsICc3LjQnLCAnLXRuJywgJzgnLCAnLW1hJywgJzUwMCcsICctaW1hZScsICc8aW5maWxlLm1hZT4nLCAnLW9tYWUnLCAnPG91dGZpbGUubWFlPic=

>  <s_epik_input>  (1) 
Tz1DKE8xKUMxKEYpW0NIMl1bQ0BASF0yW05IXVtDSDJdW0NIMl1OMltDQEBIXTNbQ0gyXVtDSDJdW0NASF0oW0NAQEhdKE80KVtDQEhdMzQpTjVbQ0gyXVtDSDJdW0NAQEhdKFtDQEhdNTYpTihbQ0gyXVtDSDJdNilbQ0BAXShbQ0gzXSkoW0NIMl1bQ0BASF03W09IXSlbQ0BAXTc4W0NASF0oTzgpW0NIMl1PW0NIM10=

>  <s_glide_docking_method>  (1) 
confgen

>  <s_i_glide_gridfile>  (1) 
gpcr_drd2_6luq_protein_autoprepared_prepared

>  <s_lp_Force_Field>  (1) 
S-OPLS

>  <s_lp_Variant>  (1) 
DiffSBDD_28-8

>  <s_m_source_file>  (1) 
generated_generic_title2_ligand_DiffSBDD_2026-06-23_prepared.sdf

>  <GenAI_Model>  (1) 
DiffSBDD

>  <Protein>  (1) 
generic_title2

$$$$
DiffSBDD_11
     RDKit          3D

  0  0  0  0  0  0  0  0  0  0999 V3000
M  V30 BEGIN CTAB
M  V30 COUNTS 46 47 0 0 1
M  V30 BEGIN ATOM
M  V30 1 N 8.029731 5.569410 -11.387500 0
M  V30 2 O 11.375152 10.001264 -5.927114 0
M  V30 3 C 6.663253 4.586827 -12.649668 0
M  V30 4 C 12.943959 9.229784 -3.587285 0
M  V30 5 O 9.088177 4.857734 -9.452034 0
M  V30 6 N 7.356576 4.405737 -11.545666 0
M  V30 7 C 6.234636 6.385606 -14.426927 0
M  V30 8 N 5.841943 3.598238 -13.185026 0
M  V30 9 C 7.705849 6.498004 -12.402088 0
M  V30 10 C 8.975434 5.769337 -10.274777 0
M  V30 11 C 6.826641 5.871365 -13.245287 0
M  V30 12 C 11.555442 9.475143 -3.051383 0
M  V30 13 C 11.102223 8.680799 -5.505911 0 CFG=1
M  V30 14 C 11.486671 7.758650 -6.678767 0
M  V30 15 C 11.844300 6.667506 -2.290254 0
M  V30 16 C 9.807163 7.060903 -10.171891 0
M  V30 17 C 10.397092 7.764201 -7.766824 0
M  V30 18 C 8.256685 7.893363 -12.480922 0
M  V30 19 N 11.775400 7.002338 -3.731398 0 CHG=1
M  V30 20 N 5.762936 6.808824 -15.394365 0
M  V30 21 C 11.775416 8.437219 -4.146082 0
M  V30 22 C 10.858853 7.059242 -9.043277 0
M  V30 23 H 10.927603 10.155379 -6.745550 0
M  V30 24 H 13.596361 8.826209 -2.820020 0
M  V30 25 H 13.393143 9.990215 -4.220879 0
M  V30 26 H 5.337579 3.740197 -14.047891 0
M  V30 27 H 5.772765 2.686055 -12.757751 0
M  V30 28 H 11.057175 10.395095 -3.341973 0
M  V30 29 H 11.375550 9.188661 -2.019007 0
M  V30 30 H 10.030922 8.582537 -5.355175 0
M  V30 31 H 12.433160 8.075795 -7.121791 0
M  V30 32 H 11.625106 6.729072 -6.349473 0
M  V30 33 H 11.859841 5.590183 -2.173425 0
M  V30 34 H 12.746996 7.049932 -1.816414 0
M  V30 35 H 10.975390 7.030025 -1.742895 0
M  V30 36 H 9.173236 7.932247 -10.040496 0
M  V30 37 H 10.380762 7.149502 -11.090455 0
M  V30 38 H 9.490646 7.286822 -7.389741 0
M  V30 39 H 10.121644 8.789238 -8.017621 0
M  V30 40 H 7.803138 8.407501 -13.327259 0
M  V30 41 H 7.971997 8.498236 -11.622546 0
M  V30 42 H 9.324509 7.928553 -12.673462 0
M  V30 43 H 10.927390 6.582932 -4.089967 0
M  V30 44 H 11.762436 7.550498 -9.407947 0
M  V30 45 H 11.153086 6.045622 -8.785009 0
M  V30 46 H 12.550539 6.552892 -4.196016 0
M  V30 END ATOM
M  V30 BEGIN BOND
M  V30 1 1 6 1
M  V30 2 2 6 3
M  V30 3 1 8 3
M  V30 4 1 9 1
M  V30 5 1 10 1
M  V30 6 2 10 5
M  V30 7 1 11 3
M  V30 8 1 11 7
M  V30 9 2 11 9
M  V30 10 1 12 4
M  V30 11 1 13 2
M  V30 12 1 14 13
M  V30 13 1 16 10
M  V30 14 1 17 14
M  V30 15 1 18 9
M  V30 16 1 19 15
M  V30 17 3 20 7
M  V30 18 1 21 4
M  V30 19 1 21 12
M  V30 20 1 21 13
M  V30 21 1 21 19
M  V30 22 1 22 16
M  V30 23 1 22 17
M  V30 24 1 23 2
M  V30 25 1 24 4
M  V30 26 1 25 4
M  V30 27 1 26 8
M  V30 28 1 27 8
M  V30 29 1 28 12
M  V30 30 1 29 12
M  V30 31 1 13 30 CFG=1
M  V30 32 1 31 14
M  V30 33 1 32 14
M  V30 34 1 33 15
M  V30 35 1 34 15
M  V30 36 1 35 15
M  V30 37 1 36 16
M  V30 38 1 37 16
M  V30 39 1 38 17
M  V30 40 1 39 17
M  V30 41 1 40 18
M  V30 42 1 41 18
M  V30 43 1 42 18
M  V30 44 1 43 19
M  V30 45 1 44 22
M  V30 46 1 45 22
M  V30 47 1 46 19
M  V30 END BOND
M  V30 END CTAB
M  END
>  <i_epik_Tot_Q>  (1) 
1

>  <i_epik_Tot_abs_Q>  (1) 
1

>  <i_i_glide_confnum>  (1) 
289

>  <i_i_glide_lignum>  (1) 
46

>  <i_i_glide_posenum>  (1) 
89

>  <i_i_glide_rotatable_bonds>  (1) 
9

>  <i_lp_mmshare_version>  (1) 
72125

>  <i_m_source_file_index>  (1) 
12

>  <i_f3d_flags>  (1) 
0

>  <num_sample>  (1) 
50

>  <b_lp_Chiralities_Consistent>  (1) 
1

>  <r_epik_Charging_Adjusted_Penalty>  (1) 
0.78432572632575315

>  <r_epik_Ionization_Penalty>  (1) 
0.3972836053020487

>  <r_epik_Ionization_Penalty_Charging>  (1) 
0.39216286316287657

>  <r_epik_Ionization_Penalty_Neutral>  (1) 
0.0051207421391721471

>  <r_epik_State_Penalty>  (1) 
0.39216286316287657

>  <r_glide_ring_energy>  (1) 
0

>  <r_i_docking_score>  (1) 
-4.3321347802984134

>  <r_i_glide_ecoul>  (1) 
-1.0311149166673559

>  <r_i_glide_eff_state_penalty>  (1) 
0.39216286316287657

>  <r_i_glide_einternal>  (1) 
8.3117856413620075

>  <r_i_glide_emodel>  (1) 
-44.808853201049693

>  <r_i_glide_emodel_strain>  (1) 
2.5050259944014925

>  <r_i_glide_energy>  (1) 
-36.080949866219044

>  <r_i_glide_erotb>  (1) 
1.377350469870575

>  <r_i_glide_esite>  (1) 
-0.12226545811725049

>  <r_i_glide_evdw>  (1) 
-35.049834949551688

>  <r_i_glide_gscore>  (1) 
-4.7242976434612896

>  <r_i_glide_gscore_strain>  (1) 
0

>  <r_i_glide_hbond>  (1) 
0

>  <r_i_glide_ligand_efficiency>  (1) 
-0.19691521728629152

>  <r_i_glide_ligand_efficiency_ln>  (1) 
-1.0589317587604563

>  <r_i_glide_ligand_efficiency_sa>  (1) 
-0.55176418364074042

>  <r_i_glide_lipo>  (1) 
-1.7010274678346615

>  <r_i_glide_metal>  (1) 
-0

>  <r_i_glide_rewards>  (1) 
-2.3711962024022646

>  <r_lp_Energy>  (1) 
18.601261000000001

>  <s_epik_cmdline>  (1) 
J2VwaWtfcHl0aG9uJywgJy1waHQnLCAnMS4wJywgJy1waCcsICc3LjQnLCAnLXRuJywgJzgnLCAnLW1hJywgJzUwMCcsICctaW1hZScsICc8aW5maWxlLm1hZT4nLCAnLW9tYWUnLCAnPG91dGZpbGUubWFlPic=

>  <s_epik_input>  (1) 
W0NIM11jMWMoQyNOKWMoW05IMl0pbm4xQyg9TylbQ0gyXVtDSDJdW0NIMl1bQ0gyXVtDQEhdKFtPSF0pQzIoW0NIMl1bQ0gyXTIpW05IXVtDSDNd

>  <s_glide_docking_method>  (1) 
confgen

>  <s_i_glide_gridfile>  (1) 
gpcr_drd2_6luq_protein_autoprepared_prepared

>  <s_lp_Force_Field>  (1) 
S-OPLS

>  <s_lp_Variant>  (1) 
DiffSBDD_11-1

>  <s_m_source_file>  (1) 
generated_generic_title2_ligand_DiffSBDD_2026-06-23_prepared.sdf

>  <GenAI_Model>  (1) 
DiffSBDD

>  <Protein>  (1) 
generic_title2

$$$$
DiffSBDD_14
     RDKit          3D

  0  0  0  0  0  0  0  0  0  0999 V3000
M  V30 BEGIN CTAB
M  V30 COUNTS 71 74 0 0 1
M  V30 BEGIN ATOM
M  V30 1 C 7.010766 7.490253 -14.098776 0
M  V30 2 O 7.344920 5.170789 -18.189426 0
M  V30 3 C 9.366751 4.327151 -18.874886 0 CFG=2
M  V30 4 O 9.567445 5.032476 -16.069523 0
M  V30 5 C 9.313968 4.720548 -8.917353 0
M  V30 6 C 9.916770 6.638194 -10.529224 0
M  V30 7 N 7.846315 5.797514 -11.461626 0
M  V30 8 C 9.611846 6.217954 -9.081003 0 CFG=2
M  V30 9 C 10.949382 8.797817 -5.444214 0
M  V30 10 C 7.284109 5.303256 -19.604490 0
M  V30 11 C 12.920937 7.608074 -3.325054 0
M  V30 12 C 10.674238 7.538269 -5.571513 0
M  V30 13 C 9.473654 8.734170 -7.060448 0
M  V30 14 C 9.855540 7.235036 -6.772488 0 CFG=1
M  V30 15 C 7.534964 3.858698 -15.382226 0
M  V30 16 C 12.790225 8.899947 -3.635882 0
M  V30 17 C 10.734778 5.082138 -16.877512 0
M  V30 18 C 10.642084 6.658560 -7.983749 0 CFG=2
M  V30 19 C 8.213238 4.086903 -17.899762 0 CFG=1
M  V30 20 C 10.332359 5.394655 -18.324359 0
M  V30 21 O 5.926107 4.986656 -12.342760 0
M  V30 22 C 7.005450 5.555774 -12.503537 0
M  V30 23 O 10.450584 9.590206 -6.385051 0
M  V30 24 C 8.639289 4.806818 -20.125807 0
M  V30 25 C 11.065001 6.487040 -4.644565 0
M  V30 26 C 11.669482 9.514115 -4.365171 0
M  V30 27 C 11.797326 7.596842 -8.445295 0
M  V30 28 C 9.094952 6.435290 -11.580773 0
M  V30 29 C 6.783099 5.169173 -15.056189 0
M  V30 30 C 7.425323 6.020709 -13.928099 0 CFG=1
M  V30 31 C 12.020596 6.514683 -3.680723 0
M  V30 32 C 8.672284 3.983283 -16.423358 0 CFG=1
M  V30 33 H 7.471322 8.122216 -13.339690 0
M  V30 34 H 7.303626 7.884222 -15.071537 0
M  V30 35 H 5.927785 7.590264 -14.013796 0
M  V30 36 H 9.913710 3.401002 -19.059022 0
M  V30 37 H 8.477546 4.390212 -9.523305 0
M  V30 38 H 10.175122 4.105054 -9.170062 0
M  V30 39 H 9.035647 4.494596 -7.888452 0
M  V30 40 H 10.856106 7.132258 -10.701870 0
M  V30 41 H 7.567722 5.508236 -10.534430 0
M  V30 42 H 8.671802 6.721304 -8.862539 0
M  V30 43 H 7.082132 6.337506 -19.885596 0
M  V30 44 H 6.475493 4.682265 -19.992695 0
M  V30 45 H 13.775392 7.343274 -2.755791 0
M  V30 46 H 8.489441 8.910533 -6.628399 0
M  V30 47 H 9.377658 8.969197 -8.120333 0
M  V30 48 H 8.984136 6.630493 -6.511804 0
M  V30 49 H 7.935794 3.438724 -14.460153 0
M  V30 50 H 6.823135 3.119312 -15.747325 0
M  V30 51 H 13.545620 9.590010 -3.290731 0
M  V30 52 H 11.387314 5.866526 -16.492593 0
M  V30 53 H 11.289044 4.144997 -16.807227 0
M  V30 54 H 11.140255 5.759147 -7.621883 0
M  V30 55 H 7.689911 3.167109 -18.170516 0
M  V30 56 H 9.860478 6.379716 -18.353266 0
M  V30 57 H 11.219409 5.458440 -18.954184 0
M  V30 58 H 9.188580 5.590615 -20.648160 0
M  V30 59 H 8.492715 3.986823 -20.830867 0
M  V30 60 H 10.550385 5.566166 -4.759387 0
M  V30 61 H 12.094064 10.391052 -4.849703 0
M  V30 62 H 10.955386 9.898127 -3.638563 0
M  V30 63 H 11.444150 8.563168 -8.802697 0
M  V30 64 H 12.494182 7.789617 -7.630323 0
M  V30 65 H 12.395482 7.190176 -9.255239 0
M  V30 66 H 9.348533 6.751799 -12.571799 0
M  V30 67 H 5.753099 4.925224 -14.800642 0
M  V30 68 H 6.696072 5.770546 -15.958738 0
M  V30 69 H 8.489698 5.916731 -14.098480 0
M  V30 70 H 12.161951 5.592669 -3.134884 0
M  V30 71 H 9.242181 3.055630 -16.359633 0
M  V30 END ATOM
M  V30 BEGIN BOND
M  V30 1 1 8 5
M  V30 2 1 8 6
M  V30 3 1 10 2
M  V30 4 2 12 9
M  V30 5 1 14 12
M  V30 6 1 14 13
M  V30 7 2 16 11
M  V30 8 1 17 4
M  V30 9 1 18 8
M  V30 10 1 18 14
M  V30 11 1 19 2
M  V30 12 1 19 3
M  V30 13 1 20 3
M  V30 14 1 20 17
M  V30 15 1 22 7
M  V30 16 2 22 21
M  V30 17 1 23 9
M  V30 18 1 23 13
M  V30 19 1 24 3
M  V30 20 1 24 10
M  V30 21 1 25 12
M  V30 22 1 26 9
M  V30 23 1 26 16
M  V30 24 1 27 18
M  V30 25 2 28 6
M  V30 26 1 28 7
M  V30 27 1 29 15
M  V30 28 1 30 1
M  V30 29 1 30 22
M  V30 30 1 30 29
M  V30 31 1 31 11
M  V30 32 2 31 25
M  V30 33 1 32 4
M  V30 34 1 32 15
M  V30 35 1 32 19
M  V30 36 1 33 1
M  V30 37 1 34 1
M  V30 38 1 35 1
M  V30 39 1 3 36 CFG=3
M  V30 40 1 37 5
M  V30 41 1 38 5
M  V30 42 1 39 5
M  V30 43 1 40 6
M  V30 44 1 41 7
M  V30 45 1 8 42 CFG=1
M  V30 46 1 43 10
M  V30 47 1 44 10
M  V30 48 1 45 11
M  V30 49 1 46 13
M  V30 50 1 47 13
M  V30 51 1 14 48 CFG=1
M  V30 52 1 49 15
M  V30 53 1 50 15
M  V30 54 1 51 16
M  V30 55 1 52 17
M  V30 56 1 53 17
M  V30 57 1 18 54 CFG=1
M  V30 58 1 19 55 CFG=3
M  V30 59 1 56 20
M  V30 60 1 57 20
M  V30 61 1 58 24
M  V30 62 1 59 24
M  V30 63 1 60 25
M  V30 64 1 61 26
M  V30 65 1 62 26
M  V30 66 1 63 27
M  V30 67 1 64 27
M  V30 68 1 65 27
M  V30 69 1 66 28
M  V30 70 1 67 29
M  V30 71 1 68 29
M  V30 72 1 30 69 CFG=1
M  V30 73 1 70 31
M  V30 74 1 32 71 CFG=3
M  V30 END BOND
M  V30 END CTAB
M  END
>  <i_epik_Tot_Q>  (1) 
0

>  <i_epik_Tot_abs_Q>  (1) 
0

>  <i_i_glide_confnum>  (1) 
328

>  <i_i_glide_lignum>  (1) 
53

>  <i_i_glide_posenum>  (1) 
190

>  <i_i_glide_rotatable_bonds>  (1) 
9

>  <i_lp_mmshare_version>  (1) 
72125

>  <i_m_source_file_index>  (1) 
15

>  <i_f3d_flags>  (1) 
0

>  <num_sample>  (1) 
50

>  <b_lp_Chiralities_Consistent>  (1) 
1

>  <r_epik_Charging_Adjusted_Penalty>  (1) 
0

>  <r_epik_Ionization_Penalty>  (1) 
2.2973717276536928e-08

>  <r_epik_Ionization_Penalty_Charging>  (1) 
0

>  <r_epik_Ionization_Penalty_Neutral>  (1) 
2.2973717276536928e-08

>  <r_epik_State_Penalty>  (1) 
-0

>  <r_glide_ring_energy>  (1) 
0.077735394311321385

>  <r_i_docking_score>  (1) 
-4.3281728015422525

>  <r_i_glide_ecoul>  (1) 
-2.2251025480926234

>  <r_i_glide_eff_state_penalty>  (1) 
-0

>  <r_i_glide_einternal>  (1) 
36.109341431314348

>  <r_i_glide_emodel>  (1) 
-21.337723613220483

>  <r_i_glide_emodel_strain>  (1) 
2.2640742337041218

>  <r_i_glide_energy>  (1) 
-36.046381364594218

>  <r_i_glide_erotb>  (1) 
0.7170138056727231

>  <r_i_glide_esite>  (1) 
-0.088129754573097255

>  <r_i_glide_evdw>  (1) 
-33.821278816501597

>  <r_i_glide_gscore>  (1) 
-4.3281728015422525

>  <r_i_glide_gscore_strain>  (1) 
0

>  <r_i_glide_hbond>  (1) 
0

>  <r_i_glide_ligand_efficiency>  (1) 
-0.13525540004819539

>  <r_i_glide_ligand_efficiency_ln>  (1) 
-0.96919587179993527

>  <r_i_glide_ligand_efficiency_sa>  (1) 
-0.42940912864177011

>  <r_i_glide_lipo>  (1) 
-3.0751247530041432

>  <r_i_glide_metal>  (1) 
-0

>  <r_i_glide_rewards>  (1) 
0.14289722340123867

>  <r_lp_Energy>  (1) 
16.754915

>  <r_lp_tautomer_probability>  (1) 
1

>  <s_epik_cmdline>  (1) 
J2VwaWtfcHl0aG9uJywgJy1waHQnLCAnMS4wJywgJy1waCcsICc3LjQnLCAnLXRuJywgJzgnLCAnLW1hJywgJzUwMCcsICctaW1hZScsICc8aW5maWxlLm1hZT4nLCAnLW9tYWUnLCAnPG91dGZpbGUubWFlPic=

>  <s_epik_input>  (1) 
W0NIMl0xW0NIMl1PW0NAQEhdKFtDQEBIXTEyKVtDQEBIXShPW0NIMl1bQ0gyXTIpW0NIMl1bQ0gyXVtDQEBIXShbQ0gzXSlDKD1PKVtOSF0vW0NIXT1bQ0hdXFtDQEBIXShbQ0gzXSlbQ0BASF0oW0NIM10pW0NASF0oW0NIMl1PMylDKD1DMzQpW0NIXT1bQ0hdW0NIXT1bQ0hdW0NIMl00

>  <s_glide_docking_method>  (1) 
confgen

>  <s_i_glide_gridfile>  (1) 
gpcr_drd2_6luq_protein_autoprepared_prepared

>  <s_lp_Force_Field>  (1) 
S-OPLS

>  <s_lp_Variant>  (1) 
DiffSBDD_14-2

>  <s_m_source_file>  (1) 
generated_generic_title2_ligand_DiffSBDD_2026-06-23_prepared.sdf

>  <GenAI_Model>  (1) 
DiffSBDD

>  <Protein>  (1) 
generic_title2

$$$$
DiffSBDD_9
     RDKit          3D

  0  0  0  0  0  0  0  0  0  0999 V3000
M  V30 BEGIN CTAB
M  V30 COUNTS 77 78 0 0 1
M  V30 BEGIN ATOM
M  V30 1 C 11.142851 7.778644 -9.809550 0
M  V30 2 F 9.338084 6.989693 -20.210206 0
M  V30 3 C 7.888059 4.393828 -15.731821 0 CFG=1
M  V30 4 O 9.185197 4.748479 -20.049311 0
M  V30 5 F 8.575763 2.799467 -12.994221 0
M  V30 6 C 6.835363 5.171166 -13.420682 0 CFG=2
M  V30 7 O 11.375614 6.390159 -3.083980 0
M  V30 8 C 9.032028 5.623280 -11.257038 0
M  V30 9 C 6.725994 4.639815 -11.973806 0 CFG=2
M  V30 10 F 11.149083 5.780310 -20.560314 0
M  V30 11 O 9.961437 5.280536 -11.984840 0
M  V30 12 C 11.776000 7.246852 -3.863801 0
M  V30 13 C 9.826535 5.589053 -17.790762 0
M  V30 14 C 7.835481 3.315516 -16.841633 0
M  V30 15 O 10.094586 2.151058 -19.486989 0
M  V30 16 F 9.848806 4.585584 -22.701985 0
M  V30 17 C 10.763060 8.114597 -8.362261 0
M  V30 18 C 9.992575 7.843477 -10.835427 0
M  V30 19 F 10.785182 2.787179 -17.463112 0
M  V30 20 O 9.610015 8.003924 -7.955886 0
M  V30 21 C 9.798354 5.799423 -20.669353 0
M  V30 22 N 8.975322 6.819254 -10.660951 0
M  V30 23 C 10.527348 3.245053 -18.709921 0
M  V30 24 C 5.629843 6.113247 -13.756799 0
M  V30 25 O 6.501968 1.921822 -13.224819 0
M  V30 26 F 11.705041 3.709756 -19.189063 0
M  V30 27 C 9.434900 4.368909 -18.678103 0 CFG=2
M  V30 28 C 7.060485 3.995001 -14.453187 0 CFG=2
M  V30 29 C 9.324413 4.790037 -15.431859 0
M  V30 30 O 6.702583 5.557629 -10.877036 0
M  V30 31 C 7.549047 2.631920 -13.854762 0 CFG=1
M  V30 32 C 5.438060 7.220733 -12.696986 0
M  V30 33 C 5.712913 6.797441 -15.135418 0
M  V30 34 C 11.259504 7.303223 -5.297774 0
M  V30 35 C 7.868606 4.740499 -10.973182 0 CFG=2
M  V30 36 C 10.175684 5.305072 -16.336259 0
M  V30 37 C 9.445226 5.736027 -22.160748 0
M  V30 38 C 11.506525 8.680027 -5.953306 0
M  V30 39 C 8.026089 3.852528 -18.272654 0
M  V30 40 C 11.886025 8.597786 -7.445504 0
M  V30 41 H 11.594074 6.790136 -9.820314 0
M  V30 42 H 11.921371 8.479031 -10.114555 0
M  V30 43 H 7.445081 5.281069 -16.165416 0
M  V30 44 H 7.712835 5.810696 -13.475451 0
M  V30 45 H 5.967645 3.875803 -11.828130 0
M  V30 46 H 12.510141 8.006073 -3.596781 0
M  V30 47 H 10.710395 6.082593 -18.191658 0
M  V30 48 H 9.034918 6.336675 -17.818194 0
M  V30 49 H 8.543533 2.511603 -16.646432 0
M  V30 50 H 6.857977 2.834969 -16.818064 0
M  V30 51 H 10.011080 1.411156 -18.906596 0
M  V30 52 H 10.386128 7.815310 -11.852331 0
M  V30 53 H 9.468136 8.789834 -10.739132 0
M  V30 54 H 8.154436 7.052334 -10.082835 0
M  V30 55 H 4.723688 5.508579 -13.761204 0
M  V30 56 H 6.429950 1.070939 -13.629717 0
M  V30 57 H 6.061455 3.772650 -14.807152 0
M  V30 58 H 9.667123 4.628197 -14.421599 0
M  V30 59 H 7.889764 1.958944 -14.636691 0
M  V30 60 H 6.387804 7.682163 -12.423373 0
M  V30 61 H 4.781221 8.013744 -13.038271 0
M  V30 62 H 4.975122 6.840790 -11.787841 0
M  V30 63 H 6.690957 7.251214 -15.301274 0
M  V30 64 H 5.498247 6.097909 -15.941520 0
M  V30 65 H 4.975434 7.592869 -15.237497 0
M  V30 66 H 10.199178 7.047579 -5.323610 0
M  V30 67 H 11.775843 6.524031 -5.858220 0
M  V30 68 H 7.966589 3.991268 -10.196604 0
M  V30 69 H 11.183057 5.549045 -16.030458 0
M  V30 70 H 8.368158 5.806704 -22.315627 0
M  V30 71 H 9.925830 6.542393 -22.714716 0
M  V30 72 H 12.308854 9.215605 -5.444516 0
M  V30 73 H 10.620222 9.304972 -5.826532 0
M  V30 74 H 7.298666 4.648947 -18.438229 0
M  V30 75 H 7.728088 3.064897 -18.965220 0
M  V30 76 H 12.752515 7.950721 -7.585804 0
M  V30 77 H 12.174873 9.588255 -7.791458 0
M  V30 END ATOM
M  V30 BEGIN BOND
M  V30 1 1 9 6
M  V30 2 2 11 8
M  V30 3 2 12 7
M  V30 4 1 14 3
M  V30 5 1 17 1
M  V30 6 1 18 1
M  V30 7 2 20 17
M  V30 8 1 21 2
M  V30 9 1 21 4
M  V30 10 1 21 10
M  V30 11 1 22 8
M  V30 12 1 22 18
M  V30 13 1 23 15
M  V30 14 1 23 19
M  V30 15 1 24 6
M  V30 16 1 26 23
M  V30 17 1 27 4 CFG=3
M  V30 18 1 27 13
M  V30 19 1 27 23
M  V30 20 1 28 3
M  V30 21 1 28 6
M  V30 22 1 29 3
M  V30 23 1 30 9
M  V30 24 1 31 5
M  V30 25 1 31 25
M  V30 26 1 31 28
M  V30 27 1 32 24
M  V30 28 1 33 24
M  V30 29 1 34 12
M  V30 30 1 35 8
M  V30 31 1 35 9
M  V30 32 1 35 30
M  V30 33 1 36 13
M  V30 34 2 36 29
M  V30 35 1 37 16
M  V30 36 1 37 21
M  V30 37 1 38 34
M  V30 38 1 39 14
M  V30 39 1 39 27
M  V30 40 1 40 17
M  V30 41 1 40 38
M  V30 42 1 41 1
M  V30 43 1 42 1
M  V30 44 1 3 43 CFG=3
M  V30 45 1 6 44 CFG=1
M  V30 46 1 9 45 CFG=3
M  V30 47 1 46 12
M  V30 48 1 47 13
M  V30 49 1 48 13
M  V30 50 1 49 14
M  V30 51 1 50 14
M  V30 52 1 51 15
M  V30 53 1 52 18
M  V30 54 1 53 18
M  V30 55 1 54 22
M  V30 56 1 55 24
M  V30 57 1 56 25
M  V30 58 1 28 57 CFG=3
M  V30 59 1 58 29
M  V30 60 1 31 59 CFG=3
M  V30 61 1 60 32
M  V30 62 1 61 32
M  V30 63 1 62 32
M  V30 64 1 63 33
M  V30 65 1 64 33
M  V30 66 1 65 33
M  V30 67 1 66 34
M  V30 68 1 67 34
M  V30 69 1 35 68 CFG=1
M  V30 70 1 69 36
M  V30 71 1 70 37
M  V30 72 1 71 37
M  V30 73 1 72 38
M  V30 74 1 73 38
M  V30 75 1 74 39
M  V30 76 1 75 39
M  V30 77 1 76 40
M  V30 78 1 77 40
M  V30 END BOND
M  V30 END CTAB
M  END
>  <i_epik_Tot_Q>  (1) 
0

>  <i_epik_Tot_abs_Q>  (1) 
0

>  <i_i_glide_confnum>  (1) 
11333

>  <i_i_glide_lignum>  (1) 
45

>  <i_i_glide_posenum>  (1) 
99

>  <i_i_glide_rotatable_bonds>  (1) 
20

>  <i_lp_mmshare_version>  (1) 
72125

>  <i_m_source_file_index>  (1) 
10

>  <i_f3d_flags>  (1) 
0

>  <num_sample>  (1) 
50

>  <b_lp_Chiralities_Consistent>  (1) 
1

>  <r_epik_Charging_Adjusted_Penalty>  (1) 
0.024791601223723252

>  <r_epik_Ionization_Penalty>  (1) 
0.024829857689501161

>  <r_epik_Ionization_Penalty_Charging>  (1) 
0

>  <r_epik_Ionization_Penalty_Neutral>  (1) 
0.024829857689501161

>  <r_epik_State_Penalty>  (1) 
0.024791601223723252

>  <r_glide_ring_energy>  (1) 
0

>  <r_i_docking_score>  (1) 
-4.3161281777403397

>  <r_i_glide_ecoul>  (1) 
0.49412540887306411

>  <r_i_glide_eff_state_penalty>  (1) 
0.024791601223723252

>  <r_i_glide_einternal>  (1) 
15.522112234110661

>  <r_i_glide_emodel>  (1) 
-34.115332251640893

>  <r_i_glide_emodel_strain>  (1) 
1.6246419424207872

>  <r_i_glide_energy>  (1) 
-34.106179473834189

>  <r_i_glide_erotb>  (1) 
0.79596426883134463

>  <r_i_glide_esite>  (1) 
-0.10000000000000001

>  <r_i_glide_evdw>  (1) 
-34.600304882707256

>  <r_i_glide_gscore>  (1) 
-4.3409197789640626

>  <r_i_glide_gscore_strain>  (1) 
0

>  <r_i_glide_hbond>  (1) 
-0.16

>  <r_i_glide_ligand_efficiency>  (1) 
-0.1079032044435085

>  <r_i_glide_ligand_efficiency_ln>  (1) 
-0.92050312232988818

>  <r_i_glide_ligand_efficiency_sa>  (1) 
-0.36902376833547529

>  <r_i_glide_lipo>  (1) 
-2.0678880980119909

>  <r_i_glide_metal>  (1) 
-0

>  <r_i_glide_rewards>  (1) 
-1.153099516979013

>  <r_lp_Energy>  (1) 
29.47728

>  <r_lp_tautomer_probability>  (1) 
0.99989996500775002

>  <s_epik_cmdline>  (1) 
J2VwaWtfcHl0aG9uJywgJy1waHQnLCAnMS4wJywgJy1waCcsICc3LjQnLCAnLXRuJywgJzgnLCAnLW1hJywgJzUwMCcsICctaW1hZScsICc8aW5maWxlLm1hZT4nLCAnLW9tYWUnLCAnPG91dGZpbGUubWFlPic=

>  <s_epik_input>  (1) 
Tz1bQ0hdW0NIMl1bQ0gyXVtDSDJdQyg9TylbQ0gyXVtDSDJdW05IXUMoPU8pW0NASF0xT1tDQEhdMVtDQEhdKFtDSF0oW0NIM10pW0NIM10pW0NASF0oW0NAQEhdKEYpW09IXSlbQ0BIXShbQ0gyXVtDSDJdMilbQ0hdPVtDSF1bQ0gyXVtDQF0yKEMoRikoRilbT0hdKU9DKEYpKEYpW0NIMl1G

>  <s_glide_docking_method>  (1) 
confgen

>  <s_i_glide_gridfile>  (1) 
gpcr_drd2_6luq_protein_autoprepared_prepared

>  <s_lp_Force_Field>  (1) 
S-OPLS

>  <s_lp_Variant>  (1) 
DiffSBDD_9-2

>  <s_m_source_file>  (1) 
generated_generic_title2_ligand_DiffSBDD_2026-06-23_prepared.sdf

>  <GenAI_Model>  (1) 
DiffSBDD

>  <Protein>  (1) 
generic_title2

$$$$
DiffSBDD_39
     RDKit          3D

  0  0  0  0  0  0  0  0  0  0999 V3000
M  V30 BEGIN CTAB
M  V30 COUNTS 68 71 0 0 1
M  V30 BEGIN ATOM
M  V30 1 C 8.449405 2.723604 -13.318817 0
M  V30 2 F 6.775500 0.511133 -19.976975 0
M  V30 3 F 7.657362 1.866112 -18.539995 0
M  V30 4 C 11.193355 8.046345 -7.541345 0
M  V30 5 C 9.323213 5.004367 -12.569036 0
M  V30 6 C 7.807212 6.821370 -11.912694 0 CFG=1
M  V30 7 O 12.387585 8.390213 -8.213602 0
M  V30 8 C 7.424756 -0.438565 -16.435518 0 CFG=2
M  V30 9 C 5.772365 3.556116 -12.486381 0
M  V30 10 C 9.388780 5.828749 -10.243556 0 CFG=2
M  V30 11 O 8.574770 -2.409907 -17.292805 0
M  V30 12 C 6.007251 2.326931 -13.366729 0
M  V30 13 N 7.352724 1.728237 -13.190002 0 CFG=1 CHG=1
M  V30 14 C 8.813435 -0.123084 -18.987697 0
M  V30 15 C 8.208635 3.963221 -12.450648 0 CFG=1
M  V30 16 C 7.541967 0.512891 -14.030027 0
M  V30 17 O 9.463499 -0.292988 -17.723854 0
M  V30 18 C 6.576636 5.890128 -11.967110 0
M  V30 19 N 9.073869 6.121043 -11.655151 0
M  V30 20 C 10.542688 6.805164 -8.175874 0 CFG=1
M  V30 21 C 9.372592 6.301006 -7.313849 0
M  V30 22 C 7.680418 0.800122 -15.546091 0
M  V30 23 C 6.843400 4.601788 -12.764447 0 CFG=2
M  V30 24 C 8.767778 -1.100845 -16.818485 0 CFG=1
M  V30 25 C 6.651045 -0.066159 -17.699996 0
M  V30 26 C 8.703193 5.064357 -7.930676 0
M  V30 27 C 7.452015 0.580558 -18.828835 0
M  V30 28 O 5.440567 -0.266239 -17.796128 0
M  V30 29 C 8.238089 5.307799 -9.345402 0
M  V30 30 O 7.929283 7.443909 -13.169361 0
M  V30 31 C 10.063213 7.069021 -9.620347 0
M  V30 32 H 8.559531 3.044603 -14.353624 0
M  V30 33 H 9.375188 2.240269 -13.006809 0
M  V30 34 H 11.437155 7.851567 -6.496242 0
M  V30 35 H 10.505292 8.891401 -7.555909 0
M  V30 36 H 9.379027 5.374948 -13.593516 0
M  V30 37 H 10.293169 4.559407 -12.353284 0
M  V30 38 H 7.700817 7.629024 -11.196294 0
M  V30 39 H 12.176692 8.615782 -9.107466 0
M  V30 40 H 6.819497 -1.163464 -15.892578 0
M  V30 41 H 4.791693 3.989096 -12.695639 0
M  V30 42 H 5.775660 3.277530 -11.431503 0
M  V30 43 H 10.135603 5.039338 -10.239182 0
M  V30 44 H 8.203436 -2.907737 -16.568206 0
M  V30 45 H 5.934526 2.673133 -14.385005 0
M  V30 46 H 5.235270 1.573829 -13.205735 0
M  V30 47 H 8.696357 -1.084235 -19.491275 0
M  V30 48 H 9.462318 0.473270 -19.629255 0
M  V30 49 H 8.226668 3.590211 -11.441304 0
M  V30 50 H 8.433421 -0.009639 -13.683238 0
M  V30 51 H 6.704779 -0.163557 -13.847904 0
M  V30 52 H 5.735003 6.425174 -12.409026 0
M  V30 53 H 6.226742 5.638636 -10.970754 0
M  V30 54 H 11.288488 6.011647 -8.195086 0
M  V30 55 H 9.721442 6.056679 -6.310129 0
M  V30 56 H 8.628656 7.091565 -7.196132 0
M  V30 57 H 6.978978 1.578743 -15.839020 0
M  V30 58 H 8.662683 1.220590 -15.759908 0
M  V30 59 H 6.825432 4.866878 -13.823311 0
M  V30 60 H 9.378458 -1.210521 -15.926677 0
M  V30 61 H 9.375703 4.213338 -7.982594 0
M  V30 62 H 7.834628 4.790247 -7.333234 0
M  V30 63 H 7.784337 4.388535 -9.683593 0
M  V30 64 H 7.416658 5.990203 -9.280135 0
M  V30 65 H 7.774804 8.368208 -13.048152 0
M  V30 66 H 9.374214 7.913762 -9.622445 0
M  V30 67 H 10.910096 7.363466 -10.240864 0
M  V30 68 H 7.386789 1.408264 -12.232298 0
M  V30 END ATOM
M  V30 BEGIN BOND
M  V30 1 1 7 4
M  V30 2 1 12 9
M  V30 3 1 13 1
M  V30 4 1 13 12
M  V30 5 1 15 1
M  V30 6 1 15 5
M  V30 7 1 16 13
M  V30 8 1 17 14
M  V30 9 1 18 6
M  V30 10 1 19 5
M  V30 11 1 19 6
M  V30 12 1 19 10
M  V30 13 1 20 4
M  V30 14 1 21 20
M  V30 15 1 22 8
M  V30 16 1 22 16
M  V30 17 1 23 9
M  V30 18 1 23 15
M  V30 19 1 23 18
M  V30 20 1 24 8
M  V30 21 1 24 11
M  V30 22 1 24 17
M  V30 23 1 25 8
M  V30 24 1 26 21
M  V30 25 1 27 2
M  V30 26 1 27 3
M  V30 27 1 27 14
M  V30 28 1 27 25
M  V30 29 2 28 25
M  V30 30 1 29 10
M  V30 31 1 29 26
M  V30 32 1 30 6
M  V30 33 1 31 10
M  V30 34 1 31 20
M  V30 35 1 32 1
M  V30 36 1 33 1
M  V30 37 1 34 4
M  V30 38 1 35 4
M  V30 39 1 36 5
M  V30 40 1 37 5
M  V30 41 1 6 38 CFG=1
M  V30 42 1 39 7
M  V30 43 1 8 40 CFG=1
M  V30 44 1 41 9
M  V30 45 1 42 9
M  V30 46 1 10 43 CFG=3
M  V30 47 1 44 11
M  V30 48 1 45 12
M  V30 49 1 46 12
M  V30 50 1 47 14
M  V30 51 1 48 14
M  V30 52 1 15 49 CFG=1
M  V30 53 1 50 16
M  V30 54 1 51 16
M  V30 55 1 52 18
M  V30 56 1 53 18
M  V30 57 1 20 54 CFG=3
M  V30 58 1 55 21
M  V30 59 1 56 21
M  V30 60 1 57 22
M  V30 61 1 58 22
M  V30 62 1 23 59 CFG=3
M  V30 63 1 24 60 CFG=1
M  V30 64 1 61 26
M  V30 65 1 62 26
M  V30 66 1 63 29
M  V30 67 1 64 29
M  V30 68 1 65 30
M  V30 69 1 66 31
M  V30 70 1 67 31
M  V30 71 1 13 68 CFG=1
M  V30 END BOND
M  V30 END CTAB
M  END
>  <i_epik_Tot_Q>  (1) 
1

>  <i_epik_Tot_abs_Q>  (1) 
1

>  <i_i_glide_confnum>  (1) 
69

>  <i_i_glide_lignum>  (1) 
109

>  <i_i_glide_posenum>  (1) 
335

>  <i_i_glide_rotatable_bonds>  (1) 
8

>  <i_lp_mmshare_version>  (1) 
72125

>  <i_m_source_file_index>  (1) 
40

>  <i_f3d_flags>  (1) 
0

>  <num_sample>  (1) 
50

>  <b_lp_Chiralities_Consistent>  (1) 
1

>  <r_epik_Charging_Adjusted_Penalty>  (1) 
0.93182942678714009

>  <r_epik_Ionization_Penalty>  (1) 
0.32046720352224994

>  <r_epik_Ionization_Penalty_Charging>  (1) 
0.0037689991519664944

>  <r_epik_Ionization_Penalty_Neutral>  (1) 
0.31669820437028345

>  <r_epik_State_Penalty>  (1) 
0.9280604276351736

>  <r_glide_ring_energy>  (1) 
1.2534239858202201

>  <r_i_docking_score>  (1) 
-4.3096767648543564

>  <r_i_glide_ecoul>  (1) 
-9.6427995264551178

>  <r_i_glide_eff_state_penalty>  (1) 
0.9280604276351736

>  <r_i_glide_einternal>  (1) 
9.7509440477551994

>  <r_i_glide_emodel>  (1) 
-37.692388532961068

>  <r_i_glide_emodel_strain>  (1) 
2.1493180352091485

>  <r_i_glide_energy>  (1) 
-34.202150560533553

>  <r_i_glide_erotb>  (1) 
0.49989103335302049

>  <r_i_glide_esite>  (1) 
-0.12251044064847152

>  <r_i_glide_evdw>  (1) 
-24.559351034078439

>  <r_i_glide_gscore>  (1) 
-5.2377371924895302

>  <r_i_glide_gscore_strain>  (1) 
0

>  <r_i_glide_hbond>  (1) 
-0.32000000000000001

>  <r_i_glide_ligand_efficiency>  (1) 
-0.13902183112433408

>  <r_i_glide_ligand_efficiency_ln>  (1) 
-0.97196418620580471

>  <r_i_glide_ligand_efficiency_sa>  (1) 
-0.43672049055400675

>  <r_i_glide_lipo>  (1) 
-1.4664574734307327

>  <r_i_glide_metal>  (1) 
-0

>  <r_i_glide_rewards>  (1) 
-1.1542728310911572

>  <r_lp_Energy>  (1) 
47.661428000000001

>  <s_epik_Chemistry_Notes>  (1) 
This compound contains an acetal/aminal-like group ( X-CH(R)-Y where X, Y are N, S, or O) that may be acid/base labile, releasing an aldehyde.

>  <s_epik_cmdline>  (1) 
J2VwaWtfcHl0aG9uJywgJy1waHQnLCAnMS4wJywgJy1waCcsICc3LjQnLCAnLXRuJywgJzgnLCAnLW1hJywgJzUwMCcsICctaW1hZScsICc8aW5maWxlLm1hZT4nLCAnLW9tYWUnLCAnPG91dGZpbGUubWFlPic=

>  <s_epik_input>  (1) 
RkMxKEYpW0NIMl1PW0NASF0oW09IXSlbQ0BIXShDMT1PKVtDSDJdW0NIMl1OKFtDSDJdMilbQ0gyXVtDSDJdW0NASF0oW0NAQEhdMjMpW0NIMl1bQ0BIXShbT0hdKU4oW0NIMl0zKVtDQEBIXTRbQ0gyXVtDSDJdW0NIMl1bQ0BASF0oW0NIMl00KVtDSDJdW09IXQ==

>  <s_glide_docking_method>  (1) 
confgen

>  <s_i_glide_gridfile>  (1) 
gpcr_drd2_6luq_protein_autoprepared_prepared

>  <s_lp_Force_Field>  (1) 
S-OPLS

>  <s_lp_Variant>  (1) 
DiffSBDD_39-5

>  <s_m_source_file>  (1) 
generated_generic_title2_ligand_DiffSBDD_2026-06-23_prepared.sdf

>  <GenAI_Model>  (1) 
DiffSBDD

>  <Protein>  (1) 
generic_title2

$$$$
DiffSBDD_38
     RDKit          3D

  0  0  0  0  0  0  0  0  0  0999 V3000
M  V30 BEGIN CTAB
M  V30 COUNTS 55 57 0 0 1
M  V30 BEGIN ATOM
M  V30 1 C 9.264073 7.912891 -11.815757 0
M  V30 2 C 10.172256 7.501866 -8.428409 0
M  V30 3 N 9.919926 6.827528 -9.683105 0
M  V30 4 C 6.789310 1.049157 -13.578895 0 CFG=2
M  V30 5 C 6.130394 -0.078946 -14.339271 0 CFG=1
M  V30 6 C 6.016394 -0.009748 -12.831121 0
M  V30 7 C 8.731852 6.825297 -12.755939 0
M  V30 8 C 7.442583 4.719844 -13.097649 0
M  V30 9 C 5.980630 3.566105 -11.362395 0
M  V30 10 C 9.449526 7.273836 -7.302010 0
M  V30 11 C 11.367807 8.453538 -8.447640 0
M  V30 12 C 6.927525 3.376002 -12.562562 0 CFG=1
M  V30 13 C 10.843022 9.016696 -6.049060 0
M  V30 14 C 8.069333 5.656373 -12.034490 0 CFG=1
M  V30 15 C 6.307044 2.489979 -13.657652 0
M  V30 16 C 10.432886 7.441982 -10.932980 0
M  V30 17 C 11.918707 8.564794 -7.028541 0
M  V30 18 C 9.116636 4.967192 -11.125808 0
M  V30 19 C 4.904381 0.108510 -15.207424 0
M  V30 20 C 9.732860 7.952814 -5.981751 0
M  V30 21 C 9.271724 5.610004 -9.741908 0
M  V30 22 O 8.853175 5.006546 -8.755490 0
M  V30 23 H 9.596507 8.764904 -12.401205 0
M  V30 24 H 8.454713 8.306529 -11.198528 0
M  V30 25 H 7.874394 0.966456 -13.529504 0
M  V30 26 H 6.829930 -0.804498 -14.745025 0
M  V30 27 H 6.575265 -0.746419 -12.257982 0
M  V30 28 H 5.044584 0.250624 -12.420449 0
M  V30 29 H 9.546412 6.390224 -13.336807 0
M  V30 30 H 8.030829 7.275872 -13.460382 0
M  V30 31 H 6.626582 5.244958 -13.596166 0
M  V30 32 H 8.182820 4.513275 -13.871651 0
M  V30 33 H 5.040099 4.032046 -11.657042 0
M  V30 34 H 5.775412 2.597649 -10.913863 0
M  V30 35 H 6.412043 4.167943 -10.563532 0
M  V30 36 H 8.612099 6.604276 -7.303910 0
M  V30 37 H 12.180223 8.065205 -9.063783 0
M  V30 38 H 11.075992 9.433186 -8.826131 0
M  V30 39 H 7.813805 2.832617 -12.248846 0
M  V30 40 H 11.266383 9.174709 -5.056420 0
M  V30 41 H 10.453518 9.977425 -6.378590 0
M  V30 42 H 7.262763 6.057798 -11.417597 0
M  V30 43 H 5.221348 2.520931 -13.585021 0
M  V30 44 H 6.575367 2.866649 -14.645706 0
M  V30 45 H 11.010833 8.346255 -10.785116 0
M  V30 46 H 11.116740 6.790134 -11.473573 0
M  V30 47 H 12.175410 7.548670 -6.740904 0
M  V30 48 H 12.809847 9.190272 -6.983759 0
M  V30 49 H 10.076049 4.845065 -11.628505 0
M  V30 50 H 8.828402 3.952142 -10.879352 0
M  V30 51 H 4.101589 0.593236 -14.652304 0
M  V30 52 H 5.155261 0.708834 -16.081780 0
M  V30 53 H 4.539277 -0.857376 -15.552989 0
M  V30 54 H 8.803040 8.390266 -5.634440 0
M  V30 55 H 10.007191 7.173611 -5.269536 0
M  V30 END ATOM
M  V30 BEGIN BOND
M  V30 1 1 3 2
M  V30 2 1 5 4
M  V30 3 1 6 4
M  V30 4 1 6 5
M  V30 5 1 7 1
M  V30 6 2 10 2
M  V30 7 1 11 2
M  V30 8 1 12 8
M  V30 9 1 12 9
M  V30 10 1 14 7
M  V30 11 1 14 8
M  V30 12 1 15 4
M  V30 13 1 15 12
M  V30 14 1 16 1
M  V30 15 1 16 3
M  V30 16 1 17 11
M  V30 17 1 17 13
M  V30 18 1 18 14
M  V30 19 1 19 5
M  V30 20 1 20 10
M  V30 21 1 20 13
M  V30 22 1 21 3
M  V30 23 1 21 18
M  V30 24 2 22 21
M  V30 25 1 23 1
M  V30 26 1 24 1
M  V30 27 1 4 25 CFG=1
M  V30 28 1 5 26 CFG=1
M  V30 29 1 27 6
M  V30 30 1 28 6
M  V30 31 1 29 7
M  V30 32 1 30 7
M  V30 33 1 31 8
M  V30 34 1 32 8
M  V30 35 1 33 9
M  V30 36 1 34 9
M  V30 37 1 35 9
M  V30 38 1 36 10
M  V30 39 1 37 11
M  V30 40 1 38 11
M  V30 41 1 12 39 CFG=1
M  V30 42 1 40 13
M  V30 43 1 41 13
M  V30 44 1 14 42 CFG=1
M  V30 45 1 43 15
M  V30 46 1 44 15
M  V30 47 1 45 16
M  V30 48 1 46 16
M  V30 49 1 47 17
M  V30 50 1 48 17
M  V30 51 1 49 18
M  V30 52 1 50 18
M  V30 53 1 51 19
M  V30 54 1 52 19
M  V30 55 1 53 19
M  V30 56 1 54 20
M  V30 57 1 55 20
M  V30 END BOND
M  V30 END CTAB
M  END
>  <i_epik_Tot_Q>  (1) 
0

>  <i_epik_Tot_abs_Q>  (1) 
0

>  <i_i_glide_confnum>  (1) 
494

>  <i_i_glide_lignum>  (1) 
104

>  <i_i_glide_posenum>  (1) 
400

>  <i_i_glide_rotatable_bonds>  (1) 
5

>  <i_lp_mmshare_version>  (1) 
72125

>  <i_m_source_file_index>  (1) 
39

>  <i_f3d_flags>  (1) 
0

>  <num_sample>  (1) 
50

>  <b_lp_Chiralities_Consistent>  (1) 
1

>  <r_epik_Charging_Adjusted_Penalty>  (1) 
0

>  <r_epik_Ionization_Penalty>  (1) 
3.750095861585333e-08

>  <r_epik_Ionization_Penalty_Charging>  (1) 
0

>  <r_epik_Ionization_Penalty_Neutral>  (1) 
3.750095861585333e-08

>  <r_epik_State_Penalty>  (1) 
-0

>  <r_glide_ring_energy>  (1) 
0.00030315173059249431

>  <r_i_docking_score>  (1) 
-4.3090956643337615

>  <r_i_glide_ecoul>  (1) 
0.018812754018986383

>  <r_i_glide_eff_state_penalty>  (1) 
-0

>  <r_i_glide_einternal>  (1) 
11.606653109273189

>  <r_i_glide_emodel>  (1) 
-27.911866990977689

>  <r_i_glide_emodel_strain>  (1) 
1.6699256311665138

>  <r_i_glide_energy>  (1) 
-29.069609735899768

>  <r_i_glide_erotb>  (1) 
1.0003538244760346

>  <r_i_glide_esite>  (1) 
-0.13741391712585233

>  <r_i_glide_evdw>  (1) 
-29.088422489918752

>  <r_i_glide_gscore>  (1) 
-4.3090956643337615

>  <r_i_glide_gscore_strain>  (1) 
0

>  <r_i_glide_hbond>  (1) 
0

>  <r_i_glide_ligand_efficiency>  (1) 
-0.19586798474244371

>  <r_i_glide_ligand_efficiency_ln>  (1) 
-1.0533001584465218

>  <r_i_glide_ligand_efficiency_sa>  (1) 
-0.54882979686453659

>  <r_i_glide_lipo>  (1) 
-1.5976314670165852

>  <r_i_glide_metal>  (1) 
-0

>  <r_i_glide_rewards>  (1) 
-2.1228048932742687

>  <r_lp_Energy>  (1) 
35.882517999999997

>  <r_lp_tautomer_probability>  (1) 
1

>  <s_epik_cmdline>  (1) 
J2VwaWtfcHl0aG9uJywgJy1waHQnLCAnMS4wJywgJy1waCcsICc3LjQnLCAnLXRuJywgJzgnLCAnLW1hJywgJzUwMCcsICctaW1hZScsICc8aW5maWxlLm1hZT4nLCAnLW9tYWUnLCAnPG91dGZpbGUubWFlPic=

>  <s_epik_input>  (1) 
W0NIMl0xW0NIMl1bQ0gyXVtDSDJdW0NIXT1DMU4yW0NIMl1bQ0gyXVtDSDJdW0NASF0oW0NIMl1DMj1PKVtDSDJdW0NASF0oW0NIM10pW0NIMl1bQ0BASF0zW0NAQEhdKFtDSDJdMylbQ0gzXQ==

>  <s_glide_docking_method>  (1) 
confgen

>  <s_i_glide_gridfile>  (1) 
gpcr_drd2_6luq_protein_autoprepared_prepared

>  <s_lp_Force_Field>  (1) 
S-OPLS

>  <s_lp_Variant>  (1) 
DiffSBDD_38-2

>  <s_m_source_file>  (1) 
generated_generic_title2_ligand_DiffSBDD_2026-06-23_prepared.sdf

>  <GenAI_Model>  (1) 
DiffSBDD

>  <Protein>  (1) 
generic_title2

$$$$
DiffSBDD_39
     RDKit          3D

  0  0  0  0  0  0  0  0  0  0999 V3000
M  V30 BEGIN CTAB
M  V30 COUNTS 69 72 0 0 1
M  V30 BEGIN ATOM
M  V30 1 C 8.209413 4.711917 -15.044649 0
M  V30 2 F 4.781389 0.568305 -19.352387 0
M  V30 3 F 5.894885 0.448038 -21.206803 0
M  V30 4 C 11.155796 8.473428 -8.557920 0
M  V30 5 C 8.120279 6.260171 -13.017748 0
M  V30 6 C 6.352543 5.902553 -11.299452 0 CFG=1
M  V30 7 O 11.797869 9.190766 -9.584928 0
M  V30 8 C 7.509534 0.963048 -17.892559 0 CFG=2
M  V30 9 C 6.596678 2.757099 -13.600302 0
M  V30 10 C 8.828263 6.023682 -10.618974 0 CFG=2
M  V30 11 O 8.069876 -0.809762 -16.385029 0
M  V30 12 C 6.999683 2.516548 -15.062194 0
M  V30 13 N 8.175410 3.302977 -15.520774 0 CFG=1 CHG=1
M  V30 14 C 6.379100 -1.142512 -19.541447 0
M  V30 15 C 7.952067 4.816576 -13.530890 0 CFG=1
M  V30 16 C 8.413347 3.224593 -16.989454 0
M  V30 17 O 6.669548 -1.266389 -18.148954 0
M  V30 18 C 6.085004 4.474907 -11.813825 0
M  V30 19 N 7.736205 6.390552 -11.585024 0 CFG=1 CHG=1
M  V30 20 C 10.678886 7.118965 -9.096726 0 CFG=1
M  V30 21 C 10.156518 6.252550 -7.932069 0
M  V30 22 C 8.751602 1.802206 -17.475896 0
M  V30 23 C 6.547569 4.250446 -13.258630 0 CFG=2
M  V30 24 C 7.793751 -0.549085 -17.740925 0 CFG=1
M  V30 25 C 7.010883 1.262249 -19.308968 0
M  V30 26 C 9.479719 4.967087 -8.414990 0
M  V30 27 C 5.975607 0.302484 -19.883790 0
M  V30 28 O 7.417100 2.234319 -19.946801 0
M  V30 29 C 8.335378 5.308824 -9.343224 0
M  V30 30 O 5.581294 6.864169 -11.986495 0
M  V30 31 C 9.642653 7.293290 -10.239294 0
M  V30 32 H 7.471253 5.299102 -15.594603 0
M  V30 33 H 9.185259 5.141092 -15.277621 0
M  V30 34 H 11.853174 8.347334 -7.728533 0
M  V30 35 H 10.309554 9.048325 -8.182535 0
M  V30 36 H 7.516576 6.939957 -13.621106 0
M  V30 37 H 9.151435 6.585974 -13.146812 0
M  V30 38 H 6.056370 5.989692 -10.256834 0
M  V30 39 H 12.709079 8.938687 -9.625358 0
M  V30 40 H 6.666213 1.175906 -17.240765 0
M  V30 41 H 5.628461 2.292041 -13.411280 0
M  V30 42 H 7.305421 2.249042 -12.943043 0
M  V30 43 H 9.504893 5.326284 -11.115190 0
M  V30 44 H 7.958333 -1.741598 -16.214693 0
M  V30 45 H 6.175412 2.747682 -15.714402 0
M  V30 46 H 7.203341 1.453429 -15.177348 0
M  V30 47 H 5.565944 -1.824171 -19.792377 0
M  V30 48 H 7.241890 -1.456922 -20.131267 0
M  V30 49 H 8.689373 4.200975 -13.011982 0
M  V30 50 H 7.568099 3.643652 -17.537560 0
M  V30 51 H 9.268366 3.860759 -17.225526 0
M  V30 52 H 5.020852 4.250997 -11.731317 0
M  V30 53 H 6.575493 3.749258 -11.171027 0
M  V30 54 H 11.556150 6.645979 -9.512674 0
M  V30 55 H 10.973356 6.004145 -7.253319 0
M  V30 56 H 9.437060 6.826653 -7.345445 0
M  V30 57 H 9.426509 1.875567 -18.330521 0
M  V30 58 H 9.349270 1.303793 -16.713650 0
M  V30 59 H 5.828070 4.749071 -13.911301 0
M  V30 60 H 8.666742 -0.868938 -18.314559 0
M  V30 61 H 10.175442 4.296268 -8.910221 0
M  V30 62 H 9.060471 4.411217 -7.585026 0
M  V30 63 H 7.806641 4.390229 -9.570516 0
M  V30 64 H 7.653737 5.938464 -8.778516 0
M  V30 65 H 5.050464 7.320671 -11.347680 0
M  V30 66 H 8.975412 8.097942 -9.944793 0
M  V30 67 H 10.151984 7.670451 -11.127315 0
M  V30 68 H 8.972553 2.863175 -15.085364 0
M  V30 69 H 7.628345 7.378895 -11.393289 0
M  V30 END ATOM
M  V30 BEGIN BOND
M  V30 1 1 7 4
M  V30 2 1 12 9
M  V30 3 1 13 1
M  V30 4 1 13 12
M  V30 5 1 15 1
M  V30 6 1 15 5
M  V30 7 1 16 13
M  V30 8 1 17 14
M  V30 9 1 18 6
M  V30 10 1 19 5
M  V30 11 1 19 6
M  V30 12 1 19 10
M  V30 13 1 20 4
M  V30 14 1 21 20
M  V30 15 1 22 8
M  V30 16 1 22 16
M  V30 17 1 23 9
M  V30 18 1 23 15
M  V30 19 1 23 18
M  V30 20 1 24 8
M  V30 21 1 24 11
M  V30 22 1 24 17
M  V30 23 1 25 8
M  V30 24 1 26 21
M  V30 25 1 27 2
M  V30 26 1 27 3
M  V30 27 1 27 14
M  V30 28 1 27 25
M  V30 29 2 28 25
M  V30 30 1 29 10
M  V30 31 1 29 26
M  V30 32 1 30 6
M  V30 33 1 31 10
M  V30 34 1 31 20
M  V30 35 1 32 1
M  V30 36 1 33 1
M  V30 37 1 34 4
M  V30 38 1 35 4
M  V30 39 1 36 5
M  V30 40 1 37 5
M  V30 41 1 6 38 CFG=1
M  V30 42 1 39 7
M  V30 43 1 8 40 CFG=1
M  V30 44 1 41 9
M  V30 45 1 42 9
M  V30 46 1 10 43 CFG=3
M  V30 47 1 44 11
M  V30 48 1 45 12
M  V30 49 1 46 12
M  V30 50 1 47 14
M  V30 51 1 48 14
M  V30 52 1 15 49 CFG=1
M  V30 53 1 50 16
M  V30 54 1 51 16
M  V30 55 1 52 18
M  V30 56 1 53 18
M  V30 57 1 20 54 CFG=3
M  V30 58 1 55 21
M  V30 59 1 56 21
M  V30 60 1 57 22
M  V30 61 1 58 22
M  V30 62 1 23 59 CFG=3
M  V30 63 1 24 60 CFG=3
M  V30 64 1 61 26
M  V30 65 1 62 26
M  V30 66 1 63 29
M  V30 67 1 64 29
M  V30 68 1 65 30
M  V30 69 1 66 31
M  V30 70 1 67 31
M  V30 71 1 13 68 CFG=1
M  V30 72 1 19 69 CFG=3
M  V30 END BOND
M  V30 END CTAB
M  END
>  <i_epik_Tot_Q>  (1) 
2

>  <i_epik_Tot_abs_Q>  (1) 
2

>  <i_i_glide_confnum>  (1) 
455

>  <i_i_glide_lignum>  (1) 
111

>  <i_i_glide_posenum>  (1) 
287

>  <i_i_glide_rotatable_bonds>  (1) 
8

>  <i_lp_mmshare_version>  (1) 
72125

>  <i_m_source_file_index>  (1) 
40

>  <i_f3d_flags>  (1) 
0

>  <num_sample>  (1) 
50

>  <b_lp_Chiralities_Consistent>  (1) 
1

>  <r_epik_Charging_Adjusted_Penalty>  (1) 
1.743801429740254

>  <r_epik_Ionization_Penalty>  (1) 
1.6051069046209219

>  <r_epik_Ionization_Penalty_Charging>  (1) 
0.6098477401054202

>  <r_epik_Ionization_Penalty_Neutral>  (1) 
0.99525916451550167

>  <r_epik_State_Penalty>  (1) 
1.1339536896348337

>  <r_glide_ring_energy>  (1) 
0

>  <r_i_docking_score>  (1) 
-4.3079743430569808

>  <r_i_glide_ecoul>  (1) 
-9.3999234697837526

>  <r_i_glide_eff_state_penalty>  (1) 
1.1339536896348337

>  <r_i_glide_einternal>  (1) 
6.035477044308883

>  <r_i_glide_emodel>  (1) 
-38.622000576654308

>  <r_i_glide_emodel_strain>  (1) 
2.6800850120240085

>  <r_i_glide_energy>  (1) 
-32.404646491117489

>  <r_i_glide_erotb>  (1) 
0.49785121930328097

>  <r_i_glide_esite>  (1) 
-0.22746300173864342

>  <r_i_glide_evdw>  (1) 
-23.004723021333739

>  <r_i_glide_gscore>  (1) 
-5.4419280326918145

>  <r_i_glide_gscore_strain>  (1) 
0

>  <r_i_glide_hbond>  (1) 
-0.33173453169610839

>  <r_i_glide_ligand_efficiency>  (1) 
-0.13896691429216068

>  <r_i_glide_ligand_efficiency_ln>  (1) 
-0.97158023791753423

>  <r_i_glide_ligand_efficiency_sa>  (1) 
-0.43654797587992655

>  <r_i_glide_lipo>  (1) 
-1.283306400270936

>  <r_i_glide_metal>  (1) 
-0

>  <r_i_glide_rewards>  (1) 
-1.537050646755157

>  <r_lp_Energy>  (1) 
49.421470999999997

>  <r_lp_tautomer_probability>  (1) 
0.99995000000000001

>  <s_epik_Chemistry_Notes>  (1) 
This compound contains an acetal/aminal-like group ( X-CH(R)-Y where X, Y are N, S, or O) that may be acid/base labile, releasing an aldehyde.

>  <s_epik_cmdline>  (1) 
J2VwaWtfcHl0aG9uJywgJy1waHQnLCAnMS4wJywgJy1waCcsICc3LjQnLCAnLXRuJywgJzgnLCAnLW1hJywgJzUwMCcsICctaW1hZScsICc8aW5maWxlLm1hZT4nLCAnLW9tYWUnLCAnPG91dGZpbGUubWFlPic=

>  <s_epik_input>  (1) 
RkMxKEYpW0NIMl1PW0NASF0oW09IXSlbQ0BIXShDMT1PKVtDSDJdW0NIMl1OKFtDSDJdMilbQ0gyXVtDSDJdW0NASF0oW0NAQEhdMjMpW0NIMl1bQ0BIXShbT0hdKU4oW0NIMl0zKVtDQEBIXTRbQ0gyXVtDSDJdW0NIMl1bQ0BASF0oW0NIMl00KVtDSDJdW09IXQ==

>  <s_glide_docking_method>  (1) 
confgen

>  <s_i_glide_gridfile>  (1) 
gpcr_drd2_6luq_protein_autoprepared_prepared

>  <s_lp_Force_Field>  (1) 
S-OPLS

>  <s_lp_Variant>  (1) 
DiffSBDD_39-7

>  <s_m_source_file>  (1) 
generated_generic_title2_ligand_DiffSBDD_2026-06-23_prepared.sdf

>  <GenAI_Model>  (1) 
DiffSBDD

>  <Protein>  (1) 
generic_title2

$$$$
DiffSBDD_0
     RDKit          3D

  0  0  0  0  0  0  0  0  0  0999 V3000
M  V30 BEGIN CTAB
M  V30 COUNTS 70 74 0 0 1
M  V30 BEGIN ATOM
M  V30 1 C 10.156377 7.132449 -5.960151 0
M  V30 2 N 8.170206 4.500387 -13.705305 0
M  V30 3 C 6.827606 4.986537 -17.723229 0 CFG=1
M  V30 4 C 9.452236 5.368508 -11.808959 0
M  V30 5 F 12.175520 8.904705 -7.045688 0
M  V30 6 C 7.432357 5.735799 -13.995375 0
M  V30 7 C 8.980644 7.617819 -6.821444 0
M  V30 8 C 9.490555 7.656923 -11.002318 0
M  V30 9 C 10.596087 8.322175 -8.685481 0 CFG=1
M  V30 10 C 9.198079 4.845628 -18.852390 0
M  V30 11 C 7.874487 3.362546 -14.567725 0 CFG=2
M  V30 12 C 5.816778 0.721954 -13.585279 0
M  V30 13 C 7.713086 4.655009 -18.917280 0 CFG=1
M  V30 14 O 8.904881 6.630480 -11.827994 0
M  V30 15 C 11.762634 7.869330 -7.777772 0 CFG=2
M  V30 16 C 6.975456 3.560425 -18.163307 0 CFG=1
M  V30 17 N 7.515160 5.100284 -16.409751 0 CFG=2 CHG=1
M  V30 18 C 10.239926 7.223226 -9.715849 0
M  V30 19 C 6.422270 2.079684 -13.206268 0
M  V30 20 C 8.089079 3.776537 -16.043037 0 CFG=2
M  V30 21 O 5.775422 -0.120898 -12.456676 0
M  V30 22 C 9.406474 8.731335 -7.791390 0
M  V30 23 N 9.774727 5.990164 -18.385145 0
M  V30 24 C 6.687268 5.715096 -15.345373 0
M  V30 25 N 10.036524 3.890536 -19.255680 0
M  V30 26 O 11.309188 4.447966 -19.046526 0
M  V30 27 C 11.047810 5.672560 -18.550117 0
M  V30 28 O 6.588201 2.861811 -14.385025 0
M  V30 29 N 12.167196 6.441002 -18.274767 0
M  V30 30 C 9.104452 4.398885 -12.676837 0
M  V30 31 C 11.346287 6.716231 -6.838691 0
M  V30 32 C 13.582082 6.161338 -18.425177 0
M  V30 33 C 7.585949 2.738733 -17.059687 0
M  V30 34 H 10.462809 7.927422 -5.279581 0
M  V30 35 H 9.839905 6.296941 -5.335228 0
M  V30 36 H 5.881741 5.511893 -17.847558 0
M  V30 37 H 10.175391 5.236014 -11.036254 0
M  V30 38 H 6.740352 5.954856 -13.180940 0
M  V30 39 H 8.150012 6.554404 -14.038760 0
M  V30 40 H 8.175415 7.990149 -6.191926 0
M  V30 41 H 8.574058 6.772165 -7.372388 0
M  V30 42 H 10.175361 8.224434 -11.629953 0
M  V30 43 H 8.689926 8.354527 -10.761240 0
M  V30 44 H 10.932378 9.197972 -9.241238 0
M  V30 45 H 8.575283 2.558511 -14.336183 0
M  V30 46 H 6.421292 0.238338 -14.353748 0
M  V30 47 H 4.809303 0.834634 -13.984872 0
M  V30 48 H 7.341550 4.922485 -19.904295 0
M  V30 49 H 12.625918 7.590249 -8.380672 0
M  V30 50 H 6.148219 3.092552 -18.694353 0
M  V30 51 H 9.678406 6.428168 -9.228635 0
M  V30 52 H 11.185273 6.790232 -10.032447 0
M  V30 53 H 5.776099 2.619233 -12.514792 0
M  V30 54 H 7.365306 1.912820 -12.684619 0
M  V30 55 H 9.166598 3.888818 -16.174157 0
M  V30 56 H 5.455056 -0.976591 -12.744080 0
M  V30 57 H 9.679775 9.590202 -7.184460 0
M  V30 58 H 8.575411 9.067900 -8.402519 0
M  V30 59 H 5.760118 5.152239 -15.240987 0
M  V30 60 H 6.404107 6.728394 -15.633073 0
M  V30 61 H 11.968979 7.363189 -17.912783 0
M  V30 62 H 9.562940 3.421768 -12.617067 0
M  V30 63 H 12.175413 6.390490 -6.213141 0
M  V30 64 H 11.070918 5.839012 -7.425238 0
M  V30 65 H 14.173423 6.965529 -17.986896 0
M  V30 66 H 13.842621 5.228501 -17.924898 0
M  V30 67 H 13.842783 6.074352 -19.480415 0
M  V30 68 H 6.817359 2.081272 -16.652611 0
M  V30 69 H 8.391160 2.110950 -17.443877 0
M  V30 70 H 8.302715 5.721068 -16.544149 0
M  V30 END ATOM
M  V30 BEGIN BOND
M  V30 1 1 6 2
M  V30 2 1 7 1
M  V30 3 1 11 2
M  V30 4 1 13 3
M  V30 5 1 13 10
M  V30 6 1 14 4
M  V30 7 1 14 8
M  V30 8 1 15 5
M  V30 9 1 15 9
M  V30 10 1 16 3
M  V30 11 1 16 13
M  V30 12 1 17 3
M  V30 13 1 18 8
M  V30 14 1 18 9
M  V30 15 1 19 12
M  V30 16 1 20 11
M  V30 17 1 20 17
M  V30 18 1 21 12
M  V30 19 1 22 7
M  V30 20 1 22 9
M  V30 21 1 23 10
M  V30 22 1 24 6
M  V30 23 1 24 17
M  V30 24 2 25 10
M  V30 25 1 26 25
M  V30 26 2 27 23
M  V30 27 1 27 26
M  V30 28 1 28 11
M  V30 29 1 28 19
M  V30 30 1 29 27
M  V30 31 1 30 2
M  V30 32 2 30 4
M  V30 33 1 31 1
M  V30 34 1 31 15
M  V30 35 1 32 29
M  V30 36 1 33 16
M  V30 37 1 33 20
M  V30 38 1 34 1
M  V30 39 1 35 1
M  V30 40 1 3 36 CFG=3
M  V30 41 1 37 4
M  V30 42 1 38 6
M  V30 43 1 39 6
M  V30 44 1 40 7
M  V30 45 1 41 7
M  V30 46 1 42 8
M  V30 47 1 43 8
M  V30 48 1 9 44 CFG=3
M  V30 49 1 11 45 CFG=1
M  V30 50 1 46 12
M  V30 51 1 47 12
M  V30 52 1 13 48 CFG=3
M  V30 53 1 15 49 CFG=3
M  V30 54 1 16 50 CFG=3
M  V30 55 1 51 18
M  V30 56 1 52 18
M  V30 57 1 53 19
M  V30 58 1 54 19
M  V30 59 1 20 55 CFG=1
M  V30 60 1 56 21
M  V30 61 1 57 22
M  V30 62 1 58 22
M  V30 63 1 59 24
M  V30 64 1 60 24
M  V30 65 1 61 29
M  V30 66 1 62 30
M  V30 67 1 63 31
M  V30 68 1 64 31
M  V30 69 1 65 32
M  V30 70 1 66 32
M  V30 71 1 67 32
M  V30 72 1 68 33
M  V30 73 1 69 33
M  V30 74 1 17 70 CFG=3
M  V30 END BOND
M  V30 END CTAB
M  END
>  <i_epik_Tot_Q>  (1) 
1

>  <i_epik_Tot_abs_Q>  (1) 
1

>  <i_i_glide_confnum>  (1) 
54

>  <i_i_glide_lignum>  (1) 
3

>  <i_i_glide_posenum>  (1) 
227

>  <i_i_glide_rotatable_bonds>  (1) 
11

>  <i_lp_mmshare_version>  (1) 
72125

>  <i_m_source_file_index>  (1) 
1

>  <i_f3d_flags>  (1) 
0

>  <num_sample>  (1) 
50

>  <b_lp_Chiralities_Consistent>  (1) 
1

>  <r_epik_Charging_Adjusted_Penalty>  (1) 
0.41344222577729461

>  <r_epik_Ionization_Penalty>  (1) 
0.0027644559619576371

>  <r_epik_Ionization_Penalty_Charging>  (1) 
0.0027623868246906495

>  <r_epik_Ionization_Penalty_Neutral>  (1) 
2.0691372669875143e-06

>  <r_epik_State_Penalty>  (1) 
0.41067983895260396

>  <r_glide_ring_energy>  (1) 
1.2880141380397463

>  <r_i_docking_score>  (1) 
-4.3062897729975109

>  <r_i_glide_ecoul>  (1) 
-3.5475749546129274

>  <r_i_glide_eff_state_penalty>  (1) 
0.41067983895260396

>  <r_i_glide_einternal>  (1) 
8.137225072005732

>  <r_i_glide_emodel>  (1) 
-39.517696777256965

>  <r_i_glide_emodel_strain>  (1) 
1.5990561804151184

>  <r_i_glide_energy>  (1) 
-34.214339960711847

>  <r_i_glide_erotb>  (1) 
0.74142510397790429

>  <r_i_glide_esite>  (1) 
0

>  <r_i_glide_evdw>  (1) 
-30.666765006098917

>  <r_i_glide_gscore>  (1) 
-4.7169696119501152

>  <r_i_glide_gscore_strain>  (1) 
0

>  <r_i_glide_hbond>  (1) 
-0.16

>  <r_i_glide_ligand_efficiency>  (1) 
-0.13049362948477305

>  <r_i_glide_ligand_efficiency_ln>  (1) 
-0.95769654873949961

>  <r_i_glide_ligand_efficiency_sa>  (1) 
-0.41856279641816518

>  <r_i_glide_lipo>  (1) 
-1.8586731595303463

>  <r_i_glide_metal>  (1) 
-0

>  <r_i_glide_rewards>  (1) 
-1.374247062900789

>  <r_lp_Energy>  (1) 
41.293589999999995

>  <r_lp_tautomer_probability>  (1) 
0.5

>  <s_epik_Chemistry_Notes>  (1) 
This compound has an imine and may undergo hydrolysis. This compound contains an acetal/aminal-like group ( X-CH(R)-Y where X, Y are N, S, or O) that may be acid/base labile, releasing an aldehyde.

>  <s_epik_cmdline>  (1) 
J2VwaWtfcHl0aG9uJywgJy1waHQnLCAnMS4wJywgJy1waCcsICc3LjQnLCAnLXRuJywgJzgnLCAnLW1hJywgJzUwMCcsICctaW1hZScsICc8aW5maWxlLm1hZT4nLCAnLW9tYWUnLCAnPG91dGZpbGUubWFlPic=

>  <s_epik_input>  (1) 
W0NIMl0xW0NIMl1bQ0gyXVtDSDJdW0NASF0oRilbQ0BIXTFbQ0gyXVtDSDJdTy9bQ0hdPVtDSF1cTihbQ0BIXTJPW0NIMl1bQ0gyXVtPSF0pW0NIMl1bQ0gyXU4zW0NAQEhdMltDSDJdW0NAQEhdKFtDQEBIXTM0KVtDQEBIXTRjNW5jKG9uNSlbTkhdW0NIM10=

>  <s_glide_docking_method>  (1) 
confgen

>  <s_i_glide_gridfile>  (1) 
gpcr_drd2_6luq_protein_autoprepared_prepared

>  <s_lp_Force_Field>  (1) 
S-OPLS

>  <s_lp_Variant>  (1) 
DiffSBDD_0-3

>  <s_m_source_file>  (1) 
generated_generic_title2_ligand_DiffSBDD_2026-06-23_prepared.sdf

>  <GenAI_Model>  (1) 
DiffSBDD

>  <Protein>  (1) 
generic_title2

$$$$
DiffSBDD_16
     RDKit          3D

  0  0  0  0  0  0  0  0  0  0999 V3000
M  V30 BEGIN CTAB
M  V30 COUNTS 41 43 0 0 1
M  V30 BEGIN ATOM
M  V30 1 O 11.310488 6.815072 -4.838984 0
M  V30 2 O 12.009614 9.657965 -5.567350 0
M  V30 3 C 6.038211 4.764055 -13.114929 0
M  V30 4 C 10.160971 6.797337 -9.429796 0 CFG=1
M  V30 5 C 6.910814 6.825861 -14.301881 0
M  V30 6 S 11.629218 8.783531 -8.098154 0
M  V30 7 F 4.981029 3.990172 -12.831673 0
M  V30 8 C 7.667383 7.449872 -13.118912 0
M  V30 9 C 10.536897 7.424766 -8.093671 0
M  V30 10 C 11.462526 8.812998 -6.274145 0
M  V30 11 C 5.836073 5.842731 -13.888413 0
M  V30 12 C 9.205292 5.585023 -9.338158 0
M  V30 13 C 9.933568 7.241296 -11.938343 0
M  V30 14 C 9.019739 4.791393 -10.651378 0
M  V30 15 C 10.119368 7.001613 -6.914941 0
M  V30 16 C 10.576530 7.688094 -5.676384 0 CFG=1
M  V30 17 C 8.049582 5.435891 -11.649707 0 CFG=2
M  V30 18 C 7.386581 4.364452 -12.547169 0
M  V30 19 C 8.724343 6.498906 -12.537429 0 CFG=1
M  V30 20 C 9.777197 7.813931 -10.527442 0
M  V30 21 H 11.851117 6.260752 -5.380635 0
M  V30 22 H 11.120521 6.390230 -9.685344 0
M  V30 23 H 6.414465 7.624928 -14.853355 0
M  V30 24 H 7.592056 6.352326 -15.009517 0
M  V30 25 H 8.148654 8.354576 -13.477361 0
M  V30 26 H 6.978033 7.790405 -12.344639 0
M  V30 27 H 4.846838 6.040021 -14.253095 0
M  V30 28 H 9.613364 4.878900 -8.613077 0
M  V30 29 H 8.237385 5.899420 -8.942767 0
M  V30 30 H 10.175281 8.059901 -12.608837 0
M  V30 31 H 10.816425 6.601813 -11.977383 0
M  V30 32 H 9.970955 4.553299 -11.125618 0
M  V30 33 H 8.607430 3.831289 -10.385017 0
M  V30 34 H 9.448102 6.162542 -6.814723 0
M  V30 35 H 9.725393 8.120946 -5.185043 0
M  V30 36 H 7.262450 5.903443 -11.053440 0
M  V30 37 H 7.200210 3.451996 -11.984721 0
M  V30 38 H 8.047888 4.062249 -13.359784 0
M  V30 39 H 9.178140 5.982599 -13.384251 0
M  V30 40 H 10.448486 8.667140 -10.480017 0
M  V30 41 H 8.785830 8.231888 -10.386192 0
M  V30 END ATOM
M  V30 BEGIN BOND
M  V30 1 1 7 3
M  V30 2 1 8 5
M  V30 3 1 9 4
M  V30 4 1 9 6
M  V30 5 2 10 2
M  V30 6 1 10 6
M  V30 7 2 11 3
M  V30 8 1 11 5
M  V30 9 1 12 4
M  V30 10 1 14 12
M  V30 11 2 15 9
M  V30 12 1 16 1
M  V30 13 1 16 10
M  V30 14 1 16 15
M  V30 15 1 17 14
M  V30 16 1 18 3
M  V30 17 1 18 17
M  V30 18 1 19 8
M  V30 19 1 19 13
M  V30 20 1 19 17
M  V30 21 1 20 4
M  V30 22 1 20 13
M  V30 23 1 21 1
M  V30 24 1 4 22 CFG=3
M  V30 25 1 23 5
M  V30 26 1 24 5
M  V30 27 1 25 8
M  V30 28 1 26 8
M  V30 29 1 27 11
M  V30 30 1 28 12
M  V30 31 1 29 12
M  V30 32 1 30 13
M  V30 33 1 31 13
M  V30 34 1 32 14
M  V30 35 1 33 14
M  V30 36 1 34 15
M  V30 37 1 16 35 CFG=1
M  V30 38 1 17 36 CFG=1
M  V30 39 1 37 18
M  V30 40 1 38 18
M  V30 41 1 19 39 CFG=3
M  V30 42 1 40 20
M  V30 43 1 41 20
M  V30 END BOND
M  V30 END CTAB
M  END
>  <i_epik_Tot_Q>  (1) 
0

>  <i_epik_Tot_abs_Q>  (1) 
0

>  <i_i_glide_confnum>  (1) 
2

>  <i_i_glide_lignum>  (1) 
59

>  <i_i_glide_posenum>  (1) 
344

>  <i_i_glide_rotatable_bonds>  (1) 
2

>  <i_lp_mmshare_version>  (1) 
72125

>  <i_m_source_file_index>  (1) 
17

>  <i_f3d_flags>  (1) 
0

>  <num_sample>  (1) 
50

>  <b_lp_Chiralities_Consistent>  (1) 
1

>  <r_epik_Charging_Adjusted_Penalty>  (1) 
0.89600900946001893

>  <r_epik_Ionization_Penalty>  (1) 
0.89600900946003292

>  <r_epik_Ionization_Penalty_Charging>  (1) 
0

>  <r_epik_Ionization_Penalty_Neutral>  (1) 
0.89600900946003292

>  <r_epik_State_Penalty>  (1) 
0.89600900946001893

>  <r_glide_ring_energy>  (1) 
0

>  <r_i_docking_score>  (1) 
-4.3059675546873093

>  <r_i_glide_ecoul>  (1) 
-0.67425645739016216

>  <r_i_glide_eff_state_penalty>  (1) 
0.89600900946001893

>  <r_i_glide_einternal>  (1) 
1.0193608952186433

>  <r_i_glide_emodel>  (1) 
-37.845927852478425

>  <r_i_glide_emodel_strain>  (1) 
1.0729979260827562

>  <r_i_glide_energy>  (1) 
-30.085701971500601

>  <r_i_glide_erotb>  (1) 
0.20851456216113889

>  <r_i_glide_esite>  (1) 
0

>  <r_i_glide_evdw>  (1) 
-29.41144551411044

>  <r_i_glide_gscore>  (1) 
-5.2019765641473281

>  <r_i_glide_gscore_strain>  (1) 
0

>  <r_i_glide_hbond>  (1) 
0

>  <r_i_glide_ligand_efficiency>  (1) 
-0.21529837773436547

>  <r_i_glide_ligand_efficiency_ln>  (1) 
-1.0776416586232842

>  <r_i_glide_ligand_efficiency_sa>  (1) 
-0.58440970934646619

>  <r_i_glide_lipo>  (1) 
-1.1534983514611288

>  <r_i_glide_metal>  (1) 
-0

>  <r_i_glide_rewards>  (1) 
-2.685282030533291

>  <r_lp_Energy>  (1) 
22.466232999999999

>  <s_epik_cmdline>  (1) 
J2VwaWtfcHl0aG9uJywgJy1waHQnLCAnMS4wJywgJy1waCcsICc3LjQnLCAnLXRuJywgJzgnLCAnLW1hJywgJzUwMCcsICctaW1hZScsICc8aW5maWxlLm1hZT4nLCAnLW9tYWUnLCAnPG91dGZpbGUubWFlPic=

>  <s_epik_input>  (1) 
Tz1DKFMxKVtDQEhdKFtPSF0pW0NIXT1DMVtDQEBIXShbQ0gyXVtDSDJdMilbQ0gyXVtDSDJdW0NAQEhdKFtDQEhdMjMpW0NIMl1bQ0gyXVtDSF09QyhGKVtDSDJdMw==

>  <s_glide_docking_method>  (1) 
confgen

>  <s_i_glide_gridfile>  (1) 
gpcr_drd2_6luq_protein_autoprepared_prepared

>  <s_lp_Force_Field>  (1) 
S-OPLS

>  <s_lp_Variant>  (1) 
DiffSBDD_16-2

>  <s_m_source_file>  (1) 
generated_generic_title2_ligand_DiffSBDD_2026-06-23_prepared.sdf

>  <GenAI_Model>  (1) 
DiffSBDD

>  <Protein>  (1) 
generic_title2

$$$$
DiffSBDD_30
     RDKit          3D

  0  0  0  0  0  0  0  0  0  0999 V3000
M  V30 BEGIN CTAB
M  V30 COUNTS 45 45 0 0 1
M  V30 BEGIN ATOM
M  V30 1 C 8.089636 6.680972 -12.322704 0
M  V30 2 N 7.346657 6.087289 -19.220120 0 CHG=-1
M  V30 3 C 9.738400 7.295414 -6.924798 0
M  V30 4 O 6.294554 5.980316 -15.707164 0
M  V30 5 C 6.650286 6.827631 -20.234626 0
M  V30 6 C 9.923139 7.922022 -8.333973 0
M  V30 7 O 8.975408 5.990271 -9.463715 0
M  V30 8 F 11.075833 8.590638 -8.277618 0
M  V30 9 N 8.575420 6.390096 -6.784995 0 CHG=1
M  V30 10 C 6.529019 6.172269 -18.132647 0
M  V30 11 C 6.727458 7.006822 -12.954947 0 CFG=2
M  V30 12 C 5.423673 7.279191 -19.462220 0
M  V30 13 C 8.836896 7.897530 -11.713882 0
M  V30 14 C 10.033705 6.924102 -9.520643 0 CFG=1
M  V30 15 F 6.306849 6.038856 -21.253457 0
M  V30 16 F 7.370403 7.872225 -20.643695 0
M  V30 17 C 6.972075 5.480331 -16.853229 0
M  V30 18 O 4.566894 7.990515 -19.984724 0
M  V30 19 N 6.661954 5.145228 -14.595540 0
M  V30 20 F 8.975410 8.821211 -8.549048 0
M  V30 21 O 5.879914 7.590292 -11.985025 0
M  V30 22 C 6.000737 5.742271 -13.449004 0
M  V30 23 O 10.972664 6.800550 -11.787070 0
M  V30 24 N 5.427563 6.804904 -18.173840 0
M  V30 25 C 10.139843 7.569218 -10.938113 0 CFG=1
M  V30 26 H 7.923382 5.894898 -11.593868 0
M  V30 27 H 8.720312 6.230360 -13.089535 0
M  V30 28 H 10.628580 6.718139 -6.672504 0
M  V30 29 H 9.656387 8.082242 -6.174144 0
M  V30 30 H 8.166352 6.491570 -9.585257 0
M  V30 31 H 8.579390 5.973345 -5.865614 0
M  V30 32 H 8.667035 5.673097 -7.494682 0
M  V30 33 H 6.858441 7.708242 -13.779086 0
M  V30 34 H 9.097402 8.562043 -12.535309 0
M  V30 35 H 8.175608 8.498838 -11.096177 0
M  V30 36 H 10.961379 6.389897 -9.331133 0
M  V30 37 H 8.047127 5.618360 -16.725555 0
M  V30 38 H 6.797451 4.410697 -16.973971 0
M  V30 39 H 6.229274 4.254643 -14.797807 0
M  V30 40 H 6.301251 7.590198 -11.124181 0
M  V30 41 H 5.948503 5.006477 -12.645890 0
M  V30 42 H 4.974522 5.977345 -13.724815 0
M  V30 43 H 10.504706 6.018603 -12.043223 0
M  V30 44 H 10.681590 8.501522 -10.789600 0
M  V30 45 H 7.652469 6.830573 -6.936429 0
M  V30 END ATOM
M  V30 BEGIN BOND
M  V30 1 1 5 2
M  V30 2 1 6 3
M  V30 3 1 8 6
M  V30 4 1 9 3
M  V30 5 1 10 2
M  V30 6 1 11 1
M  V30 7 1 12 5
M  V30 8 1 13 1
M  V30 9 1 14 6
M  V30 10 1 14 7
M  V30 11 1 15 5
M  V30 12 1 16 5
M  V30 13 1 17 4
M  V30 14 1 17 10
M  V30 15 2 18 12
M  V30 16 1 19 4
M  V30 17 1 20 6
M  V30 18 1 21 11
M  V30 19 1 22 11
M  V30 20 1 22 19
M  V30 21 2 24 10
M  V30 22 1 24 12
M  V30 23 1 25 13
M  V30 24 1 25 14
M  V30 25 1 25 23
M  V30 26 1 26 1
M  V30 27 1 27 1
M  V30 28 1 28 3
M  V30 29 1 29 3
M  V30 30 1 30 7
M  V30 31 1 31 9
M  V30 32 1 32 9
M  V30 33 1 11 33 CFG=3
M  V30 34 1 34 13
M  V30 35 1 35 13
M  V30 36 1 14 36 CFG=1
M  V30 37 1 37 17
M  V30 38 1 38 17
M  V30 39 1 39 19
M  V30 40 1 40 21
M  V30 41 1 41 22
M  V30 42 1 42 22
M  V30 43 1 43 23
M  V30 44 1 25 44 CFG=1
M  V30 45 1 45 9
M  V30 END BOND
M  V30 END CTAB
M  END
>  <i_epik_Tot_Q>  (1) 
0

>  <i_epik_Tot_abs_Q>  (1) 
2

>  <i_i_glide_confnum>  (1) 
1498

>  <i_i_glide_lignum>  (1) 
91

>  <i_i_glide_posenum>  (1) 
353

>  <i_i_glide_rotatable_bonds>  (1) 
14

>  <i_lp_mmshare_version>  (1) 
72125

>  <i_m_source_file_index>  (1) 
31

>  <i_f3d_flags>  (1) 
0

>  <num_sample>  (1) 
50

>  <b_lp_Chiralities_Consistent>  (1) 
1

>  <r_epik_Charging_Adjusted_Penalty>  (1) 
1.1033345343036571

>  <r_epik_Ionization_Penalty>  (1) 
0.55249664061947246

>  <r_epik_Ionization_Penalty_Charging>  (1) 
0.55167603061160131

>  <r_epik_Ionization_Penalty_Neutral>  (1) 
0.00082061000787111938

>  <r_epik_State_Penalty>  (1) 
0.55165850369205582

>  <r_glide_ring_energy>  (1) 
0

>  <r_i_docking_score>  (1) 
-4.3027330934668093

>  <r_i_glide_ecoul>  (1) 
-13.630615916536813

>  <r_i_glide_eff_state_penalty>  (1) 
0.55165850369205582

>  <r_i_glide_einternal>  (1) 
9.7664470437485029

>  <r_i_glide_emodel>  (1) 
-46.813513802538097

>  <r_i_glide_emodel_strain>  (1) 
1.8732998180008096

>  <r_i_glide_energy>  (1) 
-37.640225193699479

>  <r_i_glide_erotb>  (1) 
1.2301891588113794

>  <r_i_glide_esite>  (1) 
-0.18295657490747128

>  <r_i_glide_evdw>  (1) 
-24.009609277162664

>  <r_i_glide_gscore>  (1) 
-4.8543915971588651

>  <r_i_glide_gscore_strain>  (1) 
0

>  <r_i_glide_hbond>  (1) 
-0.504

>  <r_i_glide_ligand_efficiency>  (1) 
-0.17210932373867238

>  <r_i_glide_ligand_efficiency_ln>  (1) 
-1.0198766856574235

>  <r_i_glide_ligand_efficiency_sa>  (1) 
-0.50325071552369871

>  <r_i_glide_lipo>  (1) 
-0.31628533216313542

>  <r_i_glide_metal>  (1) 
-0

>  <r_i_glide_rewards>  (1) 
-1.8362659975609827

>  <r_lp_Energy>  (1) 
22.548693

>  <s_epik_Chemistry_Notes>  (1) 
This compound has an imine and may undergo hydrolysis. This compound has a N-S or N-O group and may undergo hydrolysis at high or low pH.

>  <s_epik_cmdline>  (1) 
J2VwaWtfcHl0aG9uJywgJy1waHQnLCAnMS4wJywgJy1waCcsICc3LjQnLCAnLXRuJywgJzgnLCAnLW1hJywgJzUwMCcsICctaW1hZScsICc8aW5maWxlLm1hZT4nLCAnLW9tYWUnLCAnPG91dGZpbGUubWFlPic=

>  <s_epik_input>  (1) 
W05IMl1bQ0gyXUMoRikoRilbQ0BASF0oW09IXSlbQ0BASF0oW09IXSlbQ0gyXVtDSDJdW0NASF0oW09IXSlbQ0gyXVtOSF1PW0NIMl1DKD1OQzEoRilGKVtOSF1DMT1P

>  <s_glide_docking_method>  (1) 
confgen

>  <s_i_glide_gridfile>  (1) 
gpcr_drd2_6luq_protein_autoprepared_prepared

>  <s_lp_Force_Field>  (1) 
S-OPLS

>  <s_lp_Variant>  (1) 
DiffSBDD_30-3

>  <s_m_source_file>  (1) 
generated_generic_title2_ligand_DiffSBDD_2026-06-23_prepared.sdf

>  <GenAI_Model>  (1) 
DiffSBDD

>  <Protein>  (1) 
generic_title2

$$$$
DiffSBDD_0
     RDKit          3D

  0  0  0  0  0  0  0  0  0  0999 V3000
M  V30 BEGIN CTAB
M  V30 COUNTS 70 74 0 0 1
M  V30 BEGIN ATOM
M  V30 1 C 10.111279 6.932232 -6.067066 0
M  V30 2 N 7.449294 5.002726 -14.262279 0
M  V30 3 C 7.739752 5.063480 -18.425054 0 CFG=1
M  V30 4 C 8.713990 6.302632 -12.631487 0
M  V30 5 F 12.975404 7.990227 -8.179426 0
M  V30 6 C 6.733747 6.140188 -14.844264 0
M  V30 7 C 8.993002 7.375030 -7.011892 0
M  V30 8 C 9.740349 7.588833 -10.953449 0
M  V30 9 C 10.703643 8.391081 -8.633707 0 CFG=1
M  V30 10 C 10.303318 4.490104 -18.390074 0
M  V30 11 C 7.270497 3.748871 -14.983537 0 CFG=1
M  V30 12 C 6.795870 0.526271 -13.508698 0
M  V30 13 C 8.974353 4.467599 -19.088329 0 CFG=1
M  V30 14 O 9.692006 6.368946 -11.680927 0
M  V30 15 C 11.785741 8.055687 -7.585953 0 CFG=1
M  V30 16 C 7.801758 3.585866 -18.664525 0 CFG=1
M  V30 17 N 7.817586 5.253239 -16.952322 0 CFG=2 CHG=1
M  V30 18 C 10.641876 7.313929 -9.745037 0
M  V30 19 C 6.828689 2.057871 -13.374787 0
M  V30 20 C 8.039458 3.924947 -16.302965 0 CFG=2
M  V30 21 O 5.775414 -0.009772 -12.691082 0
M  V30 22 C 9.381556 8.591395 -7.866588 0
M  V30 23 N 10.772625 5.590234 -17.729648 0
M  V30 24 C 6.680643 6.038805 -16.390569 0
M  V30 25 N 11.093298 3.416210 -18.372159 0
M  V30 26 O 12.202246 3.824552 -17.611283 0
M  V30 27 C 11.920381 5.101957 -17.287960 0
M  V30 28 O 7.718025 2.589622 -14.352192 0
M  V30 29 N 12.884411 5.735155 -16.520734 0
M  V30 30 C 8.420706 5.155958 -13.272050 0
M  V30 31 C 11.432996 6.761247 -6.810990 0
M  V30 32 C 14.150388 5.262253 -15.990535 0
M  V30 33 C 7.714300 2.854396 -17.348719 0
M  V30 34 H 10.235321 7.677207 -5.280464 0
M  V30 35 H 9.832065 6.004188 -5.568168 0
M  V30 36 H 7.049741 5.693523 -18.983378 0
M  V30 37 H 8.227042 7.252150 -12.798821 0
M  V30 38 H 5.729863 6.205097 -14.423446 0
M  V30 39 H 7.233227 7.076545 -14.604393 0
M  V30 40 H 8.159937 7.656693 -6.385023 0
M  V30 41 H 8.663100 6.547892 -7.641615 0
M  V30 42 H 10.145387 8.390011 -11.570784 0
M  V30 43 H 8.740887 7.884581 -10.647095 0
M  V30 44 H 10.973472 9.333562 -9.111144 0
M  V30 45 H 6.204340 3.647469 -15.185029 0
M  V30 46 H 7.758612 0.090050 -13.239848 0
M  V30 47 H 6.587826 0.244110 -14.541600 0
M  V30 48 H 9.106943 4.645795 -20.153885 0
M  V30 49 H 11.874666 8.882408 -6.879670 0
M  V30 50 H 7.207123 3.166689 -19.473992 0
M  V30 51 H 10.329930 6.360461 -9.322314 0
M  V30 52 H 11.650731 7.166422 -10.129212 0
M  V30 53 H 5.814300 2.443598 -13.490749 0
M  V30 54 H 7.165657 2.361363 -12.385033 0
M  V30 55 H 9.100285 3.870198 -16.055760 0
M  V30 56 H 5.586648 -0.908465 -12.963191 0
M  V30 57 H 9.492237 9.428054 -7.185018 0
M  V30 58 H 8.575528 8.885311 -8.532412 0
M  V30 59 H 5.749284 5.554844 -16.681511 0
M  V30 60 H 6.642619 7.034220 -16.834568 0
M  V30 61 H 12.670086 6.691160 -16.278697 0
M  V30 62 H 8.950977 4.241785 -13.046038 0
M  V30 63 H 12.175410 6.489695 -6.072958 0
M  V30 64 H 11.375132 5.903480 -7.478634 0
M  V30 65 H 14.497927 5.918398 -15.191998 0
M  V30 66 H 14.045044 4.255146 -15.585072 0
M  V30 67 H 14.905845 5.240794 -16.775852 0
M  V30 68 H 6.703050 2.464272 -17.226213 0
M  V30 69 H 8.410377 2.015819 -17.316708 0
M  V30 70 H 8.652966 5.793267 -16.763317 0
M  V30 END ATOM
M  V30 BEGIN BOND
M  V30 1 1 6 2
M  V30 2 1 7 1
M  V30 3 1 11 2
M  V30 4 1 13 3
M  V30 5 1 13 10
M  V30 6 1 14 4
M  V30 7 1 14 8
M  V30 8 1 15 5
M  V30 9 1 15 9
M  V30 10 1 16 3
M  V30 11 1 16 13
M  V30 12 1 17 3
M  V30 13 1 18 8
M  V30 14 1 18 9
M  V30 15 1 19 12
M  V30 16 1 20 11
M  V30 17 1 20 17
M  V30 18 1 21 12
M  V30 19 1 22 7
M  V30 20 1 22 9
M  V30 21 1 23 10
M  V30 22 1 24 6
M  V30 23 1 24 17
M  V30 24 2 25 10
M  V30 25 1 26 25
M  V30 26 2 27 23
M  V30 27 1 27 26
M  V30 28 1 28 11
M  V30 29 1 28 19
M  V30 30 1 29 27
M  V30 31 1 30 2
M  V30 32 2 30 4
M  V30 33 1 31 1
M  V30 34 1 31 15
M  V30 35 1 32 29
M  V30 36 1 33 16
M  V30 37 1 33 20
M  V30 38 1 34 1
M  V30 39 1 35 1
M  V30 40 1 3 36 CFG=3
M  V30 41 1 37 4
M  V30 42 1 38 6
M  V30 43 1 39 6
M  V30 44 1 40 7
M  V30 45 1 41 7
M  V30 46 1 42 8
M  V30 47 1 43 8
M  V30 48 1 9 44 CFG=3
M  V30 49 1 11 45 CFG=3
M  V30 50 1 46 12
M  V30 51 1 47 12
M  V30 52 1 13 48 CFG=3
M  V30 53 1 15 49 CFG=1
M  V30 54 1 16 50 CFG=3
M  V30 55 1 51 18
M  V30 56 1 52 18
M  V30 57 1 53 19
M  V30 58 1 54 19
M  V30 59 1 20 55 CFG=1
M  V30 60 1 56 21
M  V30 61 1 57 22
M  V30 62 1 58 22
M  V30 63 1 59 24
M  V30 64 1 60 24
M  V30 65 1 61 29
M  V30 66 1 62 30
M  V30 67 1 63 31
M  V30 68 1 64 31
M  V30 69 1 65 32
M  V30 70 1 66 32
M  V30 71 1 67 32
M  V30 72 1 68 33
M  V30 73 1 69 33
M  V30 74 1 17 70 CFG=3
M  V30 END BOND
M  V30 END CTAB
M  END
>  <i_epik_Tot_Q>  (1) 
1

>  <i_epik_Tot_abs_Q>  (1) 
1

>  <i_i_glide_confnum>  (1) 
102

>  <i_i_glide_lignum>  (1) 
13

>  <i_i_glide_posenum>  (1) 
396

>  <i_i_glide_rotatable_bonds>  (1) 
11

>  <i_lp_mmshare_version>  (1) 
72125

>  <i_m_source_file_index>  (1) 
1

>  <i_f3d_flags>  (1) 
0

>  <num_sample>  (1) 
50

>  <b_lp_Chiralities_Consistent>  (1) 
1

>  <r_epik_Charging_Adjusted_Penalty>  (1) 
0.41344222577729461

>  <r_epik_Ionization_Penalty>  (1) 
0.0027644559619576371

>  <r_epik_Ionization_Penalty_Charging>  (1) 
0.0027623868246906495

>  <r_epik_Ionization_Penalty_Neutral>  (1) 
2.0691372669875143e-06

>  <r_epik_State_Penalty>  (1) 
0.41067983895260396

>  <r_glide_ring_energy>  (1) 
1.7395912014422352

>  <r_i_docking_score>  (1) 
-4.3014233697806414

>  <r_i_glide_ecoul>  (1) 
-3.0557016056067701

>  <r_i_glide_eff_state_penalty>  (1) 
0.41067983895260396

>  <r_i_glide_einternal>  (1) 
8.4704446482800559

>  <r_i_glide_emodel>  (1) 
-41.51364845523571

>  <r_i_glide_emodel_strain>  (1) 
1.3293352800370855

>  <r_i_glide_energy>  (1) 
-36.59265329430994

>  <r_i_glide_erotb>  (1) 
0.74142510397790429

>  <r_i_glide_esite>  (1) 
0

>  <r_i_glide_evdw>  (1) 
-33.536951688703169

>  <r_i_glide_gscore>  (1) 
-4.7121032087332457

>  <r_i_glide_gscore_strain>  (1) 
0

>  <r_i_glide_hbond>  (1) 
-0.16

>  <r_i_glide_ligand_efficiency>  (1) 
-0.13034616272062549

>  <r_i_glide_ligand_efficiency_ln>  (1) 
-0.95661428586095509

>  <r_i_glide_ligand_efficiency_sa>  (1) 
-0.41808979170962851

>  <r_i_glide_lipo>  (1) 
-1.8928217303885346

>  <r_i_glide_metal>  (1) 
-0

>  <r_i_glide_rewards>  (1) 
-1.2655037570464411

>  <r_lp_Energy>  (1) 
41.750805999999997

>  <r_lp_tautomer_probability>  (1) 
0.5

>  <s_epik_Chemistry_Notes>  (1) 
This compound has an imine and may undergo hydrolysis. This compound contains an acetal/aminal-like group ( X-CH(R)-Y where X, Y are N, S, or O) that may be acid/base labile, releasing an aldehyde.

>  <s_epik_cmdline>  (1) 
J2VwaWtfcHl0aG9uJywgJy1waHQnLCAnMS4wJywgJy1waCcsICc3LjQnLCAnLXRuJywgJzgnLCAnLW1hJywgJzUwMCcsICctaW1hZScsICc8aW5maWxlLm1hZT4nLCAnLW9tYWUnLCAnPG91dGZpbGUubWFlPic=

>  <s_epik_input>  (1) 
W0NIMl0xW0NIMl1bQ0gyXVtDSDJdW0NASF0oRilbQ0BIXTFbQ0gyXVtDSDJdTy9bQ0hdPVtDSF0vTihbQ0BIXTJPW0NIMl1bQ0gyXVtPSF0pW0NIMl1bQ0gyXU4zW0NAQEhdMltDSDJdW0NAQEhdKFtDQEBIXTM0KVtDQEBIXTRjNW5jKG9uNSlbTkhdW0NIM10=

>  <s_glide_docking_method>  (1) 
confgen

>  <s_i_glide_gridfile>  (1) 
gpcr_drd2_6luq_protein_autoprepared_prepared

>  <s_lp_Force_Field>  (1) 
S-OPLS

>  <s_lp_Variant>  (1) 
DiffSBDD_0-13

>  <s_m_source_file>  (1) 
generated_generic_title2_ligand_DiffSBDD_2026-06-23_prepared.sdf

>  <GenAI_Model>  (1) 
DiffSBDD

>  <Protein>  (1) 
generic_title2

$$$$
DiffSBDD_21
     RDKit          3D

  0  0  0  0  0  0  0  0  0  0999 V3000
M  V30 BEGIN CTAB
M  V30 COUNTS 63 67 0 0 1
M  V30 BEGIN ATOM
M  V30 1 C 10.804518 7.714031 -7.496826 0
M  V30 2 N 11.908604 8.476079 -9.166846 0
M  V30 3 C 8.129864 5.392837 -15.286066 0 CFG=1
M  V30 4 C 6.569800 2.484411 -13.253189 0
M  V30 5 C 10.360096 7.516102 -6.081386 0
M  V30 6 C 6.744194 3.601939 -12.256414 0 CFG=2
M  V30 7 C 9.130458 3.851094 -17.197379 0 CFG=1
M  V30 8 C 7.344189 2.011707 -17.051490 0
M  V30 9 O 6.867543 5.908395 -15.663209 0
M  V30 10 C 10.241141 3.808063 -18.265846 0
M  V30 11 C 10.779586 7.190266 -11.075657 0
M  V30 12 C 10.284123 7.078267 -8.661103 0
M  V30 13 C 7.992022 4.199284 -14.300705 0 CFG=1
M  V30 14 C 9.078169 5.225470 -16.505092 0
M  V30 15 C 7.544355 4.675592 -12.936541 0 CFG=2
M  V30 16 C 9.273953 6.121738 -8.943420 0
M  V30 17 C 9.013450 5.710680 -10.274656 0
M  V30 18 C 7.723750 3.373582 -17.670975 0 CFG=2
M  V30 19 O 8.013274 4.790118 -10.514390 0
M  V30 20 C 7.027810 3.024276 -14.630338 0 CFG=1
M  V30 21 C 7.539512 1.864259 -15.521737 0
M  V30 22 C 8.090729 4.010946 -11.700750 0 CFG=1
M  V30 23 C 11.016009 7.590202 -9.753786 0
M  V30 24 C 6.027567 3.488230 -19.653308 0 CFG=1
M  V30 25 C 9.775338 6.252134 -11.342422 0
M  V30 26 C 5.888452 3.096111 -21.064800 0
M  V30 27 C 7.503276 3.406893 -19.205495 0
M  V30 28 C 5.427298 4.889770 -19.450993 0
M  V30 29 N 5.776915 2.791047 -22.174581 0
M  V30 30 N 11.776789 8.546357 -7.806209 0
M  V30 31 H 8.574397 6.203267 -14.709698 0
M  V30 32 H 7.184555 1.642711 -12.929708 0
M  V30 33 H 5.533695 2.147084 -13.276818 0
M  V30 34 H 10.530615 6.489296 -5.756395 0
M  V30 35 H 9.293514 7.717860 -5.984770 0
M  V30 36 H 10.886931 8.177126 -5.392598 0
M  V30 37 H 5.854366 3.909442 -11.710132 0
M  V30 38 H 9.503602 3.168135 -16.442588 0
M  V30 39 H 7.909734 1.220984 -17.545560 0
M  V30 40 H 6.297454 1.804573 -17.275574 0
M  V30 41 H 6.392524 5.233813 -16.121554 0
M  V30 42 H 10.117989 4.582795 -19.022509 0
M  V30 43 H 10.276388 2.839995 -18.766237 0
M  V30 44 H 11.218012 3.967492 -17.808423 0
M  V30 45 H 11.366852 7.590203 -11.881550 0
M  V30 46 H 8.975388 3.781507 -14.142265 0
M  V30 47 H 10.088791 5.448883 -16.160109 0
M  V30 48 H 8.856483 5.990194 -17.249297 0
M  V30 49 H 7.146882 5.686996 -12.861220 0
M  V30 50 H 8.687683 5.711243 -8.135056 0
M  V30 51 H 6.990140 4.067583 -17.283987 0
M  V30 52 H 6.175404 3.473737 -15.111531 0
M  V30 53 H 6.996978 0.958190 -15.246397 0
M  V30 54 H 8.573489 1.627674 -15.273755 0
M  V30 55 H 8.936667 3.326406 -11.756116 0
M  V30 56 H 5.431337 2.763928 -19.100529 0
M  V30 57 H 9.593291 5.946773 -12.358044 0
M  V30 58 H 7.971967 2.527797 -19.650424 0
M  V30 59 H 8.009660 4.266950 -19.642316 0
M  V30 60 H 4.427358 4.948662 -19.880860 0
M  V30 61 H 6.031825 5.652166 -19.943186 0
M  V30 62 H 5.352666 5.156534 -18.397444 0
M  V30 63 H 12.601486 9.037164 -9.644380 0
M  V30 END ATOM
M  V30 BEGIN BOND
M  V30 1 1 5 1
M  V30 2 1 6 4
M  V30 3 1 9 3
M  V30 4 1 10 7
M  V30 5 1 12 1
M  V30 6 1 13 3
M  V30 7 1 14 3
M  V30 8 1 14 7
M  V30 9 1 15 6
M  V30 10 1 15 13
M  V30 11 1 16 12
M  V30 12 2 17 16
M  V30 13 1 18 7
M  V30 14 1 18 8
M  V30 15 1 19 17
M  V30 16 1 20 4
M  V30 17 1 20 13
M  V30 18 1 21 8
M  V30 19 1 21 20
M  V30 20 1 22 6
M  V30 21 1 22 15
M  V30 22 1 22 19
M  V30 23 1 23 2
M  V30 24 1 23 11
M  V30 25 2 23 12
M  V30 26 2 25 11
M  V30 27 1 25 17
M  V30 28 1 26 24
M  V30 29 1 27 18
M  V30 30 1 27 24
M  V30 31 1 28 24
M  V30 32 3 29 26
M  V30 33 2 30 1
M  V30 34 1 30 2
M  V30 35 1 3 31 CFG=1
M  V30 36 1 32 4
M  V30 37 1 33 4
M  V30 38 1 34 5
M  V30 39 1 35 5
M  V30 40 1 36 5
M  V30 41 1 6 37 CFG=1
M  V30 42 1 7 38 CFG=1
M  V30 43 1 39 8
M  V30 44 1 40 8
M  V30 45 1 41 9
M  V30 46 1 42 10
M  V30 47 1 43 10
M  V30 48 1 44 10
M  V30 49 1 45 11
M  V30 50 1 13 46 CFG=1
M  V30 51 1 47 14
M  V30 52 1 48 14
M  V30 53 1 15 49 CFG=1
M  V30 54 1 50 16
M  V30 55 1 18 51 CFG=1
M  V30 56 1 20 52 CFG=3
M  V30 57 1 53 21
M  V30 58 1 54 21
M  V30 59 1 22 55 CFG=3
M  V30 60 1 24 56 CFG=1
M  V30 61 1 57 25
M  V30 62 1 58 27
M  V30 63 1 59 27
M  V30 64 1 60 28
M  V30 65 1 61 28
M  V30 66 1 62 28
M  V30 67 1 63 2
M  V30 END BOND
M  V30 END CTAB
M  END
>  <i_epik_Tot_Q>  (1) 
0

>  <i_epik_Tot_abs_Q>  (1) 
0

>  <i_i_glide_confnum>  (1) 
8

>  <i_i_glide_lignum>  (1) 
68

>  <i_i_glide_posenum>  (1) 
149

>  <i_i_glide_rotatable_bonds>  (1) 
5

>  <i_lp_mmshare_version>  (1) 
72125

>  <i_m_source_file_index>  (1) 
22

>  <i_f3d_flags>  (1) 
0

>  <num_sample>  (1) 
50

>  <b_lp_Chiralities_Consistent>  (1) 
1

>  <r_epik_Charging_Adjusted_Penalty>  (1) 
0

>  <r_epik_Ionization_Penalty>  (1) 
6.9991700099201596e-06

>  <r_epik_Ionization_Penalty_Charging>  (1) 
0

>  <r_epik_Ionization_Penalty_Neutral>  (1) 
6.9991700099201596e-06

>  <r_epik_State_Penalty>  (1) 
-0

>  <r_glide_ring_energy>  (1) 
0

>  <r_i_docking_score>  (1) 
-4.2874571467871929

>  <r_i_glide_ecoul>  (1) 
-0.37949182323905595

>  <r_i_glide_eff_state_penalty>  (1) 
-0

>  <r_i_glide_einternal>  (1) 
8.6649623626922363

>  <r_i_glide_emodel>  (1) 
-35.844496139086523

>  <r_i_glide_emodel_strain>  (1) 
0.20988417215198751

>  <r_i_glide_energy>  (1) 
-32.583295536500145

>  <r_i_glide_erotb>  (1) 
0.35530975304463774

>  <r_i_glide_esite>  (1) 
0

>  <r_i_glide_evdw>  (1) 
-32.203803713261088

>  <r_i_glide_gscore>  (1) 
-4.2874571467871929

>  <r_i_glide_gscore_strain>  (1) 
0

>  <r_i_glide_hbond>  (1) 
0

>  <r_i_glide_ligand_efficiency>  (1) 
-0.14291523822623978

>  <r_i_glide_ligand_efficiency_ln>  (1) 
-0.9741569793372894

>  <r_i_glide_ligand_efficiency_sa>  (1) 
-0.44407087381271176

>  <r_i_glide_lipo>  (1) 
-1.8619013426522546

>  <r_i_glide_metal>  (1) 
-0

>  <r_i_glide_rewards>  (1) 
-1.1137515980306634

>  <r_lp_Energy>  (1) 
45.650846999999999

>  <r_lp_tautomer_probability>  (1) 
1

>  <s_epik_cmdline>  (1) 
J2VwaWtfcHl0aG9uJywgJy1waHQnLCAnMS4wJywgJy1waCcsICc3LjQnLCAnLXRuJywgJzgnLCAnLW1hJywgJzUwMCcsICctaW1hZScsICc8aW5maWxlLm1hZT4nLCAnLW9tYWUnLCAnPG91dGZpbGUubWFlPic=

>  <s_epik_input>  (1) 
W0NIM11jMVtuSF1uYyhjMTIpW2NIXVtjSF1jKFtjSF0yKU9bQ0BASF0zW0NASF0oW0NASF0zNClbQ0BIXTVbQ0BIXShbQ0gyXTQpW0NIMl1bQ0gyXVtDQEhdKFtDSDJdW0NASF0oQyNOKVtDSDNdKVtDQEBIXShbQ0gzXSlbQ0gyXVtDQEhdNVtPSF0=

>  <s_glide_docking_method>  (1) 
confgen

>  <s_i_glide_gridfile>  (1) 
gpcr_drd2_6luq_protein_autoprepared_prepared

>  <s_lp_Force_Field>  (1) 
S-OPLS

>  <s_lp_Variant>  (1) 
DiffSBDD_21-1

>  <s_m_source_file>  (1) 
generated_generic_title2_ligand_DiffSBDD_2026-06-23_prepared.sdf

>  <GenAI_Model>  (1) 
DiffSBDD

>  <Protein>  (1) 
generic_title2

$$$$
DiffSBDD_0
     RDKit          3D

  0  0  0  0  0  0  0  0  0  0999 V3000
M  V30 BEGIN CTAB
M  V30 COUNTS 70 74 0 0 1
M  V30 BEGIN ATOM
M  V30 1 C 11.950883 8.097503 -7.501520 0
M  V30 2 N 7.624837 4.246099 -14.077380 0
M  V30 3 C 7.795294 3.999690 -18.355952 0 CFG=1
M  V30 4 C 8.862928 3.716899 -12.033664 0
M  V30 5 F 9.375422 8.216258 -10.113719 0
M  V30 6 C 6.825713 5.219848 -14.833862 0
M  V30 7 C 11.416853 6.912303 -6.672395 0
M  V30 8 C 9.005362 5.345474 -10.258523 0
M  V30 9 C 9.307692 6.811665 -8.116783 0 CFG=1
M  V30 10 C 10.414178 4.473244 -18.250256 0
M  V30 11 C 7.864660 2.960215 -14.752383 0 CFG=2
M  V30 12 C 7.325170 0.200561 -13.663675 0
M  V30 13 C 9.213819 3.889137 -18.929004 0 CFG=1
M  V30 14 O 9.328971 4.064363 -10.785020 0
M  V30 15 C 9.829582 8.071585 -8.870056 0 CFG=1
M  V30 16 C 8.484614 2.654506 -18.441271 0 CFG=1
M  V30 17 N 7.542314 4.114658 -16.894583 0 CFG=1 CHG=1
M  V30 18 C 9.528259 5.448436 -8.813438 0
M  V30 19 C 6.327654 1.354526 -13.870699 0
M  V30 20 C 8.458351 3.258410 -16.138272 0 CFG=2
M  V30 21 O 7.596153 -0.409774 -14.909170 0
M  V30 22 C 9.880812 6.846659 -6.684774 0
M  V30 23 N 11.518207 3.735821 -17.934109 0
M  V30 24 C 7.359926 5.438179 -16.270145 0
M  V30 25 N 10.463271 5.764599 -17.928901 0
M  V30 26 O 11.709525 5.910035 -17.297560 0
M  V30 27 C 12.245603 4.675772 -17.355937 0
M  V30 28 O 6.707027 2.221933 -14.936198 0
M  V30 29 N 13.501022 4.559068 -16.784910 0
M  V30 30 C 8.125245 4.545967 -12.809908 0
M  V30 31 C 11.361365 8.122373 -8.915022 0
M  V30 32 C 14.341678 5.531875 -16.110663 0
M  V30 33 C 8.689824 2.059454 -17.059162 0
M  V30 34 H 11.713176 9.032881 -6.993115 0
M  V30 35 H 13.036000 8.053450 -7.585021 0
M  V30 36 H 6.934924 4.186948 -18.995209 0
M  V30 37 H 9.155550 2.716294 -12.306310 0
M  V30 38 H 5.798883 4.854139 -14.869324 0
M  V30 39 H 6.789120 6.175492 -14.309414 0
M  V30 40 H 11.770198 6.989220 -5.643954 0
M  V30 41 H 11.820523 5.977385 -7.055234 0
M  V30 42 H 9.488383 6.077353 -10.902011 0
M  V30 43 H 7.928238 5.521888 -10.263967 0
M  V30 44 H 8.233396 6.868156 -7.985024 0
M  V30 45 H 8.575408 2.367213 -14.195180 0
M  V30 46 H 6.873583 -0.532387 -12.995451 0
M  V30 47 H 8.254814 0.518886 -13.192322 0
M  V30 48 H 9.316112 4.007234 -20.005929 0
M  V30 49 H 9.455933 8.952762 -8.348625 0
M  V30 50 H 8.165452 1.954454 -19.211592 0
M  V30 51 H 9.035252 4.676592 -8.221335 0
M  V30 52 H 10.575413 5.190355 -8.784980 0
M  V30 53 H 5.351238 0.936031 -14.115744 0
M  V30 54 H 6.199087 1.921921 -12.947629 0
M  V30 55 H 9.395188 3.791065 -15.985022 0
M  V30 56 H 7.775044 -1.342397 -14.785074 0
M  V30 57 H 9.484580 7.721193 -6.166240 0
M  V30 58 H 9.532858 5.990226 -6.111773 0
M  V30 59 H 6.658526 6.037171 -16.851476 0
M  V30 60 H 8.307638 5.975409 -16.242905 0
M  V30 61 H 13.894414 3.630924 -16.820640 0
M  V30 62 H 7.863458 5.539918 -12.480154 0
M  V30 63 H 11.689821 9.024550 -9.433155 0
M  V30 64 H 11.742014 7.279065 -9.492353 0
M  V30 65 H 15.276604 5.072259 -15.790377 0
M  V30 66 H 14.573661 6.364939 -16.774783 0
M  V30 67 H 13.834829 5.924057 -15.228239 0
M  V30 68 H 7.948872 1.274594 -16.910851 0
M  V30 69 H 9.683927 1.625268 -16.949518 0
M  V30 70 H 6.653724 3.650409 -16.762853 0
M  V30 END ATOM
M  V30 BEGIN BOND
M  V30 1 1 6 2
M  V30 2 1 7 1
M  V30 3 1 11 2
M  V30 4 1 13 3
M  V30 5 1 13 10
M  V30 6 1 14 4
M  V30 7 1 14 8
M  V30 8 1 15 5
M  V30 9 1 15 9
M  V30 10 1 16 3
M  V30 11 1 16 13
M  V30 12 1 17 3
M  V30 13 1 18 8
M  V30 14 1 18 9
M  V30 15 1 19 12
M  V30 16 1 20 11
M  V30 17 1 20 17
M  V30 18 1 21 12
M  V30 19 1 22 7
M  V30 20 1 22 9
M  V30 21 1 23 10
M  V30 22 1 24 6
M  V30 23 1 24 17
M  V30 24 2 25 10
M  V30 25 1 26 25
M  V30 26 2 27 23
M  V30 27 1 27 26
M  V30 28 1 28 11
M  V30 29 1 28 19
M  V30 30 1 29 27
M  V30 31 1 30 2
M  V30 32 2 30 4
M  V30 33 1 31 1
M  V30 34 1 31 15
M  V30 35 1 32 29
M  V30 36 1 33 16
M  V30 37 1 33 20
M  V30 38 1 34 1
M  V30 39 1 35 1
M  V30 40 1 3 36 CFG=3
M  V30 41 1 37 4
M  V30 42 1 38 6
M  V30 43 1 39 6
M  V30 44 1 40 7
M  V30 45 1 41 7
M  V30 46 1 42 8
M  V30 47 1 43 8
M  V30 48 1 9 44 CFG=1
M  V30 49 1 11 45 CFG=1
M  V30 50 1 46 12
M  V30 51 1 47 12
M  V30 52 1 13 48 CFG=3
M  V30 53 1 15 49 CFG=1
M  V30 54 1 16 50 CFG=3
M  V30 55 1 51 18
M  V30 56 1 52 18
M  V30 57 1 53 19
M  V30 58 1 54 19
M  V30 59 1 20 55 CFG=1
M  V30 60 1 56 21
M  V30 61 1 57 22
M  V30 62 1 58 22
M  V30 63 1 59 24
M  V30 64 1 60 24
M  V30 65 1 61 29
M  V30 66 1 62 30
M  V30 67 1 63 31
M  V30 68 1 64 31
M  V30 69 1 65 32
M  V30 70 1 66 32
M  V30 71 1 67 32
M  V30 72 1 68 33
M  V30 73 1 69 33
M  V30 74 1 17 70 CFG=3
M  V30 END BOND
M  V30 END CTAB
M  END
>  <i_epik_Tot_Q>  (1) 
1

>  <i_epik_Tot_abs_Q>  (1) 
1

>  <i_i_glide_confnum>  (1) 
153

>  <i_i_glide_lignum>  (1) 
10

>  <i_i_glide_posenum>  (1) 
43

>  <i_i_glide_rotatable_bonds>  (1) 
11

>  <i_lp_mmshare_version>  (1) 
72125

>  <i_m_source_file_index>  (1) 
1

>  <i_f3d_flags>  (1) 
0

>  <num_sample>  (1) 
50

>  <b_lp_Chiralities_Consistent>  (1) 
1

>  <r_epik_Charging_Adjusted_Penalty>  (1) 
0.41344222577729461

>  <r_epik_Ionization_Penalty>  (1) 
0.0027644559619576371

>  <r_epik_Ionization_Penalty_Charging>  (1) 
0.0027623868246906495

>  <r_epik_Ionization_Penalty_Neutral>  (1) 
2.0691372669875143e-06

>  <r_epik_State_Penalty>  (1) 
0.41067983895260396

>  <r_glide_ring_energy>  (1) 
1.7272227408313714

>  <r_i_docking_score>  (1) 
-4.2856624003228472

>  <r_i_glide_ecoul>  (1) 
-4.4725338923809401

>  <r_i_glide_eff_state_penalty>  (1) 
0.41067983895260396

>  <r_i_glide_einternal>  (1) 
4.9180567022625858

>  <r_i_glide_emodel>  (1) 
-39.62197089624631

>  <r_i_glide_emodel_strain>  (1) 
1.2336165746015979

>  <r_i_glide_energy>  (1) 
-33.23527683626213

>  <r_i_glide_erotb>  (1) 
0.74142510397790429

>  <r_i_glide_esite>  (1) 
-0.10000000000000001

>  <r_i_glide_evdw>  (1) 
-28.762742943881189

>  <r_i_glide_gscore>  (1) 
-4.6963422392754515

>  <r_i_glide_gscore_strain>  (1) 
0

>  <r_i_glide_hbond>  (1) 
-0.32000000000000001

>  <r_i_glide_ligand_efficiency>  (1) 
-0.12986855758554083

>  <r_i_glide_ligand_efficiency_ln>  (1) 
-0.9531091278594741

>  <r_i_glide_ligand_efficiency_sa>  (1) 
-0.41655785684266211

>  <r_i_glide_lipo>  (1) 
-1.9323512768102573

>  <r_i_glide_metal>  (1) 
-0

>  <r_i_glide_rewards>  (1) 
-0.97639883539189798

>  <r_lp_Energy>  (1) 
42.684458999999997

>  <r_lp_tautomer_probability>  (1) 
0.5

>  <s_epik_Chemistry_Notes>  (1) 
This compound has an imine and may undergo hydrolysis. This compound contains an acetal/aminal-like group ( X-CH(R)-Y where X, Y are N, S, or O) that may be acid/base labile, releasing an aldehyde.

>  <s_epik_cmdline>  (1) 
J2VwaWtfcHl0aG9uJywgJy1waHQnLCAnMS4wJywgJy1waCcsICc3LjQnLCAnLXRuJywgJzgnLCAnLW1hJywgJzUwMCcsICctaW1hZScsICc8aW5maWxlLm1hZT4nLCAnLW9tYWUnLCAnPG91dGZpbGUubWFlPic=

>  <s_epik_input>  (1) 
W0NIMl0xW0NIMl1bQ0gyXVtDSDJdW0NASF0oRilbQ0BIXTFbQ0gyXVtDSDJdTy9bQ0hdPVtDSF0vTihbQ0BIXTJPW0NIMl1bQ0gyXVtPSF0pW0NIMl1bQ0gyXU4zW0NAQEhdMltDSDJdW0NAQEhdKFtDQEBIXTM0KVtDQEBIXTRjNW5jKG9uNSlbTkhdW0NIM10=

>  <s_glide_docking_method>  (1) 
confgen

>  <s_i_glide_gridfile>  (1) 
gpcr_drd2_6luq_protein_autoprepared_prepared

>  <s_lp_Force_Field>  (1) 
S-OPLS

>  <s_lp_Variant>  (1) 
DiffSBDD_0-10

>  <s_m_source_file>  (1) 
generated_generic_title2_ligand_DiffSBDD_2026-06-23_prepared.sdf

>  <GenAI_Model>  (1) 
DiffSBDD

>  <Protein>  (1) 
generic_title2

$$$$
DiffSBDD_39
     RDKit          3D

  0  0  0  0  0  0  0  0  0  0999 V3000
M  V30 BEGIN CTAB
M  V30 COUNTS 69 72 0 0 1
M  V30 BEGIN ATOM
M  V30 1 C 7.733396 5.777012 -15.057142 0
M  V30 2 F 8.841817 6.926984 -22.032027 0
M  V30 3 F 8.282213 5.005444 -22.863432 0
M  V30 4 C 11.523762 8.824026 -9.586301 0
M  V30 5 C 7.554018 6.464706 -12.592699 0
M  V30 6 C 6.688029 4.779927 -10.989688 0 CFG=1
M  V30 7 O 12.751813 8.788681 -8.890335 0
M  V30 8 C 7.289972 6.188078 -19.463184 0 CFG=2
M  V30 9 C 7.576063 2.970149 -14.332821 0
M  V30 10 C 8.880023 5.951685 -10.451639 0 CFG=2
M  V30 11 O 5.296306 7.527664 -19.079994 0
M  V30 12 C 7.612961 3.418278 -15.801084 0
M  V30 13 N 8.296831 4.730541 -15.959922 0 CFG=1 CHG=1
M  V30 14 C 6.550622 6.482687 -22.276448 0
M  V30 15 C 7.911513 5.345284 -13.597194 0 CFG=1
M  V30 16 C 8.457753 5.138943 -17.378574 0
M  V30 17 O 6.091855 7.321899 -21.217556 0
M  V30 18 C 7.037665 3.649163 -11.973026 0
M  V30 19 N 7.550601 5.990214 -11.174489 0 CFG=1 CHG=1
M  V30 20 C 10.845888 7.455129 -9.537023 0 CFG=1
M  V30 21 C 10.424569 7.102535 -8.106149 0
M  V30 22 C 7.127060 5.453191 -18.105502 0
M  V30 23 C 7.042631 4.090038 -13.422519 0 CFG=2
M  V30 24 C 5.910405 6.659039 -20.002786 0 CFG=1
M  V30 25 C 7.954841 5.345197 -20.559354 0
M  V30 26 C 9.876773 5.683219 -8.046473 0
M  V30 27 C 7.953600 5.935046 -21.964670 0
M  V30 28 O 8.462515 4.249697 -20.318783 0
M  V30 29 C 8.679369 5.489940 -8.974290 0
M  V30 30 O 5.390255 5.302056 -11.185165 0
M  V30 31 C 9.643136 7.323530 -10.505209 0
M  V30 32 H 6.673064 5.920874 -15.268858 0
M  V30 33 H 8.175410 6.757291 -15.184992 0
M  V30 34 H 10.870864 9.590886 -9.184460 0
M  V30 35 H 11.755381 9.077663 -10.612952 0
M  V30 36 H 6.560332 6.848096 -12.826403 0
M  V30 37 H 8.207462 7.324371 -12.726617 0
M  V30 38 H 6.663201 4.388485 -9.977938 0
M  V30 39 H 13.299932 9.504906 -9.193846 0
M  V30 40 H 7.900917 7.079896 -19.317036 0
M  V30 41 H 6.952556 2.080265 -14.239095 0
M  V30 42 H 8.574213 2.671646 -14.006483 0
M  V30 43 H 9.509307 5.207526 -10.942082 0
M  V30 44 H 4.488227 7.834983 -19.462892 0
M  V30 45 H 6.590232 3.488104 -16.162031 0
M  V30 46 H 8.111126 2.658360 -16.404468 0
M  V30 47 H 6.571445 7.063583 -23.199843 0
M  V30 48 H 5.841654 5.668429 -22.437825 0
M  V30 49 H 8.959485 5.088666 -13.428630 0
M  V30 50 H 9.127338 5.994057 -17.412342 0
M  V30 51 H 8.994680 4.340820 -17.889583 0
M  V30 52 H 6.332453 2.823378 -11.864023 0
M  V30 53 H 8.040180 3.283683 -11.742090 0
M  V30 54 H 11.627326 6.790263 -9.866807 0
M  V30 55 H 11.271260 7.186008 -7.423443 0
M  V30 56 H 9.668586 7.806777 -7.754729 0
M  V30 57 H 6.557368 4.535296 -18.255270 0
M  V30 58 H 6.514987 6.075880 -17.457836 0
M  V30 59 H 6.011701 4.316268 -13.705095 0
M  V30 60 H 5.226382 5.818279 -20.144898 0
M  V30 61 H 10.648041 4.964578 -8.305533 0
M  V30 62 H 9.578512 5.463538 -7.021980 0
M  V30 63 H 8.460146 4.424799 -8.937358 0
M  V30 64 H 7.819990 5.990255 -8.530096 0
M  V30 65 H 4.924753 5.232483 -10.360392 0
M  V30 66 H 8.975355 8.150344 -10.282809 0
M  V30 67 H 10.008851 7.501582 -11.516143 0
M  V30 68 H 9.241431 4.579360 -15.633679 0
M  V30 69 H 7.073782 6.718968 -10.635645 0
M  V30 END ATOM
M  V30 BEGIN BOND
M  V30 1 1 7 4
M  V30 2 1 12 9
M  V30 3 1 13 1
M  V30 4 1 13 12
M  V30 5 1 15 1
M  V30 6 1 15 5
M  V30 7 1 16 13
M  V30 8 1 17 14
M  V30 9 1 18 6
M  V30 10 1 19 5
M  V30 11 1 19 6
M  V30 12 1 19 10
M  V30 13 1 20 4
M  V30 14 1 21 20
M  V30 15 1 22 8
M  V30 16 1 22 16
M  V30 17 1 23 9
M  V30 18 1 23 15
M  V30 19 1 23 18
M  V30 20 1 24 8
M  V30 21 1 24 11
M  V30 22 1 24 17
M  V30 23 1 25 8
M  V30 24 1 26 21
M  V30 25 1 27 2
M  V30 26 1 27 3
M  V30 27 1 27 14
M  V30 28 1 27 25
M  V30 29 2 28 25
M  V30 30 1 29 10
M  V30 31 1 29 26
M  V30 32 1 30 6
M  V30 33 1 31 10
M  V30 34 1 31 20
M  V30 35 1 32 1
M  V30 36 1 33 1
M  V30 37 1 34 4
M  V30 38 1 35 4
M  V30 39 1 36 5
M  V30 40 1 37 5
M  V30 41 1 6 38 CFG=1
M  V30 42 1 39 7
M  V30 43 1 8 40 CFG=1
M  V30 44 1 41 9
M  V30 45 1 42 9
M  V30 46 1 10 43 CFG=3
M  V30 47 1 44 11
M  V30 48 1 45 12
M  V30 49 1 46 12
M  V30 50 1 47 14
M  V30 51 1 48 14
M  V30 52 1 15 49 CFG=3
M  V30 53 1 50 16
M  V30 54 1 51 16
M  V30 55 1 52 18
M  V30 56 1 53 18
M  V30 57 1 20 54 CFG=3
M  V30 58 1 55 21
M  V30 59 1 56 21
M  V30 60 1 57 22
M  V30 61 1 58 22
M  V30 62 1 23 59 CFG=3
M  V30 63 1 24 60 CFG=3
M  V30 64 1 61 26
M  V30 65 1 62 26
M  V30 66 1 63 29
M  V30 67 1 64 29
M  V30 68 1 65 30
M  V30 69 1 66 31
M  V30 70 1 67 31
M  V30 71 1 13 68 CFG=1
M  V30 72 1 19 69 CFG=1
M  V30 END BOND
M  V30 END CTAB
M  END
>  <i_epik_Tot_Q>  (1) 
2

>  <i_epik_Tot_abs_Q>  (1) 
2

>  <i_i_glide_confnum>  (1) 
320

>  <i_i_glide_lignum>  (1) 
111

>  <i_i_glide_posenum>  (1) 
196

>  <i_i_glide_rotatable_bonds>  (1) 
8

>  <i_lp_mmshare_version>  (1) 
72125

>  <i_m_source_file_index>  (1) 
40

>  <i_f3d_flags>  (1) 
0

>  <num_sample>  (1) 
50

>  <b_lp_Chiralities_Consistent>  (1) 
1

>  <r_epik_Charging_Adjusted_Penalty>  (1) 
1.743801429740254

>  <r_epik_Ionization_Penalty>  (1) 
1.6051069046209219

>  <r_epik_Ionization_Penalty_Charging>  (1) 
0.6098477401054202

>  <r_epik_Ionization_Penalty_Neutral>  (1) 
0.99525916451550167

>  <r_epik_State_Penalty>  (1) 
1.1339536896348337

>  <r_glide_ring_energy>  (1) 
0

>  <r_i_docking_score>  (1) 
-4.2762972115517321

>  <r_i_glide_ecoul>  (1) 
-10.902599694927684

>  <r_i_glide_eff_state_penalty>  (1) 
1.1339536896348337

>  <r_i_glide_einternal>  (1) 
7.3374749178405425

>  <r_i_glide_emodel>  (1) 
-40.719348322859304

>  <r_i_glide_emodel_strain>  (1) 
0.4351542065630909

>  <r_i_glide_energy>  (1) 
-32.977419891567919

>  <r_i_glide_erotb>  (1) 
0.49785121930328097

>  <r_i_glide_esite>  (1) 
-0.13146482867722489

>  <r_i_glide_evdw>  (1) 
-22.074820196640236

>  <r_i_glide_gscore>  (1) 
-5.4102509011865658

>  <r_i_glide_gscore_strain>  (1) 
0

>  <r_i_glide_hbond>  (1) 
-0.55902171882310325

>  <r_i_glide_ligand_efficiency>  (1) 
-0.13794507134037845

>  <r_i_glide_ligand_efficiency_ln>  (1) 
-0.96443607397560716

>  <r_i_glide_ligand_efficiency_sa>  (1) 
-0.4333379782014154

>  <r_i_glide_lipo>  (1) 
-1.1354541869763257

>  <r_i_glide_metal>  (1) 
-0

>  <r_i_glide_rewards>  (1) 
-1.3430304219420284

>  <r_lp_Energy>  (1) 
49.421470999999997

>  <r_lp_tautomer_probability>  (1) 
0.99995000000000001

>  <s_epik_Chemistry_Notes>  (1) 
This compound contains an acetal/aminal-like group ( X-CH(R)-Y where X, Y are N, S, or O) that may be acid/base labile, releasing an aldehyde.

>  <s_epik_cmdline>  (1) 
J2VwaWtfcHl0aG9uJywgJy1waHQnLCAnMS4wJywgJy1waCcsICc3LjQnLCAnLXRuJywgJzgnLCAnLW1hJywgJzUwMCcsICctaW1hZScsICc8aW5maWxlLm1hZT4nLCAnLW9tYWUnLCAnPG91dGZpbGUubWFlPic=

>  <s_epik_input>  (1) 
RkMxKEYpW0NIMl1PW0NASF0oW09IXSlbQ0BIXShDMT1PKVtDSDJdW0NIMl1OKFtDSDJdMilbQ0gyXVtDSDJdW0NASF0oW0NAQEhdMjMpW0NIMl1bQ0BIXShbT0hdKU4oW0NIMl0zKVtDQEBIXTRbQ0gyXVtDSDJdW0NIMl1bQ0BASF0oW0NIMl00KVtDSDJdW09IXQ==

>  <s_glide_docking_method>  (1) 
confgen

>  <s_i_glide_gridfile>  (1) 
gpcr_drd2_6luq_protein_autoprepared_prepared

>  <s_lp_Force_Field>  (1) 
S-OPLS

>  <s_lp_Variant>  (1) 
DiffSBDD_39-7

>  <s_m_source_file>  (1) 
generated_generic_title2_ligand_DiffSBDD_2026-06-23_prepared.sdf

>  <GenAI_Model>  (1) 
DiffSBDD

>  <Protein>  (1) 
generic_title2

$$$$
DiffSBDD_9
     RDKit          3D

  0  0  0  0  0  0  0  0  0  0999 V3000
M  V30 BEGIN CTAB
M  V30 COUNTS 77 78 0 0 1
M  V30 BEGIN ATOM
M  V30 1 C 9.943071 8.542300 -9.192737 0
M  V30 2 F 8.698931 5.478288 -21.346352 0
M  V30 3 C 8.204021 4.637081 -16.181637 0 CFG=1
M  V30 4 O 10.583218 5.030284 -20.174071 0
M  V30 5 F 8.175424 1.952470 -14.801038 0
M  V30 6 C 7.320555 4.994489 -13.696727 0 CFG=2
M  V30 7 O 11.775138 6.667982 -3.822126 0
M  V30 8 C 9.765476 5.942000 -11.825441 0
M  V30 9 C 7.922365 4.176521 -12.520251 0 CFG=2
M  V30 10 F 9.646602 7.091061 -20.175926 0
M  V30 11 O 10.500539 6.303487 -12.741919 0
M  V30 12 C 11.375381 7.317622 -4.785243 0
M  V30 13 C 10.566304 5.686543 -17.842174 0
M  V30 14 C 8.105440 3.739493 -17.451030 0
M  V30 15 O 12.445710 3.620637 -18.790783 0
M  V30 16 F 11.026625 5.301526 -22.853422 0
M  V30 17 C 10.916800 7.833261 -8.258606 0
M  V30 18 C 9.965831 8.075290 -10.650974 0
M  V30 19 F 10.773009 2.432079 -19.745733 0
M  V30 20 O 10.873050 6.618648 -8.084582 0
M  V30 21 C 9.879782 5.959946 -20.885842 0
M  V30 22 N 9.449750 6.730353 -10.791544 0
M  V30 23 C 11.074647 3.285764 -18.736182 0
M  V30 24 C 5.982366 5.764310 -13.414713 0
M  V30 25 O 6.175423 2.198820 -13.915881 0
M  V30 26 F 10.842227 2.616025 -17.584003 0
M  V30 27 C 10.202184 4.578380 -18.856715 0 CFG=2
M  V30 28 C 7.212185 4.171860 -15.049215 0 CFG=2
M  V30 29 C 9.632353 4.790163 -15.667731 0
M  V30 30 O 7.873964 4.699241 -11.185664 0
M  V30 31 C 7.022940 2.617621 -14.947785 0 CFG=1
M  V30 32 C 5.824378 6.369337 -12.006980 0
M  V30 33 C 5.822144 6.920485 -14.431367 0
M  V30 34 C 11.757212 8.790478 -4.942341 0
M  V30 35 C 9.172369 4.579290 -11.760880 0 CFG=2
M  V30 36 C 10.664914 5.244973 -16.396838 0
M  V30 37 C 10.728104 6.361491 -22.099669 0
M  V30 38 C 11.361021 9.411691 -6.295583 0
M  V30 39 C 8.673667 4.291398 -18.776014 0
M  V30 40 C 11.942144 8.704001 -7.539844 0
M  V30 41 H 10.201389 9.590148 -9.185073 0
M  V30 42 H 8.952866 8.463215 -8.764436 0
M  V30 43 H 7.891058 5.641988 -16.467680 0
M  V30 44 H 8.031347 5.798937 -13.870261 0
M  V30 45 H 7.795905 3.105918 -12.528970 0
M  V30 46 H 10.738677 6.906796 -5.565957 0
M  V30 47 H 11.512292 6.159256 -18.109829 0
M  V30 48 H 9.811730 6.463807 -17.891009 0
M  V30 49 H 8.520292 2.752463 -17.251731 0
M  V30 50 H 7.047848 3.562620 -17.650267 0
M  V30 51 H 12.499642 4.541582 -18.991385 0
M  V30 52 H 10.989687 8.123794 -11.019488 0
M  V30 53 H 9.361678 8.743035 -11.267503 0
M  V30 54 H 8.828901 6.380349 -10.072067 0
M  V30 55 H 5.148572 5.073154 -13.546037 0
M  V30 56 H 6.525192 1.392852 -13.565827 0
M  V30 57 H 6.248542 4.455411 -15.465903 0
M  V30 58 H 9.806929 4.497930 -14.642429 0
M  V30 59 H 6.568716 2.247592 -15.863980 0
M  V30 60 H 6.705514 6.939975 -11.714518 0
M  V30 61 H 4.975297 7.049866 -11.952031 0
M  V30 62 H 5.640055 5.601309 -11.257216 0
M  V30 63 H 6.699349 7.567507 -14.428861 0
M  V30 64 H 5.677816 6.570573 -15.452423 0
M  V30 65 H 4.975397 7.558934 -14.192442 0
M  V30 66 H 12.830376 8.887753 -4.784978 0
M  V30 67 H 11.284495 9.351445 -4.136262 0
M  V30 68 H 9.775439 3.784638 -11.336314 0
M  V30 69 H 11.643401 5.308721 -15.941716 0
M  V30 70 H 10.205084 7.078187 -22.732698 0
M  V30 71 H 11.671669 6.809347 -21.788840 0
M  V30 72 H 11.702896 10.448136 -6.301656 0
M  V30 73 H 10.272455 9.473792 -6.357171 0
M  V30 74 H 8.117287 5.203626 -18.992110 0
M  V30 75 H 8.409222 3.592646 -19.569975 0
M  V30 76 H 12.824935 8.118680 -7.293920 0
M  V30 77 H 12.260655 9.450722 -8.263793 0
M  V30 END ATOM
M  V30 BEGIN BOND
M  V30 1 1 9 6
M  V30 2 2 11 8
M  V30 3 2 12 7
M  V30 4 1 14 3
M  V30 5 1 17 1
M  V30 6 1 18 1
M  V30 7 2 20 17
M  V30 8 1 21 2
M  V30 9 1 21 4
M  V30 10 1 21 10
M  V30 11 1 22 8
M  V30 12 1 22 18
M  V30 13 1 23 15
M  V30 14 1 23 19
M  V30 15 1 24 6
M  V30 16 1 26 23
M  V30 17 1 27 4 CFG=3
M  V30 18 1 27 13
M  V30 19 1 27 23
M  V30 20 1 28 3
M  V30 21 1 28 6
M  V30 22 1 29 3
M  V30 23 1 30 9
M  V30 24 1 31 5
M  V30 25 1 31 25
M  V30 26 1 31 28
M  V30 27 1 32 24
M  V30 28 1 33 24
M  V30 29 1 34 12
M  V30 30 1 35 8
M  V30 31 1 35 9
M  V30 32 1 35 30
M  V30 33 1 36 13
M  V30 34 2 36 29
M  V30 35 1 37 16
M  V30 36 1 37 21
M  V30 37 1 38 34
M  V30 38 1 39 14
M  V30 39 1 39 27
M  V30 40 1 40 17
M  V30 41 1 40 38
M  V30 42 1 41 1
M  V30 43 1 42 1
M  V30 44 1 3 43 CFG=3
M  V30 45 1 6 44 CFG=3
M  V30 46 1 9 45 CFG=1
M  V30 47 1 46 12
M  V30 48 1 47 13
M  V30 49 1 48 13
M  V30 50 1 49 14
M  V30 51 1 50 14
M  V30 52 1 51 15
M  V30 53 1 52 18
M  V30 54 1 53 18
M  V30 55 1 54 22
M  V30 56 1 55 24
M  V30 57 1 56 25
M  V30 58 1 28 57 CFG=3
M  V30 59 1 58 29
M  V30 60 1 31 59 CFG=3
M  V30 61 1 60 32
M  V30 62 1 61 32
M  V30 63 1 62 32
M  V30 64 1 63 33
M  V30 65 1 64 33
M  V30 66 1 65 33
M  V30 67 1 66 34
M  V30 68 1 67 34
M  V30 69 1 35 68 CFG=1
M  V30 70 1 69 36
M  V30 71 1 70 37
M  V30 72 1 71 37
M  V30 73 1 72 38
M  V30 74 1 73 38
M  V30 75 1 74 39
M  V30 76 1 75 39
M  V30 77 1 76 40
M  V30 78 1 77 40
M  V30 END BOND
M  V30 END CTAB
M  END
>  <i_epik_Tot_Q>  (1) 
0

>  <i_epik_Tot_abs_Q>  (1) 
0

>  <i_i_glide_confnum>  (1) 
10507

>  <i_i_glide_lignum>  (1) 
45

>  <i_i_glide_posenum>  (1) 
148

>  <i_i_glide_rotatable_bonds>  (1) 
20

>  <i_lp_mmshare_version>  (1) 
72125

>  <i_m_source_file_index>  (1) 
10

>  <i_f3d_flags>  (1) 
0

>  <num_sample>  (1) 
50

>  <b_lp_Chiralities_Consistent>  (1) 
1

>  <r_epik_Charging_Adjusted_Penalty>  (1) 
0.024791601223723252

>  <r_epik_Ionization_Penalty>  (1) 
0.024829857689501161

>  <r_epik_Ionization_Penalty_Charging>  (1) 
0

>  <r_epik_Ionization_Penalty_Neutral>  (1) 
0.024829857689501161

>  <r_epik_State_Penalty>  (1) 
0.024791601223723252

>  <r_glide_ring_energy>  (1) 
0

>  <r_i_docking_score>  (1) 
-4.2718274678606427

>  <r_i_glide_ecoul>  (1) 
-0.45725935107759463

>  <r_i_glide_eff_state_penalty>  (1) 
0.024791601223723252

>  <r_i_glide_einternal>  (1) 
21.821638013748252

>  <r_i_glide_emodel>  (1) 
-30.216054361449515

>  <r_i_glide_emodel_strain>  (1) 
3.0744602542146922

>  <r_i_glide_energy>  (1) 
-34.902360751792088

>  <r_i_glide_erotb>  (1) 
0.79596426883134463

>  <r_i_glide_esite>  (1) 
-0.078501862360965458

>  <r_i_glide_evdw>  (1) 
-34.445101400714492

>  <r_i_glide_gscore>  (1) 
-4.2966190690843655

>  <r_i_glide_gscore_strain>  (1) 
0

>  <r_i_glide_hbond>  (1) 
0

>  <r_i_glide_ligand_efficiency>  (1) 
-0.10679568669651607

>  <r_i_glide_ligand_efficiency_ln>  (1) 
-0.91105508462424223

>  <r_i_glide_ligand_efficiency_sa>  (1) 
-0.36523611091972608

>  <r_i_glide_lipo>  (1) 
-2.1825677073307261

>  <r_i_glide_metal>  (1) 
-0

>  <r_i_glide_rewards>  (1) 
-1.0406697955266551

>  <r_lp_Energy>  (1) 
29.47728

>  <r_lp_tautomer_probability>  (1) 
0.99989996500775002

>  <s_epik_cmdline>  (1) 
J2VwaWtfcHl0aG9uJywgJy1waHQnLCAnMS4wJywgJy1waCcsICc3LjQnLCAnLXRuJywgJzgnLCAnLW1hJywgJzUwMCcsICctaW1hZScsICc8aW5maWxlLm1hZT4nLCAnLW9tYWUnLCAnPG91dGZpbGUubWFlPic=

>  <s_epik_input>  (1) 
Tz1bQ0hdW0NIMl1bQ0gyXVtDSDJdQyg9TylbQ0gyXVtDSDJdW05IXUMoPU8pW0NASF0xT1tDQEhdMVtDQEhdKFtDSF0oW0NIM10pW0NIM10pW0NASF0oW0NAQEhdKEYpW09IXSlbQ0BIXShbQ0gyXVtDSDJdMilbQ0hdPVtDSF1bQ0gyXVtDQF0yKEMoRikoRilbT0hdKU9DKEYpKEYpW0NIMl1G

>  <s_glide_docking_method>  (1) 
confgen

>  <s_i_glide_gridfile>  (1) 
gpcr_drd2_6luq_protein_autoprepared_prepared

>  <s_lp_Force_Field>  (1) 
S-OPLS

>  <s_lp_Variant>  (1) 
DiffSBDD_9-2

>  <s_m_source_file>  (1) 
generated_generic_title2_ligand_DiffSBDD_2026-06-23_prepared.sdf

>  <GenAI_Model>  (1) 
DiffSBDD

>  <Protein>  (1) 
generic_title2

$$$$
DiffSBDD_1
     RDKit          3D

  0  0  0  0  0  0  0  0  0  0999 V3000
M  V30 BEGIN CTAB
M  V30 COUNTS 90 92 0 0 1
M  V30 BEGIN ATOM
M  V30 1 O 6.918392 5.676767 -12.770931 0
M  V30 2 O 10.757192 7.190006 -11.248947 0
M  V30 3 C 7.700526 2.483014 -16.810020 0 CFG=2
M  V30 4 C 9.644596 1.241437 -18.069743 0
M  V30 5 C 7.847918 -3.188417 -19.134842 0
M  V30 6 C 9.872268 7.332686 -5.974685 0
M  V30 7 C 4.688139 -1.609890 -18.687615 0
M  V30 8 C 9.578208 7.129324 -10.468086 0 CFG=1
M  V30 9 C 8.236314 3.920300 -16.545076 0 CFG=1
M  V30 10 C 5.854261 0.765192 -18.577959 0 CFG=2
M  V30 11 C 9.501631 -0.271419 -17.843741 0
M  V30 12 O 9.914891 4.277467 -19.730026 0 CHG=-1
M  V30 13 C 8.084159 -1.702668 -19.475970 0
M  V30 14 C 7.915509 1.619755 -15.545567 0
M  V30 15 C 8.619561 6.073720 -11.054544 0
M  V30 16 C 5.245864 -2.869729 -19.398798 0
M  V30 17 C 8.221327 1.812630 -18.129358 0 CFG=1
M  V30 18 C 6.419749 -3.574432 -18.679626 0
M  V30 19 C 9.947474 6.827015 -9.009953 0
M  V30 20 C 7.738470 3.693469 -14.031922 0 CFG=2
M  V30 21 C 11.775687 8.959216 -6.272951 0
M  V30 22 F 3.775397 0.353459 -19.413520 0
M  V30 23 C 11.056664 7.736753 -6.862360 0
M  V30 24 C 7.321099 2.231960 -14.272562 0
M  V30 25 C 7.774561 7.836150 -12.754176 0
M  V30 26 F 5.566736 1.975003 -19.070215 0
M  V30 27 O 9.376508 6.728022 -19.246018 0
M  V30 28 O 10.827866 5.403154 -17.615237 0
M  V30 29 P 9.744637 5.216791 -18.602343 0
M  V30 30 C 10.626116 8.017108 -8.313037 0
M  V30 31 C 8.130824 6.365207 -12.492228 0 CFG=2
M  V30 32 C 7.395034 0.646300 -18.732545 0 CFG=1
M  V30 33 O 7.411788 -1.201554 -17.181814 0
M  V30 34 C 6.950237 4.258368 -12.831362 0
M  V30 35 C 8.104861 4.914960 -17.729833 0
M  V30 36 C 8.080488 -0.677532 -18.306662 0 CFG=2
M  V30 37 C 7.529897 4.522757 -15.312011 0
M  V30 38 C 4.967345 -0.236853 -19.357856 0 CFG=2
M  V30 39 H 10.508572 7.313851 -12.152980 0
M  V30 40 H 6.627810 2.618461 -16.918611 0
M  V30 41 H 10.121678 1.406311 -19.036793 0
M  V30 42 H 10.279334 1.728099 -17.328713 0
M  V30 43 H 8.070927 -3.761410 -20.034983 0
M  V30 44 H 8.574623 -3.523585 -18.392498 0
M  V30 45 H 9.091738 8.094048 -5.985122 0
M  V30 46 H 9.425181 6.390595 -6.289994 0
M  V30 47 H 10.190189 7.190296 -4.942603 0
M  V30 48 H 3.604703 -1.742881 -18.663750 0
M  V30 49 H 4.945118 -1.595128 -17.629466 0
M  V30 50 H 9.094356 8.105945 -10.487262 0
M  V30 51 H 9.294566 3.838042 -16.294618 0
M  V30 52 H 5.558604 0.771638 -17.528523 0
M  V30 53 H 10.292190 -0.811073 -18.365033 0
M  V30 54 H 9.641617 -0.494815 -16.786783 0
M  V30 55 H 7.351840 -1.420695 -20.228735 0
M  V30 56 H 9.028101 -1.618137 -20.015041 0
M  V30 57 H 8.973126 1.431766 -15.397164 0
M  V30 58 H 7.449254 0.649474 -15.664893 0
M  V30 59 H 9.097746 5.094235 -11.023375 0
M  V30 60 H 7.749291 5.988085 -10.402670 0
M  V30 61 H 5.465909 -2.683168 -20.449864 0
M  V30 62 H 4.429802 -3.592861 -19.422669 0
M  V30 63 H 8.208706 2.585308 -18.893456 0
M  V30 64 H 6.316553 -4.648089 -18.839509 0
M  V30 65 H 6.312412 -3.460559 -17.600911 0
M  V30 66 H 9.023708 6.595375 -8.480311 0
M  V30 67 H 10.573594 5.937631 -8.946953 0
M  V30 68 H 8.800419 3.721293 -13.786225 0
M  V30 69 H 11.130975 9.838441 -6.270590 0
M  V30 70 H 12.090291 8.779148 -5.244798 0
M  V30 71 H 12.668497 9.201133 -6.849590 0
M  V30 72 H 11.764170 6.906398 -6.869252 0
M  V30 73 H 7.594141 1.620528 -13.411415 0
M  V30 74 H 6.238113 2.172448 -14.351779 0
M  V30 75 H 8.638462 8.492713 -12.674316 0
M  V30 76 H 7.374324 7.960138 -13.760712 0
M  V30 77 H 7.021048 8.180842 -12.043475 0
M  V30 78 H 10.091651 6.936045 -19.824603 0
M  V30 79 H 11.500456 8.318551 -8.891083 0
M  V30 80 H 9.940106 8.863615 -8.331948 0
M  V30 81 H 8.908105 6.072300 -13.197371 0
M  V30 82 H 7.579751 0.741352 -19.804449 0
M  V30 83 H 7.839884 -1.993652 -16.886100 0
M  V30 84 H 7.311390 3.831175 -11.896283 0
M  V30 85 H 5.906351 3.953702 -12.912879 0
M  V30 86 H 7.334975 4.597023 -18.432049 0
M  V30 87 H 7.763266 5.886239 -17.372671 0
M  V30 88 H 6.463528 4.629664 -15.513547 0
M  V30 89 H 7.904815 5.533364 -15.151874 0
M  V30 90 H 5.286982 -0.337248 -20.394779 0
M  V30 END ATOM
M  V30 BEGIN BOND
M  V30 1 1 8 2
M  V30 2 1 9 3
M  V30 3 1 11 4
M  V30 4 1 13 5
M  V30 5 1 14 3
M  V30 6 1 15 8
M  V30 7 1 16 7
M  V30 8 1 17 3
M  V30 9 1 17 4
M  V30 10 1 18 5
M  V30 11 1 18 16
M  V30 12 1 19 8
M  V30 13 1 23 6
M  V30 14 1 23 21
M  V30 15 1 24 14
M  V30 16 1 24 20
M  V30 17 1 26 10
M  V30 18 1 29 12
M  V30 19 1 29 27
M  V30 20 2 29 28
M  V30 21 1 30 19
M  V30 22 1 30 23
M  V30 23 1 31 1
M  V30 24 1 31 15
M  V30 25 1 31 25
M  V30 26 1 32 10
M  V30 27 1 32 17
M  V30 28 1 34 1
M  V30 29 1 34 20
M  V30 30 1 35 9
M  V30 31 1 35 29
M  V30 32 1 36 11
M  V30 33 1 36 13
M  V30 34 1 36 32
M  V30 35 1 36 33 CFG=1
M  V30 36 1 37 9
M  V30 37 1 37 20
M  V30 38 1 38 7
M  V30 39 1 38 10
M  V30 40 1 38 22
M  V30 41 1 39 2
M  V30 42 1 3 40 CFG=3
M  V30 43 1 41 4
M  V30 44 1 42 4
M  V30 45 1 43 5
M  V30 46 1 44 5
M  V30 47 1 45 6
M  V30 48 1 46 6
M  V30 49 1 47 6
M  V30 50 1 48 7
M  V30 51 1 49 7
M  V30 52 1 8 50 CFG=1
M  V30 53 1 9 51 CFG=1
M  V30 54 1 10 52 CFG=1
M  V30 55 1 53 11
M  V30 56 1 54 11
M  V30 57 1 55 13
M  V30 58 1 56 13
M  V30 59 1 57 14
M  V30 60 1 58 14
M  V30 61 1 59 15
M  V30 62 1 60 15
M  V30 63 1 61 16
M  V30 64 1 62 16
M  V30 65 1 17 63 CFG=3
M  V30 66 1 64 18
M  V30 67 1 65 18
M  V30 68 1 66 19
M  V30 69 1 67 19
M  V30 70 1 20 68 CFG=1
M  V30 71 1 69 21
M  V30 72 1 70 21
M  V30 73 1 71 21
M  V30 74 1 72 23
M  V30 75 1 73 24
M  V30 76 1 74 24
M  V30 77 1 75 25
M  V30 78 1 76 25
M  V30 79 1 77 25
M  V30 80 1 78 27
M  V30 81 1 79 30
M  V30 82 1 80 30
M  V30 83 1 31 81 CFG=3
M  V30 84 1 32 82 CFG=3
M  V30 85 1 83 33
M  V30 86 1 84 34
M  V30 87 1 85 34
M  V30 88 1 86 35
M  V30 89 1 87 35
M  V30 90 1 88 37
M  V30 91 1 89 37
M  V30 92 1 38 90 CFG=3
M  V30 END BOND
M  V30 END CTAB
M  END
>  <i_epik_Tot_Q>  (1) 
-1

>  <i_epik_Tot_abs_Q>  (1) 
1

>  <i_i_glide_confnum>  (1) 
1607

>  <i_i_glide_lignum>  (1) 
18

>  <i_i_glide_posenum>  (1) 
195

>  <i_i_glide_rotatable_bonds>  (1) 
14

>  <i_lp_mmshare_version>  (1) 
72125

>  <i_m_source_file_index>  (1) 
2

>  <i_f3d_flags>  (1) 
0

>  <num_sample>  (1) 
50

>  <b_lp_Chiralities_Consistent>  (1) 
1

>  <r_epik_Charging_Adjusted_Penalty>  (1) 
0.13318820565599726

>  <r_epik_Ionization_Penalty>  (1) 
0.13318880763099702

>  <r_epik_Ionization_Penalty_Charging>  (1) 
1.1004593090013429e-05

>  <r_epik_Ionization_Penalty_Neutral>  (1) 
0.13317780303790702

>  <r_epik_State_Penalty>  (1) 
0.13317720106290726

>  <r_glide_ring_energy>  (1) 
0

>  <r_i_docking_score>  (1) 
-4.2703115215891527

>  <r_i_glide_ecoul>  (1) 
-1.7813940087693498

>  <r_i_glide_eff_state_penalty>  (1) 
0.13317720106290726

>  <r_i_glide_einternal>  (1) 
17.720526428229064

>  <r_i_glide_emodel>  (1) 
-29.536495304096199

>  <r_i_glide_emodel_strain>  (1) 
1.2239979131055065

>  <r_i_glide_energy>  (1) 
-36.936882962053559

>  <r_i_glide_erotb>  (1) 
0.56507953808565226

>  <r_i_glide_esite>  (1) 
0

>  <r_i_glide_evdw>  (1) 
-35.155488953284213

>  <r_i_glide_gscore>  (1) 
-4.4034887226520603

>  <r_i_glide_gscore_strain>  (1) 
0

>  <r_i_glide_hbond>  (1) 
-0.081808516855798014

>  <r_i_glide_ligand_efficiency>  (1) 
-0.11237661898918823

>  <r_i_glide_ligand_efficiency_ln>  (1) 
-0.92080478389238118

>  <r_i_glide_ligand_efficiency_sa>  (1) 
-0.37780742934086831

>  <r_i_glide_lipo>  (1) 
-2.070112920974466

>  <r_i_glide_metal>  (1) 
-0

>  <r_i_glide_rewards>  (1) 
-0.79166327392783586

>  <r_lp_Energy>  (1) 
45.276491999999998

>  <s_epik_cmdline>  (1) 
J2VwaWtfcHl0aG9uJywgJy1waHQnLCAnMS4wJywgJy1waCcsICc3LjQnLCAnLXRuJywgJzgnLCAnLW1hJywgJzUwMCcsICctaW1hZScsICc8aW5maWxlLm1hZT4nLCAnLW9tYWUnLCAnPG91dGZpbGUubWFlPic=

>  <s_epik_input>  (1) 
W0NIM11bQ0hdKFtDSDNdKVtDSDJdW0NIMl1bQ0BASF0oW09IXSlbQ0gyXVtDQEhdKFtDSDNdKU9bQ0gyXVtDQEBIXShbQ0gyXVtDSDJdMSlbQ0gyXVtDQEhdKFtDSDJdUCg9TykoW09IXSlbT0hdKVtDQEhdMVtDQEBIXShbQ0gyXVtDSDJdMilbQ0BASF0oW0NAXTIzW09IXSlbQ0BASF0oRilbQ0BIXShGKVtDSDJdW0NIMl1bQ0gyXVtDSDJdW0NIMl0z

>  <s_glide_docking_method>  (1) 
confgen

>  <s_i_glide_gridfile>  (1) 
gpcr_drd2_6luq_protein_autoprepared_prepared

>  <s_lp_Force_Field>  (1) 
S-OPLS

>  <s_lp_Variant>  (1) 
DiffSBDD_1-2

>  <s_m_source_file>  (1) 
generated_generic_title2_ligand_DiffSBDD_2026-06-23_prepared.sdf

>  <GenAI_Model>  (1) 
DiffSBDD

>  <Protein>  (1) 
generic_title2

$$$$
DiffSBDD_39
     RDKit          3D

  0  0  0  0  0  0  0  0  0  0999 V3000
M  V30 BEGIN CTAB
M  V30 COUNTS 69 72 0 0 1
M  V30 BEGIN ATOM
M  V30 1 C 7.965389 5.732282 -15.061625 0
M  V30 2 F 13.677096 5.065744 -20.161173 0
M  V30 3 F 11.797352 6.033029 -19.719740 0
M  V30 4 C 11.536021 8.828377 -9.584693 0
M  V30 5 C 7.619848 6.436783 -12.613441 0
M  V30 6 C 6.695922 4.790844 -11.001160 0 CFG=1
M  V30 7 O 12.766973 8.788113 -8.894471 0
M  V30 8 C 12.209879 5.041942 -16.747210 0 CFG=2
M  V30 9 C 7.518641 2.959223 -14.372583 0
M  V30 10 C 8.892365 5.953694 -10.441036 0 CFG=2
M  V30 11 O 14.406526 5.760931 -15.990146 0
M  V30 12 C 7.584088 3.437705 -15.835138 0
M  V30 13 N 8.410219 4.663199 -15.997809 0 CFG=2 CHG=1
M  V30 14 C 13.694195 6.784007 -18.563223 0
M  V30 15 C 7.995364 5.293190 -13.583861 0 CFG=1
M  V30 16 C 9.873463 4.398137 -15.985400 0
M  V30 17 O 13.115656 7.196480 -17.322087 0
M  V30 18 C 7.022867 3.648335 -11.985328 0
M  V30 19 N 7.575361 5.990261 -11.184607 0 CFG=1 CHG=1
M  V30 20 C 10.849053 7.463902 -9.520359 0 CFG=1
M  V30 21 C 10.413185 7.125172 -8.089528 0
M  V30 22 C 10.715349 5.451091 -16.708517 0
M  V30 23 C 7.052043 4.093377 -13.440569 0 CFG=2
M  V30 24 C 13.113259 6.221404 -16.321575 0 CFG=1
M  V30 25 C 12.626492 4.534606 -18.126925 0
M  V30 26 C 9.866431 5.703822 -8.023556 0
M  V30 27 C 12.936998 5.594132 -19.185373 0
M  V30 28 O 12.696776 3.331310 -18.374918 0
M  V30 29 C 8.678814 5.497353 -8.963666 0
M  V30 30 O 5.410402 5.332699 -11.218921 0
M  V30 31 C 9.651209 7.328270 -10.492130 0
M  V30 32 H 6.954699 6.037238 -15.337528 0
M  V30 33 H 8.575367 6.605145 -15.185007 0
M  V30 34 H 10.892908 9.603843 -9.184824 0
M  V30 35 H 11.761245 9.075312 -10.614475 0
M  V30 36 H 6.634011 6.815183 -12.884883 0
M  V30 37 H 8.282417 7.288581 -12.751426 0
M  V30 38 H 6.658686 4.406895 -9.985259 0
M  V30 39 H 13.308382 9.515102 -9.184996 0
M  V30 40 H 12.383161 4.244103 -16.024215 0
M  V30 41 H 6.833273 2.113566 -14.299737 0
M  V30 42 H 8.490745 2.585066 -14.048278 0
M  V30 43 H 9.529042 5.209013 -10.919880 0
M  V30 44 H 14.844571 6.441150 -15.500710 0
M  V30 45 H 6.575416 3.684280 -16.156897 0
M  V30 46 H 7.932630 2.641331 -16.493910 0
M  V30 47 H 14.749053 6.541495 -18.426360 0
M  V30 48 H 13.667481 7.632546 -19.247126 0
M  V30 49 H 9.004202 4.982768 -13.313706 0
M  V30 50 H 10.225085 4.390198 -14.957941 0
M  V30 51 H 10.076943 3.423965 -16.430344 0
M  V30 52 H 6.299130 2.838105 -11.877350 0
M  V30 53 H 8.015556 3.258136 -11.753629 0
M  V30 54 H 11.628382 6.790332 -9.837008 0
M  V30 55 H 11.249201 7.219832 -7.395328 0
M  V30 56 H 9.650695 7.830432 -7.753246 0
M  V30 57 H 10.317886 5.620190 -17.709643 0
M  V30 58 H 10.608243 6.390428 -16.184881 0
M  V30 59 H 6.041981 4.389090 -13.729989 0
M  V30 60 H 12.724813 6.687157 -15.413879 0
M  V30 61 H 10.644076 4.984005 -8.263169 0
M  V30 62 H 9.555238 5.496031 -7.001174 0
M  V30 63 H 8.461835 4.431856 -8.925764 0
M  V30 64 H 7.810955 5.990325 -8.530270 0
M  V30 65 H 4.916055 5.243795 -10.414457 0
M  V30 66 H 8.975442 8.150026 -10.271184 0
M  V30 67 H 10.021852 7.511020 -11.500316 0
M  V30 68 H 8.216684 4.995487 -16.932957 0
M  V30 69 H 7.096574 6.730526 -10.663614 0
M  V30 END ATOM
M  V30 BEGIN BOND
M  V30 1 1 7 4
M  V30 2 1 12 9
M  V30 3 1 13 1
M  V30 4 1 13 12
M  V30 5 1 15 1
M  V30 6 1 15 5
M  V30 7 1 16 13
M  V30 8 1 17 14
M  V30 9 1 18 6
M  V30 10 1 19 5
M  V30 11 1 19 6
M  V30 12 1 19 10
M  V30 13 1 20 4
M  V30 14 1 21 20
M  V30 15 1 22 8
M  V30 16 1 22 16
M  V30 17 1 23 9
M  V30 18 1 23 15
M  V30 19 1 23 18
M  V30 20 1 24 8
M  V30 21 1 24 11
M  V30 22 1 24 17
M  V30 23 1 25 8
M  V30 24 1 26 21
M  V30 25 1 27 2
M  V30 26 1 27 3
M  V30 27 1 27 14
M  V30 28 1 27 25
M  V30 29 2 28 25
M  V30 30 1 29 10
M  V30 31 1 29 26
M  V30 32 1 30 6
M  V30 33 1 31 10
M  V30 34 1 31 20
M  V30 35 1 32 1
M  V30 36 1 33 1
M  V30 37 1 34 4
M  V30 38 1 35 4
M  V30 39 1 36 5
M  V30 40 1 37 5
M  V30 41 1 6 38 CFG=1
M  V30 42 1 39 7
M  V30 43 1 8 40 CFG=1
M  V30 44 1 41 9
M  V30 45 1 42 9
M  V30 46 1 10 43 CFG=3
M  V30 47 1 44 11
M  V30 48 1 45 12
M  V30 49 1 46 12
M  V30 50 1 47 14
M  V30 51 1 48 14
M  V30 52 1 15 49 CFG=1
M  V30 53 1 50 16
M  V30 54 1 51 16
M  V30 55 1 52 18
M  V30 56 1 53 18
M  V30 57 1 20 54 CFG=3
M  V30 58 1 55 21
M  V30 59 1 56 21
M  V30 60 1 57 22
M  V30 61 1 58 22
M  V30 62 1 23 59 CFG=3
M  V30 63 1 24 60 CFG=1
M  V30 64 1 61 26
M  V30 65 1 62 26
M  V30 66 1 63 29
M  V30 67 1 64 29
M  V30 68 1 65 30
M  V30 69 1 66 31
M  V30 70 1 67 31
M  V30 71 1 13 68 CFG=3
M  V30 72 1 19 69 CFG=1
M  V30 END BOND
M  V30 END CTAB
M  END
>  <i_epik_Tot_Q>  (1) 
2

>  <i_epik_Tot_abs_Q>  (1) 
2

>  <i_i_glide_confnum>  (1) 
130

>  <i_i_glide_lignum>  (1) 
112

>  <i_i_glide_posenum>  (1) 
148

>  <i_i_glide_rotatable_bonds>  (1) 
8

>  <i_lp_mmshare_version>  (1) 
72125

>  <i_m_source_file_index>  (1) 
40

>  <i_f3d_flags>  (1) 
0

>  <num_sample>  (1) 
50

>  <b_lp_Chiralities_Consistent>  (1) 
1

>  <r_epik_Charging_Adjusted_Penalty>  (1) 
1.743801429740254

>  <r_epik_Ionization_Penalty>  (1) 
1.6051069046209219

>  <r_epik_Ionization_Penalty_Charging>  (1) 
0.6098477401054202

>  <r_epik_Ionization_Penalty_Neutral>  (1) 
0.99525916451550167

>  <r_epik_State_Penalty>  (1) 
1.1339536896348337

>  <r_glide_ring_energy>  (1) 
1.2534239858202167

>  <r_i_docking_score>  (1) 
-4.2682181790010763

>  <r_i_glide_ecoul>  (1) 
-11.59787214104291

>  <r_i_glide_eff_state_penalty>  (1) 
1.1339536896348337

>  <r_i_glide_einternal>  (1) 
7.8966643641568472

>  <r_i_glide_emodel>  (1) 
-38.022846704669512

>  <r_i_glide_emodel_strain>  (1) 
2.0943724490124538

>  <r_i_glide_energy>  (1) 
-32.954498202358295

>  <r_i_glide_erotb>  (1) 
0.49785121930328097

>  <r_i_glide_esite>  (1) 
-0.13120991392679682

>  <r_i_glide_evdw>  (1) 
-21.356626061315382

>  <r_i_glide_gscore>  (1) 
-5.4021718686359099

>  <r_i_glide_gscore_strain>  (1) 
0

>  <r_i_glide_hbond>  (1) 
-0.52000000000000002

>  <r_i_glide_ligand_efficiency>  (1) 
-0.1376844573871315

>  <r_i_glide_ligand_efficiency_ln>  (1) 
-0.96261400454282131

>  <r_i_glide_ligand_efficiency_sa>  (1) 
-0.43251929057094213

>  <r_i_glide_lipo>  (1) 
-0.99887617891083247

>  <r_i_glide_metal>  (1) 
-0

>  <r_i_glide_rewards>  (1) 
-1.4424248708793559

>  <r_lp_Energy>  (1) 
50.801770999999995

>  <r_lp_tautomer_probability>  (1) 
0.99995000000000001

>  <s_epik_Chemistry_Notes>  (1) 
This compound contains an acetal/aminal-like group ( X-CH(R)-Y where X, Y are N, S, or O) that may be acid/base labile, releasing an aldehyde.

>  <s_epik_cmdline>  (1) 
J2VwaWtfcHl0aG9uJywgJy1waHQnLCAnMS4wJywgJy1waCcsICc3LjQnLCAnLXRuJywgJzgnLCAnLW1hJywgJzUwMCcsICctaW1hZScsICc8aW5maWxlLm1hZT4nLCAnLW9tYWUnLCAnPG91dGZpbGUubWFlPic=

>  <s_epik_input>  (1) 
RkMxKEYpW0NIMl1PW0NASF0oW09IXSlbQ0BIXShDMT1PKVtDSDJdW0NIMl1OKFtDSDJdMilbQ0gyXVtDSDJdW0NASF0oW0NAQEhdMjMpW0NIMl1bQ0BIXShbT0hdKU4oW0NIMl0zKVtDQEBIXTRbQ0gyXVtDSDJdW0NIMl1bQ0BASF0oW0NIMl00KVtDSDJdW09IXQ==

>  <s_glide_docking_method>  (1) 
confgen

>  <s_i_glide_gridfile>  (1) 
gpcr_drd2_6luq_protein_autoprepared_prepared

>  <s_lp_Force_Field>  (1) 
S-OPLS

>  <s_lp_Variant>  (1) 
DiffSBDD_39-8

>  <s_m_source_file>  (1) 
generated_generic_title2_ligand_DiffSBDD_2026-06-23_prepared.sdf

>  <GenAI_Model>  (1) 
DiffSBDD

>  <Protein>  (1) 
generic_title2

$$$$
DiffSBDD_48
     RDKit          3D

  0  0  0  0  0  0  0  0  0  0999 V3000
M  V30 BEGIN CTAB
M  V30 COUNTS 43 43 0 0 1
M  V30 BEGIN ATOM
M  V30 1 C 8.028295 4.125570 -13.892659 0 CFG=2
M  V30 2 C 5.208153 6.061263 -19.153898 0
M  V30 3 C 6.785720 4.969877 -14.328167 0 CFG=2
M  V30 4 C 6.486468 6.092558 -16.641923 0
M  V30 5 O 9.372392 5.626527 -10.371737 0 CHG=-1
M  V30 6 O 7.377557 2.331393 -16.033603 0
M  V30 7 F 8.215220 4.699539 -17.542865 0
M  V30 8 C 9.207694 5.878093 -12.728335 0
M  V30 9 C 5.279998 6.799462 -16.828319 0
M  V30 10 C 7.755410 2.619398 -13.668018 0
M  V30 11 C 7.468886 1.801692 -14.926367 0
M  V30 12 C 7.181802 6.117855 -15.293181 0
M  V30 13 C 9.775447 6.269250 -11.367288 0
M  V30 14 C 5.350197 5.663394 -11.004383 0
M  V30 15 C 6.411816 5.355850 -18.968448 0
M  V30 16 C 7.296949 0.295746 -14.745733 0
M  V30 17 O 10.608738 7.201119 -11.349545 0
M  V30 18 O 8.585295 4.597856 -12.672609 0
M  V30 19 O 7.936260 -0.409839 -15.787924 0
M  V30 20 C 5.531994 4.801796 -12.248170 0
M  V30 21 O 6.147621 5.618200 -13.230301 0
M  V30 22 F 4.594143 6.044303 -20.360493 0
M  V30 23 C 4.642322 6.784869 -18.084580 0
M  V30 24 C 7.052757 5.372212 -17.715432 0
M  V30 25 H 8.805774 4.180378 -14.656723 0
M  V30 26 H 6.046622 4.329936 -14.805561 0
M  V30 27 H 10.014463 5.881871 -13.462645 0
M  V30 28 H 8.498596 6.654827 -13.006409 0
M  V30 29 H 4.846513 7.355182 -16.009455 0
M  V30 30 H 6.934023 2.445974 -12.979142 0
M  V30 31 H 8.633270 2.178736 -13.194715 0
M  V30 32 H 6.983569 7.086754 -14.831561 0
M  V30 33 H 8.256019 6.120679 -15.473167 0
M  V30 34 H 4.893893 5.088956 -10.206307 0
M  V30 35 H 6.323085 5.990257 -10.638261 0
M  V30 36 H 4.742419 6.548668 -11.186824 0
M  V30 37 H 6.845214 4.803280 -19.788819 0
M  V30 38 H 6.234274 0.051044 -14.733299 0
M  V30 39 H 7.720043 -0.009447 -13.788670 0
M  V30 40 H 7.831750 -1.342649 -15.615958 0
M  V30 41 H 4.589038 4.390651 -12.613880 0
M  V30 42 H 6.158313 3.971118 -11.943488 0
M  V30 43 H 3.719179 7.327140 -18.228325 0
M  V30 END ATOM
M  V30 BEGIN BOND
M  V30 1 1 3 1
M  V30 2 1 9 4
M  V30 3 1 10 1
M  V30 4 2 11 6
M  V30 5 1 11 10
M  V30 6 1 12 3
M  V30 7 1 12 4
M  V30 8 1 13 5
M  V30 9 1 13 8
M  V30 10 2 15 2
M  V30 11 1 16 11
M  V30 12 2 17 13
M  V30 13 1 18 1
M  V30 14 1 18 8
M  V30 15 1 19 16
M  V30 16 1 20 14
M  V30 17 1 21 3
M  V30 18 1 21 20
M  V30 19 1 22 2
M  V30 20 1 23 2
M  V30 21 2 23 9
M  V30 22 2 24 4
M  V30 23 1 24 7
M  V30 24 1 24 15
M  V30 25 1 1 25 CFG=3
M  V30 26 1 3 26 CFG=3
M  V30 27 1 27 8
M  V30 28 1 28 8
M  V30 29 1 29 9
M  V30 30 1 30 10
M  V30 31 1 31 10
M  V30 32 1 32 12
M  V30 33 1 33 12
M  V30 34 1 34 14
M  V30 35 1 35 14
M  V30 36 1 36 14
M  V30 37 1 37 15
M  V30 38 1 38 16
M  V30 39 1 39 16
M  V30 40 1 40 19
M  V30 41 1 41 20
M  V30 42 1 42 20
M  V30 43 1 43 23
M  V30 END BOND
M  V30 END CTAB
M  END
>  <i_epik_Tot_Q>  (1) 
-1

>  <i_epik_Tot_abs_Q>  (1) 
1

>  <i_i_glide_confnum>  (1) 
1081

>  <i_i_glide_lignum>  (1) 
127

>  <i_i_glide_posenum>  (1) 
38

>  <i_i_glide_rotatable_bonds>  (1) 
12

>  <i_lp_mmshare_version>  (1) 
72125

>  <i_m_source_file_index>  (1) 
49

>  <i_f3d_flags>  (1) 
0

>  <num_sample>  (1) 
50

>  <b_lp_Chiralities_Consistent>  (1) 
1

>  <r_epik_Charging_Adjusted_Penalty>  (1) 
7.9156217055703786e-05

>  <r_epik_Ionization_Penalty>  (1) 
8.8264238192330274e-05

>  <r_epik_Ionization_Penalty_Charging>  (1) 
7.9156217055703786e-05

>  <r_epik_Ionization_Penalty_Neutral>  (1) 
9.1080211366264862e-06

>  <r_epik_State_Penalty>  (1) 
-0

>  <r_glide_ring_energy>  (1) 
0

>  <r_i_docking_score>  (1) 
-4.2675905033731842

>  <r_i_glide_ecoul>  (1) 
-3.0708308552291248

>  <r_i_glide_eff_state_penalty>  (1) 
-0

>  <r_i_glide_einternal>  (1) 
12.90217615931401

>  <r_i_glide_emodel>  (1) 
-29.224413389833913

>  <r_i_glide_emodel_strain>  (1) 
0.68748692501797137

>  <r_i_glide_energy>  (1) 
-28.283460636269144

>  <r_i_glide_erotb>  (1) 
1.2745455854061123

>  <r_i_glide_esite>  (1) 
-0.022737557417055909

>  <r_i_glide_evdw>  (1) 
-25.212629781040018

>  <r_i_glide_gscore>  (1) 
-4.2675905033731842

>  <r_i_glide_gscore_strain>  (1) 
0

>  <r_i_glide_hbond>  (1) 
-0.32000000000000001

>  <r_i_glide_ligand_efficiency>  (1) 
-0.17781627097388267

>  <r_i_glide_ligand_efficiency_ln>  (1) 
-1.0214302344251467

>  <r_i_glide_ligand_efficiency_sa>  (1) 
-0.51291088081149594

>  <r_i_glide_lipo>  (1) 
-1.9394581458738807

>  <r_i_glide_metal>  (1) 
-0

>  <r_i_glide_rewards>  (1) 
-1.5386842681519901

>  <r_lp_Energy>  (1) 
23.232806999999998

>  <r_lp_tautomer_probability>  (1) 
1

>  <s_epik_cmdline>  (1) 
J2VwaWtfcHl0aG9uJywgJy1waHQnLCAnMS4wJywgJy1waCcsICc3LjQnLCAnLXRuJywgJzgnLCAnLW1hJywgJzUwMCcsICctaW1hZScsICc8aW5maWxlLm1hZT4nLCAnLW9tYWUnLCAnPG91dGZpbGUubWFlPic=

>  <s_epik_input>  (1) 
W09IXUMoPU8pW0NIMl1PW0NAQEhdKFtDSDJdQyg9TylbQ0gyXVtPSF0pW0NASF0oT1tDSDJdW0NIM10pW0NIMl1jKFtjSF1bY0hdMSljKEYpW2NIXWMxRg==

>  <s_glide_docking_method>  (1) 
confgen

>  <s_i_glide_gridfile>  (1) 
gpcr_drd2_6luq_protein_autoprepared_prepared

>  <s_lp_Force_Field>  (1) 
S-OPLS

>  <s_lp_Variant>  (1) 
DiffSBDD_48-2

>  <s_m_source_file>  (1) 
generated_generic_title2_ligand_DiffSBDD_2026-06-23_prepared.sdf

>  <GenAI_Model>  (1) 
DiffSBDD

>  <Protein>  (1) 
generic_title2

$$$$
DiffSBDD_30
     RDKit          3D

  0  0  0  0  0  0  0  0  0  0999 V3000
M  V30 BEGIN CTAB
M  V30 COUNTS 45 45 0 0 1
M  V30 BEGIN ATOM
M  V30 1 C 7.765003 4.402708 -11.741276 0
M  V30 2 N 4.733285 7.162889 -18.012067 0 CHG=-1
M  V30 3 C 9.450126 6.995459 -6.784260 0
M  V30 4 O 5.831710 6.696885 -14.648456 0
M  V30 5 C 5.117432 6.450772 -19.201907 0
M  V30 6 C 10.470510 6.704414 -7.910330 0
M  V30 7 O 9.375415 7.958564 -9.718631 0
M  V30 8 F 10.975241 5.500757 -7.656595 0
M  V30 9 N 8.975715 8.386872 -6.805934 0 CHG=1
M  V30 10 C 5.732449 6.876790 -17.125972 0
M  V30 11 C 6.792709 4.530511 -12.931350 0 CFG=2
M  V30 12 C 6.353469 5.722199 -18.706567 0
M  V30 13 C 8.424856 5.705127 -11.246601 0
M  V30 14 C 9.985182 6.730642 -9.394992 0 CFG=2
M  V30 15 F 5.427441 7.299935 -20.182365 0
M  V30 16 F 4.175379 5.590184 -19.585087 0
M  V30 17 C 5.714147 7.579783 -15.766331 0
M  V30 18 O 6.961732 4.931406 -19.427752 0
M  V30 19 N 7.233875 6.525451 -14.334405 0
M  V30 20 F 11.473212 7.576364 -7.786566 0
M  V30 21 O 6.352133 3.216141 -13.205271 0
M  V30 22 C 7.423803 5.087154 -14.223612 0
M  V30 23 O 8.137340 5.190283 -8.917297 0
M  V30 24 N 6.663188 6.063270 -17.415126 0
M  V30 25 C 9.119521 5.525369 -9.872755 0 CFG=1
M  V30 26 H 7.189562 3.987338 -10.916052 0
M  V30 27 H 8.545171 3.674109 -11.969828 0
M  V30 28 H 8.590506 6.329675 -6.810209 0
M  V30 29 H 9.921872 6.824601 -5.815780 0
M  V30 30 H 8.407518 7.841981 -9.700764 0
M  V30 31 H 8.237391 8.501208 -6.126109 0
M  V30 32 H 8.603560 8.566856 -7.730576 0
M  V30 33 H 5.915370 5.111940 -12.641818 0
M  V30 34 H 9.156059 6.040908 -11.982851 0
M  V30 35 H 7.668376 6.488200 -11.185511 0
M  V30 36 H 10.881866 6.751756 -10.013812 0
M  V30 37 H 4.758080 8.093521 -15.658819 0
M  V30 38 H 6.469846 8.367530 -15.749644 0
M  V30 39 H 7.358507 6.958955 -13.430642 0
M  V30 40 H 5.902318 2.882559 -12.444530 0
M  V30 41 H 8.488596 4.855061 -14.253652 0
M  V30 42 H 6.981086 4.619363 -15.104229 0
M  V30 43 H 7.456487 5.854384 -8.946497 0
M  V30 44 H 9.775368 4.656466 -9.931980 0
M  V30 45 H 9.743829 9.014073 -6.624155 0
M  V30 END ATOM
M  V30 BEGIN BOND
M  V30 1 1 5 2
M  V30 2 1 6 3
M  V30 3 1 8 6
M  V30 4 1 9 3
M  V30 5 1 10 2
M  V30 6 1 11 1
M  V30 7 1 12 5
M  V30 8 1 13 1
M  V30 9 1 14 6
M  V30 10 1 14 7
M  V30 11 1 15 5
M  V30 12 1 16 5
M  V30 13 1 17 4
M  V30 14 1 17 10
M  V30 15 2 18 12
M  V30 16 1 19 4
M  V30 17 1 20 6
M  V30 18 1 21 11
M  V30 19 1 22 11
M  V30 20 1 22 19
M  V30 21 2 24 10
M  V30 22 1 24 12
M  V30 23 1 25 13
M  V30 24 1 25 14
M  V30 25 1 25 23
M  V30 26 1 26 1
M  V30 27 1 27 1
M  V30 28 1 28 3
M  V30 29 1 29 3
M  V30 30 1 30 7
M  V30 31 1 31 9
M  V30 32 1 32 9
M  V30 33 1 11 33 CFG=1
M  V30 34 1 34 13
M  V30 35 1 35 13
M  V30 36 1 14 36 CFG=3
M  V30 37 1 37 17
M  V30 38 1 38 17
M  V30 39 1 39 19
M  V30 40 1 40 21
M  V30 41 1 41 22
M  V30 42 1 42 22
M  V30 43 1 43 23
M  V30 44 1 25 44 CFG=3
M  V30 45 1 45 9
M  V30 END BOND
M  V30 END CTAB
M  END
>  <i_epik_Tot_Q>  (1) 
0

>  <i_epik_Tot_abs_Q>  (1) 
2

>  <i_i_glide_confnum>  (1) 
1020

>  <i_i_glide_lignum>  (1) 
92

>  <i_i_glide_posenum>  (1) 
226

>  <i_i_glide_rotatable_bonds>  (1) 
14

>  <i_lp_mmshare_version>  (1) 
72125

>  <i_m_source_file_index>  (1) 
31

>  <i_f3d_flags>  (1) 
0

>  <num_sample>  (1) 
50

>  <b_lp_Chiralities_Consistent>  (1) 
1

>  <r_epik_Charging_Adjusted_Penalty>  (1) 
1.1033345343036571

>  <r_epik_Ionization_Penalty>  (1) 
0.55249664061947246

>  <r_epik_Ionization_Penalty_Charging>  (1) 
0.55167603061160131

>  <r_epik_Ionization_Penalty_Neutral>  (1) 
0.00082061000787111938

>  <r_epik_State_Penalty>  (1) 
0.55165850369205582

>  <r_glide_ring_energy>  (1) 
0

>  <r_i_docking_score>  (1) 
-4.260633332995007

>  <r_i_glide_ecoul>  (1) 
-10.66082973100073

>  <r_i_glide_eff_state_penalty>  (1) 
0.55165850369205582

>  <r_i_glide_einternal>  (1) 
13.294701416829213

>  <r_i_glide_emodel>  (1) 
-41.570277880086493

>  <r_i_glide_emodel_strain>  (1) 
1.5496676527853523

>  <r_i_glide_energy>  (1) 
-34.994978979522394

>  <r_i_glide_erotb>  (1) 
1.2301891588113794

>  <r_i_glide_esite>  (1) 
-0.074463478107834866

>  <r_i_glide_evdw>  (1) 
-24.334149248521665

>  <r_i_glide_gscore>  (1) 
-4.8122918366870628

>  <r_i_glide_gscore_strain>  (1) 
0

>  <r_i_glide_hbond>  (1) 
-0.27883236882294915

>  <r_i_glide_ligand_efficiency>  (1) 
-0.17042533331980028

>  <r_i_glide_ligand_efficiency_ln>  (1) 
-1.0098977807975922

>  <r_i_glide_ligand_efficiency_sa>  (1) 
-0.49832669766793625

>  <r_i_glide_lipo>  (1) 
-0.81041938855989815

>  <r_i_glide_metal>  (1) 
-0

>  <r_i_glide_rewards>  (1) 
-2.0629338379315669

>  <r_lp_Energy>  (1) 
17.800135000000001

>  <s_epik_Chemistry_Notes>  (1) 
This compound has an imine and may undergo hydrolysis. This compound has a N-S or N-O group and may undergo hydrolysis at high or low pH.

>  <s_epik_cmdline>  (1) 
J2VwaWtfcHl0aG9uJywgJy1waHQnLCAnMS4wJywgJy1waCcsICc3LjQnLCAnLXRuJywgJzgnLCAnLW1hJywgJzUwMCcsICctaW1hZScsICc8aW5maWxlLm1hZT4nLCAnLW9tYWUnLCAnPG91dGZpbGUubWFlPic=

>  <s_epik_input>  (1) 
W05IMl1bQ0gyXUMoRikoRilbQ0BASF0oW09IXSlbQ0BASF0oW09IXSlbQ0gyXVtDSDJdW0NASF0oW09IXSlbQ0gyXVtOSF1PW0NIMl1DKD1OQzEoRilGKVtOSF1DMT1P

>  <s_glide_docking_method>  (1) 
confgen

>  <s_i_glide_gridfile>  (1) 
gpcr_drd2_6luq_protein_autoprepared_prepared

>  <s_lp_Force_Field>  (1) 
S-OPLS

>  <s_lp_Variant>  (1) 
DiffSBDD_30-4

>  <s_m_source_file>  (1) 
generated_generic_title2_ligand_DiffSBDD_2026-06-23_prepared.sdf

>  <GenAI_Model>  (1) 
DiffSBDD

>  <Protein>  (1) 
generic_title2

$$$$
DiffSBDD_0
     RDKit          3D

  0  0  0  0  0  0  0  0  0  0999 V3000
M  V30 BEGIN CTAB
M  V30 COUNTS 70 74 0 0 1
M  V30 BEGIN ATOM
M  V30 1 C 12.300706 8.126592 -7.584943 0
M  V30 2 N 7.727285 4.390213 -14.085200 0
M  V30 3 C 7.799877 3.853372 -18.337207 0 CFG=1
M  V30 4 C 8.897553 3.899083 -11.997866 0
M  V30 5 F 9.884642 8.390252 -10.344097 0
M  V30 6 C 6.963380 5.352242 -14.892441 0
M  V30 7 C 11.565512 7.081600 -6.708278 0
M  V30 8 C 9.160074 5.616310 -10.342565 0
M  V30 9 C 9.595033 7.151125 -8.295063 0 CFG=1
M  V30 10 C 10.430916 4.250513 -18.250023 0
M  V30 11 C 7.877889 3.045042 -14.664645 0 CFG=2
M  V30 12 C 6.146260 0.399213 -13.365067 0
M  V30 13 C 9.213351 3.653400 -18.895294 0 CFG=1
M  V30 14 O 9.360883 4.279341 -10.762125 0
M  V30 15 C 10.316334 8.253915 -9.092997 0 CFG=1
M  V30 16 C 8.426835 2.476365 -18.342964 0 CFG=1
M  V30 17 N 7.555518 4.070240 -16.886293 0 CFG=1 CHG=1
M  V30 18 C 9.601199 5.725825 -8.880676 0
M  V30 19 C 6.233587 1.922237 -13.414906 0
M  V30 20 C 8.430183 3.209449 -16.086293 0 CFG=2
M  V30 21 O 4.917590 -0.009767 -13.903425 0
M  V30 22 C 10.047887 7.180872 -6.833036 0
M  V30 23 N 10.559106 5.587170 -18.005441 0
M  V30 24 C 7.467489 5.441086 -16.350338 0
M  V30 25 N 11.467816 3.489311 -17.894745 0
M  V30 26 O 12.382726 4.400082 -17.340836 0
M  V30 27 C 11.766978 5.592122 -17.464994 0
M  V30 28 O 6.690420 2.337022 -14.701169 0
M  V30 29 N 12.498217 6.676441 -17.006591 0
M  V30 30 C 8.228679 4.731181 -12.831816 0
M  V30 31 C 11.834616 8.109370 -9.044095 0
M  V30 32 C 13.816327 6.760349 -16.407435 0
M  V30 33 C 8.591418 1.945845 -16.927089 0
M  V30 34 H 12.136999 9.120819 -7.166564 0
M  V30 35 H 13.375291 7.964731 -7.585056 0
M  V30 36 H 6.952618 4.050622 -18.991178 0
M  V30 37 H 9.128065 2.867592 -12.211361 0
M  V30 38 H 5.917274 5.044467 -14.877958 0
M  V30 39 H 6.995960 6.343418 -14.438742 0
M  V30 40 H 11.775411 7.222844 -5.649477 0
M  V30 41 H 11.890124 6.074293 -6.966334 0
M  V30 42 H 9.770955 6.232612 -10.998353 0
M  V30 43 H 8.116292 5.924585 -10.418660 0
M  V30 44 H 8.575414 7.454181 -8.247465 0
M  V30 45 H 8.575399 2.450026 -14.086661 0
M  V30 46 H 6.177467 0.056331 -12.330420 0
M  V30 47 H 6.976753 -0.073257 -13.890815 0
M  V30 48 H 9.320175 3.708637 -19.976563 0
M  V30 49 H 10.045342 9.190227 -8.624126 0
M  V30 50 H 8.075970 1.752600 -19.076005 0
M  V30 51 H 8.930830 5.106720 -8.283807 0
M  V30 52 H 10.575402 5.275993 -8.762508 0
M  V30 53 H 5.279503 2.391655 -13.188626 0
M  V30 54 H 6.900932 2.232713 -12.613792 0
M  V30 55 H 9.394747 3.700438 -15.984911 0
M  V30 56 H 4.867521 -0.962228 -13.775451 0
M  V30 57 H 9.718229 8.116211 -6.379398 0
M  V30 58 H 9.562644 6.386790 -6.262826 0
M  V30 59 H 6.786050 6.040363 -16.955306 0
M  V30 60 H 8.443682 5.924629 -16.380032 0
M  V30 61 H 12.037513 7.569470 -17.108941 0
M  V30 62 H 8.027578 5.757456 -12.564192 0
M  V30 63 H 12.306885 8.926638 -9.589609 0
M  V30 64 H 12.143541 7.189997 -9.538827 0
M  V30 65 H 14.151180 7.797309 -16.385972 0
M  V30 66 H 13.796102 6.380777 -15.384145 0
M  V30 67 H 14.537483 6.177795 -16.981379 0
M  V30 68 H 7.805859 1.216106 -16.725802 0
M  V30 69 H 9.561290 1.466539 -16.789416 0
M  V30 70 H 6.640150 3.672978 -16.725532 0
M  V30 END ATOM
M  V30 BEGIN BOND
M  V30 1 1 6 2
M  V30 2 1 7 1
M  V30 3 1 11 2
M  V30 4 1 13 3
M  V30 5 1 13 10
M  V30 6 1 14 4
M  V30 7 1 14 8
M  V30 8 1 15 5
M  V30 9 1 15 9
M  V30 10 1 16 3
M  V30 11 1 16 13
M  V30 12 1 17 3
M  V30 13 1 18 8
M  V30 14 1 18 9
M  V30 15 1 19 12
M  V30 16 1 20 11
M  V30 17 1 20 17
M  V30 18 1 21 12
M  V30 19 1 22 7
M  V30 20 1 22 9
M  V30 21 1 23 10
M  V30 22 1 24 6
M  V30 23 1 24 17
M  V30 24 2 25 10
M  V30 25 1 26 25
M  V30 26 2 27 23
M  V30 27 1 27 26
M  V30 28 1 28 11
M  V30 29 1 28 19
M  V30 30 1 29 27
M  V30 31 1 30 2
M  V30 32 2 30 4
M  V30 33 1 31 1
M  V30 34 1 31 15
M  V30 35 1 32 29
M  V30 36 1 33 16
M  V30 37 1 33 20
M  V30 38 1 34 1
M  V30 39 1 35 1
M  V30 40 1 3 36 CFG=3
M  V30 41 1 37 4
M  V30 42 1 38 6
M  V30 43 1 39 6
M  V30 44 1 40 7
M  V30 45 1 41 7
M  V30 46 1 42 8
M  V30 47 1 43 8
M  V30 48 1 9 44 CFG=1
M  V30 49 1 11 45 CFG=1
M  V30 50 1 46 12
M  V30 51 1 47 12
M  V30 52 1 13 48 CFG=3
M  V30 53 1 15 49 CFG=1
M  V30 54 1 16 50 CFG=3
M  V30 55 1 51 18
M  V30 56 1 52 18
M  V30 57 1 53 19
M  V30 58 1 54 19
M  V30 59 1 20 55 CFG=1
M  V30 60 1 56 21
M  V30 61 1 57 22
M  V30 62 1 58 22
M  V30 63 1 59 24
M  V30 64 1 60 24
M  V30 65 1 61 29
M  V30 66 1 62 30
M  V30 67 1 63 31
M  V30 68 1 64 31
M  V30 69 1 65 32
M  V30 70 1 66 32
M  V30 71 1 67 32
M  V30 72 1 68 33
M  V30 73 1 69 33
M  V30 74 1 17 70 CFG=3
M  V30 END BOND
M  V30 END CTAB
M  END
>  <i_epik_Tot_Q>  (1) 
1

>  <i_epik_Tot_abs_Q>  (1) 
1

>  <i_i_glide_confnum>  (1) 
116

>  <i_i_glide_lignum>  (1) 
10

>  <i_i_glide_posenum>  (1) 
166

>  <i_i_glide_rotatable_bonds>  (1) 
11

>  <i_lp_mmshare_version>  (1) 
72125

>  <i_m_source_file_index>  (1) 
1

>  <i_f3d_flags>  (1) 
0

>  <num_sample>  (1) 
50

>  <b_lp_Chiralities_Consistent>  (1) 
1

>  <r_epik_Charging_Adjusted_Penalty>  (1) 
0.41344222577729461

>  <r_epik_Ionization_Penalty>  (1) 
0.0027644559619576371

>  <r_epik_Ionization_Penalty_Charging>  (1) 
0.0027623868246906495

>  <r_epik_Ionization_Penalty_Neutral>  (1) 
2.0691372669875143e-06

>  <r_epik_State_Penalty>  (1) 
0.41067983895260396

>  <r_glide_ring_energy>  (1) 
1.7272227408313714

>  <r_i_docking_score>  (1) 
-4.2549098211914682

>  <r_i_glide_ecoul>  (1) 
-4.2742132750718476

>  <r_i_glide_eff_state_penalty>  (1) 
0.41067983895260396

>  <r_i_glide_einternal>  (1) 
7.2191567334685018

>  <r_i_glide_emodel>  (1) 
-40.294268476792027

>  <r_i_glide_emodel_strain>  (1) 
0.41359591997805012

>  <r_i_glide_energy>  (1) 
-34.304105285760429

>  <r_i_glide_erotb>  (1) 
0.74142510397790429

>  <r_i_glide_esite>  (1) 
-0.080646612542139381

>  <r_i_glide_evdw>  (1) 
-30.029892010688584

>  <r_i_glide_gscore>  (1) 
-4.6655896601440725

>  <r_i_glide_gscore_strain>  (1) 
0

>  <r_i_glide_hbond>  (1) 
-0.16

>  <r_i_glide_ligand_efficiency>  (1) 
-0.12893666124822631

>  <r_i_glide_ligand_efficiency_ln>  (1) 
-0.94626991348898848

>  <r_i_glide_ligand_efficiency_sa>  (1) 
-0.41356876734872844

>  <r_i_glide_lipo>  (1) 
-2.0557012054495107

>  <r_i_glide_metal>  (1) 
-0

>  <r_i_glide_rewards>  (1) 
-0.96804035433512015

>  <r_lp_Energy>  (1) 
42.684458999999997

>  <r_lp_tautomer_probability>  (1) 
0.5

>  <s_epik_Chemistry_Notes>  (1) 
This compound has an imine and may undergo hydrolysis. This compound contains an acetal/aminal-like group ( X-CH(R)-Y where X, Y are N, S, or O) that may be acid/base labile, releasing an aldehyde.

>  <s_epik_cmdline>  (1) 
J2VwaWtfcHl0aG9uJywgJy1waHQnLCAnMS4wJywgJy1waCcsICc3LjQnLCAnLXRuJywgJzgnLCAnLW1hJywgJzUwMCcsICctaW1hZScsICc8aW5maWxlLm1hZT4nLCAnLW9tYWUnLCAnPG91dGZpbGUubWFlPic=

>  <s_epik_input>  (1) 
W0NIMl0xW0NIMl1bQ0gyXVtDSDJdW0NASF0oRilbQ0BIXTFbQ0gyXVtDSDJdTy9bQ0hdPVtDSF0vTihbQ0BIXTJPW0NIMl1bQ0gyXVtPSF0pW0NIMl1bQ0gyXU4zW0NAQEhdMltDSDJdW0NAQEhdKFtDQEBIXTM0KVtDQEBIXTRjNW5jKG9uNSlbTkhdW0NIM10=

>  <s_glide_docking_method>  (1) 
confgen

>  <s_i_glide_gridfile>  (1) 
gpcr_drd2_6luq_protein_autoprepared_prepared

>  <s_lp_Force_Field>  (1) 
S-OPLS

>  <s_lp_Variant>  (1) 
DiffSBDD_0-10

>  <s_m_source_file>  (1) 
generated_generic_title2_ligand_DiffSBDD_2026-06-23_prepared.sdf

>  <GenAI_Model>  (1) 
DiffSBDD

>  <Protein>  (1) 
generic_title2

$$$$
DiffSBDD_28
     RDKit          3D

  0  0  0  0  0  0  0  0  0  0999 V3000
M  V30 BEGIN CTAB
M  V30 COUNTS 79 86 0 0 1
M  V30 BEGIN ATOM
M  V30 1 F 6.324752 2.464521 -19.305383 0
M  V30 2 C 10.413074 7.438253 -8.305685 0 CFG=1
M  V30 3 C 8.174473 6.001866 -11.085657 0 CFG=2
M  V30 4 C 10.815154 6.560124 -5.679410 0 CFG=2
M  V30 5 C 8.092967 5.511201 -16.172124 0 CFG=1
M  V30 6 C 11.775439 6.951396 -8.534636 0
M  V30 7 C 8.144604 5.989710 -13.572533 0 CFG=2
M  V30 8 C 5.787347 5.592647 -18.661088 0 CFG=1
M  V30 9 C 8.104916 4.966292 -9.964089 0
M  V30 10 C 6.605276 5.778648 -16.268619 0 CFG=1
M  V30 11 C 10.083683 8.956715 -6.785803 0 CFG=1
M  V30 12 C 10.149389 5.758085 -12.205756 0
M  V30 13 C 10.313390 7.485277 -6.777314 0 CFG=1
M  V30 14 O 11.100334 9.682706 -6.123592 0
M  V30 15 C 6.524700 3.583176 -20.091439 0 CFG=1
M  V30 16 C 8.829300 5.493123 -14.858905 0 CFG=1
M  V30 17 O 8.365999 4.288703 -15.458315 0
M  V30 18 N 8.737091 5.450408 -12.334087 0
M  V30 19 O 10.994998 6.307516 -3.283122 0
M  V30 20 C 5.688378 3.576087 -21.314030 0
M  V30 21 O 9.414680 6.685109 -6.020360 0
M  V30 22 C 6.066322 6.409412 -14.961239 0
M  V30 23 C 10.137807 8.915256 -8.316756 0
M  V30 24 N 9.375285 6.735688 -9.104614 0 CFG=2 CHG=1
M  V30 25 C 11.346393 7.136078 -4.368479 0
M  V30 26 N 5.002395 6.482906 -19.539150 0 CHG=1
M  V30 27 C 6.623768 5.746083 -13.704164 0
M  V30 28 C 4.369923 7.505238 -18.700773 0
M  V30 29 C 5.183272 7.540845 -17.416282 0
M  V30 30 O 4.950787 4.528788 -21.566461 0
M  V30 31 C 10.236574 7.131742 -11.553396 0
M  V30 32 C 6.932491 4.901125 -19.435466 0
M  V30 33 O 6.982460 3.409515 -21.477286 0
M  V30 34 N 6.221958 6.481232 -17.539331 0 CFG=2 CHG=1
M  V30 35 C 9.220087 5.284209 -8.971740 0
M  V30 36 C 11.654616 6.634184 -2.072110 0
M  V30 37 C 9.089872 7.116751 -10.535990 0 CFG=1
M  V30 38 H 7.165703 6.383017 -11.213459 0
M  V30 39 H 11.227442 5.590278 -5.939757 0
M  V30 40 H 8.692377 5.639170 -17.069934 0
M  V30 41 H 12.533485 7.592013 -8.081760 0
M  V30 42 H 11.775359 6.011973 -7.996048 0
M  V30 43 H 12.068414 6.790993 -9.561426 0
M  V30 44 H 8.273098 7.071483 -13.557186 0
M  V30 45 H 5.098512 4.844626 -18.274237 0
M  V30 46 H 8.200079 3.984004 -10.384416 0
M  V30 47 H 7.132769 5.023077 -9.474656 0
M  V30 48 H 6.175091 4.790146 -16.303605 0
M  V30 49 H 9.092982 9.190057 -6.408930 0
M  V30 50 H 10.575022 4.980908 -11.585996 0
M  V30 51 H 10.709185 5.725205 -13.131174 0
M  V30 52 H 10.889636 10.601082 -6.201340 0
M  V30 53 H 9.905048 5.590814 -14.943300 0
M  V30 54 H 4.986334 6.293690 -14.904335 0
M  V30 55 H 6.286499 7.476572 -14.923950 0
M  V30 56 H 9.178509 9.189899 -8.750284 0
M  V30 57 H 10.964760 9.474529 -8.768528 0
M  V30 58 H 12.432979 7.204649 -4.385329 0
M  V30 59 H 10.975716 8.145136 -4.216544 0
M  V30 60 H 4.328071 5.954628 -20.082820 0
M  V30 61 H 6.404571 4.676866 -13.711843 0
M  V30 62 H 6.064039 6.157519 -12.868836 0
M  V30 63 H 3.359468 7.194195 -18.445950 0
M  V30 64 H 4.318805 8.464997 -19.210696 0
M  V30 65 H 4.464837 7.366050 -16.619949 0
M  V30 66 H 5.641317 8.507125 -17.212534 0
M  V30 67 H 11.217211 7.433699 -11.219534 0
M  V30 68 H 9.991490 7.869857 -12.317889 0
M  V30 69 H 7.360178 5.575473 -20.178199 0
M  V30 70 H 7.753659 4.648109 -18.769993 0
M  V30 71 H 10.138220 4.773884 -9.254072 0
M  V30 72 H 8.961694 4.988494 -7.955367 0
M  V30 73 H 11.281046 5.986262 -1.279739 0
M  V30 74 H 12.730395 6.470456 -2.150766 0
M  V30 75 H 11.474753 7.669450 -1.774676 0
M  V30 76 H 8.596586 8.086109 -10.601888 0
M  V30 77 H 8.502829 7.070784 -8.695514 0
M  V30 78 H 5.628492 6.950762 -20.180989 0
M  V30 79 H 7.050109 6.964410 -17.859121 0
M  V30 END ATOM
M  V30 BEGIN BOND
M  V30 1 1 2 6 CFG=1
M  V30 2 1 9 3
M  V30 3 1 10 5
M  V30 4 1 13 2
M  V30 5 1 13 4
M  V30 6 1 13 11
M  V30 7 1 14 11
M  V30 8 1 15 1 CFG=1
M  V30 9 1 16 5
M  V30 10 1 16 7
M  V30 11 1 17 5
M  V30 12 1 17 16
M  V30 13 1 18 3
M  V30 14 1 18 7
M  V30 15 1 18 12
M  V30 16 1 20 15
M  V30 17 1 21 4
M  V30 18 1 13 21 CFG=3
M  V30 19 1 22 10
M  V30 20 1 23 2
M  V30 21 1 23 11
M  V30 22 1 24 2
M  V30 23 1 25 4
M  V30 24 1 25 19
M  V30 25 1 26 8
M  V30 26 1 27 7
M  V30 27 1 27 22
M  V30 28 1 28 26
M  V30 29 1 29 28
M  V30 30 2 30 20
M  V30 31 1 31 12
M  V30 32 1 32 8
M  V30 33 1 32 15
M  V30 34 1 33 15
M  V30 35 1 33 20
M  V30 36 1 34 8
M  V30 37 1 34 10
M  V30 38 1 34 29
M  V30 39 1 35 9
M  V30 40 1 35 24
M  V30 41 1 36 19
M  V30 42 1 37 3
M  V30 43 1 37 24
M  V30 44 1 37 31
M  V30 45 1 3 38 CFG=3
M  V30 46 1 4 39 CFG=3
M  V30 47 1 5 40 CFG=3
M  V30 48 1 41 6
M  V30 49 1 42 6
M  V30 50 1 43 6
M  V30 51 1 7 44 CFG=1
M  V30 52 1 8 45 CFG=1
M  V30 53 1 46 9
M  V30 54 1 47 9
M  V30 55 1 10 48 CFG=3
M  V30 56 1 11 49 CFG=3
M  V30 57 1 50 12
M  V30 58 1 51 12
M  V30 59 1 52 14
M  V30 60 1 16 53 CFG=3
M  V30 61 1 54 22
M  V30 62 1 55 22
M  V30 63 1 56 23
M  V30 64 1 57 23
M  V30 65 1 58 25
M  V30 66 1 59 25
M  V30 67 1 60 26
M  V30 68 1 61 27
M  V30 69 1 62 27
M  V30 70 1 63 28
M  V30 71 1 64 28
M  V30 72 1 65 29
M  V30 73 1 66 29
M  V30 74 1 67 31
M  V30 75 1 68 31
M  V30 76 1 69 32
M  V30 77 1 70 32
M  V30 78 1 71 35
M  V30 79 1 72 35
M  V30 80 1 73 36
M  V30 81 1 74 36
M  V30 82 1 75 36
M  V30 83 1 37 76 CFG=1
M  V30 84 1 24 77 CFG=1
M  V30 85 1 78 26
M  V30 86 1 34 79 CFG=3
M  V30 END BOND
M  V30 END CTAB
M  END
>  <i_epik_Tot_Q>  (1) 
3

>  <i_epik_Tot_abs_Q>  (1) 
3

>  <i_i_glide_confnum>  (1) 
300

>  <i_i_glide_lignum>  (1) 
85

>  <i_i_glide_posenum>  (1) 
46

>  <i_i_glide_rotatable_bonds>  (1) 
8

>  <i_lp_mmshare_version>  (1) 
72125

>  <i_m_source_file_index>  (1) 
29

>  <i_f3d_flags>  (1) 
0

>  <num_sample>  (1) 
50

>  <b_lp_Chiralities_Consistent>  (1) 
1

>  <r_epik_Charging_Adjusted_Penalty>  (1) 
2.5479580004866769

>  <r_epik_Ionization_Penalty>  (1) 
1.853674345886815

>  <r_epik_Ionization_Penalty_Charging>  (1) 
1.8530809818743854

>  <r_epik_Ionization_Penalty_Neutral>  (1) 
0.00059336401242958479

>  <r_epik_State_Penalty>  (1) 
0.69487701861229134

>  <r_glide_ring_energy>  (1) 
0.81914574756082947

>  <r_i_docking_score>  (1) 
-4.2548601261874186

>  <r_i_glide_ecoul>  (1) 
-4.5005162717947709

>  <r_i_glide_eff_state_penalty>  (1) 
0.69487701861229134

>  <r_i_glide_einternal>  (1) 
2.8266084204012714

>  <r_i_glide_emodel>  (1) 
-24.26704939680252

>  <r_i_glide_emodel_strain>  (1) 
5.0769630096953051

>  <r_i_glide_energy>  (1) 
-25.070461784843914

>  <r_i_glide_erotb>  (1) 
0.44698704239028575

>  <r_i_glide_esite>  (1) 
-0.10000000000000001

>  <r_i_glide_evdw>  (1) 
-20.569945513049142

>  <r_i_glide_gscore>  (1) 
-4.9497371447997098

>  <r_i_glide_gscore_strain>  (1) 
0.26924075242382628

>  <r_i_glide_hbond>  (1) 
-0.14124850412014417

>  <r_i_glide_ligand_efficiency>  (1) 
-0.11499621962668699

>  <r_i_glide_ligand_efficiency_ln>  (1) 
-0.92277941329633939

>  <r_i_glide_ligand_efficiency_sa>  (1) 
-0.38319291589672366

>  <r_i_glide_lipo>  (1) 
-2.4150833561676506

>  <r_i_glide_metal>  (1) 
-0

>  <r_i_glide_rewards>  (1) 
-1.3060583629043541

>  <r_lp_Energy>  (1) 
72.568534

>  <s_epik_Chemistry_Notes>  (1) 
This compound has an ester and may undergo hydrolysis at high or low pH. This compound contains an acetal/aminal-like group ( X-CH(R)-Y where X, Y are N, S, or O) that may be acid/base labile, releasing an aldehyde.

>  <s_epik_cmdline>  (1) 
J2VwaWtfcHl0aG9uJywgJy1waHQnLCAnMS4wJywgJy1waCcsICc3LjQnLCAnLXRuJywgJzgnLCAnLW1hJywgJzUwMCcsICctaW1hZScsICc8aW5maWxlLm1hZT4nLCAnLW9tYWUnLCAnPG91dGZpbGUubWFlPic=

>  <s_epik_input>  (1) 
Tz1DKE8xKUMxKEYpW0NIMl1bQ0BASF0yW05IXVtDSDJdW0NIMl1OMltDQEBIXTNbQ0gyXVtDSDJdW0NASF0oW0NAQEhdKE80KVtDQEhdMzQpTjVbQ0gyXVtDSDJdW0NAQEhdKFtDQEhdNTYpTihbQ0gyXVtDSDJdNilbQ0BAXShbQ0gzXSkoW0NIMl1bQ0BASF03W09IXSlbQ0BAXTc4W0NASF0oTzgpW0NIMl1PW0NIM10=

>  <s_glide_docking_method>  (1) 
confgen

>  <s_i_glide_gridfile>  (1) 
gpcr_drd2_6luq_protein_autoprepared_prepared

>  <s_lp_Force_Field>  (1) 
S-OPLS

>  <s_lp_Variant>  (1) 
DiffSBDD_28-8

>  <s_m_source_file>  (1) 
generated_generic_title2_ligand_DiffSBDD_2026-06-23_prepared.sdf

>  <GenAI_Model>  (1) 
DiffSBDD

>  <Protein>  (1) 
generic_title2

$$$$
DiffSBDD_30
     RDKit          3D

  0  0  0  0  0  0  0  0  0  0999 V3000
M  V30 BEGIN CTAB
M  V30 COUNTS 44 44 0 0 1
M  V30 BEGIN ATOM
M  V30 1 C 9.967402 6.704714 -9.440372 0
M  V30 2 N 6.175411 1.932107 -13.136454 0 CHG=-1
M  V30 3 C 11.600604 7.566379 -4.381420 0
M  V30 4 O 8.631915 3.743302 -12.791055 0
M  V30 5 C 5.852124 0.610666 -13.601528 0
M  V30 6 C 11.612532 8.818958 -5.284580 0
M  V30 7 O 9.585315 8.365315 -6.565655 0
M  V30 8 F 12.871196 9.224634 -5.452422 0
M  V30 9 N 12.175390 7.871123 -3.080618 0
M  V30 10 C 7.061486 2.398851 -14.061106 0
M  V30 11 C 9.651447 6.745762 -10.945883 0 CFG=2
M  V30 12 C 6.635671 0.575207 -14.902574 0
M  V30 13 C 11.187670 7.575730 -9.069332 0
M  V30 14 C 10.964971 8.636384 -6.684570 0 CFG=2
M  V30 15 F 4.543284 0.487055 -13.825178 0
M  V30 16 F 6.299540 -0.312005 -12.748228 0
M  V30 17 C 7.673206 3.772885 -13.839010 0
M  V30 18 O 6.569191 -0.389759 -15.662983 0
M  V30 19 N 9.210151 5.058279 -12.690379 0
M  V30 20 F 10.975200 9.813396 -4.661932 0
M  V30 21 O 8.975412 7.960348 -11.185037 0
M  V30 22 C 8.772407 5.558465 -11.394551 0
M  V30 23 O 11.375139 6.278823 -7.023848 0
M  V30 24 N 7.376158 1.717744 -15.084911 0
M  V30 25 C 11.611934 7.555093 -7.583044 0 CFG=1
M  V30 26 H 9.089465 6.990545 -8.859012 0
M  V30 27 H 10.175420 5.670741 -9.165769 0
M  V30 28 H 10.586119 7.178488 -4.302263 0
M  V30 29 H 12.175409 6.747945 -4.801004 0
M  V30 30 H 9.485925 7.424925 -6.501017 0
M  V30 31 H 13.120015 8.199637 -3.217877 0
M  V30 32 H 11.676488 8.650539 -2.676263 0
M  V30 33 H 10.586598 6.749692 -11.507889 0
M  V30 34 H 12.032405 7.217005 -9.658285 0
M  V30 35 H 11.026426 8.604590 -9.394624 0
M  V30 36 H 11.060737 9.590227 -7.193449 0
M  V30 37 H 6.877965 4.481352 -13.600275 0
M  V30 38 H 8.140621 4.112939 -14.765623 0
M  V30 39 H 10.209825 4.893807 -12.697165 0
M  V30 40 H 8.218269 7.990227 -10.596383 0
M  V30 41 H 8.870117 4.738443 -10.681749 0
M  V30 42 H 7.714066 5.822102 -11.418602 0
M  V30 43 H 11.732192 5.617362 -7.598613 0
M  V30 44 H 12.688943 7.725366 -7.582900 0
M  V30 END ATOM
M  V30 BEGIN BOND
M  V30 1 1 5 2
M  V30 2 1 6 3
M  V30 3 1 8 6
M  V30 4 1 9 3
M  V30 5 1 10 2
M  V30 6 1 11 1
M  V30 7 1 12 5
M  V30 8 1 13 1
M  V30 9 1 14 6
M  V30 10 1 14 7
M  V30 11 1 15 5
M  V30 12 1 16 5
M  V30 13 1 17 4
M  V30 14 1 17 10
M  V30 15 2 18 12
M  V30 16 1 19 4
M  V30 17 1 20 6
M  V30 18 1 21 11
M  V30 19 1 22 11
M  V30 20 1 22 19
M  V30 21 2 24 10
M  V30 22 1 24 12
M  V30 23 1 25 13
M  V30 24 1 25 14
M  V30 25 1 25 23
M  V30 26 1 26 1
M  V30 27 1 27 1
M  V30 28 1 28 3
M  V30 29 1 29 3
M  V30 30 1 30 7
M  V30 31 1 31 9
M  V30 32 1 32 9
M  V30 33 1 11 33 CFG=3
M  V30 34 1 34 13
M  V30 35 1 35 13
M  V30 36 1 14 36 CFG=3
M  V30 37 1 37 17
M  V30 38 1 38 17
M  V30 39 1 39 19
M  V30 40 1 40 21
M  V30 41 1 41 22
M  V30 42 1 42 22
M  V30 43 1 43 23
M  V30 44 1 25 44 CFG=3
M  V30 END BOND
M  V30 END CTAB
M  END
>  <i_epik_Tot_Q>  (1) 
-1

>  <i_epik_Tot_abs_Q>  (1) 
1

>  <i_i_glide_confnum>  (1) 
630

>  <i_i_glide_lignum>  (1) 
90

>  <i_i_glide_posenum>  (1) 
48

>  <i_i_glide_rotatable_bonds>  (1) 
14

>  <i_lp_mmshare_version>  (1) 
72125

>  <i_m_source_file_index>  (1) 
31

>  <i_f3d_flags>  (1) 
0

>  <num_sample>  (1) 
50

>  <b_lp_Chiralities_Consistent>  (1) 
1

>  <r_epik_Charging_Adjusted_Penalty>  (1) 
0.29689953438897132

>  <r_epik_Ionization_Penalty>  (1) 
0.29704553669164502

>  <r_epik_Ionization_Penalty_Charging>  (1) 
1.7526919545429853e-05

>  <r_epik_Ionization_Penalty_Neutral>  (1) 
0.29702800977209959

>  <r_epik_State_Penalty>  (1) 
0.29688200746942589

>  <r_glide_ring_energy>  (1) 
0

>  <r_i_docking_score>  (1) 
-4.2514008430561931

>  <r_i_glide_ecoul>  (1) 
-4.6381911861135823

>  <r_i_glide_eff_state_penalty>  (1) 
0.29688200746942589

>  <r_i_glide_einternal>  (1) 
17.720423102119575

>  <r_i_glide_emodel>  (1) 
-38.828283517053904

>  <r_i_glide_emodel_strain>  (1) 
0.81995743412541344

>  <r_i_glide_energy>  (1) 
-36.866764495290916

>  <r_i_glide_erotb>  (1) 
1.2361090002768802

>  <r_i_glide_esite>  (1) 
-0.1058616398847308

>  <r_i_glide_evdw>  (1) 
-32.228573309177335

>  <r_i_glide_gscore>  (1) 
-4.5482828505256192

>  <r_i_glide_gscore_strain>  (1) 
0

>  <r_i_glide_hbond>  (1) 
-0.23797427612816791

>  <r_i_glide_ligand_efficiency>  (1) 
-0.17005603372224773

>  <r_i_glide_ligand_efficiency_ln>  (1) 
-1.0077094040066961

>  <r_i_glide_ligand_efficiency_sa>  (1) 
-0.4972468590939777

>  <r_i_glide_lipo>  (1) 
-1.0181392840468386

>  <r_i_glide_metal>  (1) 
-0

>  <r_i_glide_rewards>  (1) 
-2.1152593073668582

>  <r_lp_Energy>  (1) 
20.216013999999998

>  <s_epik_Chemistry_Notes>  (1) 
This compound has an imine and may undergo hydrolysis. This compound has a N-S or N-O group and may undergo hydrolysis at high or low pH.

>  <s_epik_cmdline>  (1) 
J2VwaWtfcHl0aG9uJywgJy1waHQnLCAnMS4wJywgJy1waCcsICc3LjQnLCAnLXRuJywgJzgnLCAnLW1hJywgJzUwMCcsICctaW1hZScsICc8aW5maWxlLm1hZT4nLCAnLW9tYWUnLCAnPG91dGZpbGUubWFlPic=

>  <s_epik_input>  (1) 
W05IMl1bQ0gyXUMoRikoRilbQ0BASF0oW09IXSlbQ0BASF0oW09IXSlbQ0gyXVtDSDJdW0NASF0oW09IXSlbQ0gyXVtOSF1PW0NIMl1DKD1OQzEoRilGKVtOSF1DMT1P

>  <s_glide_docking_method>  (1) 
confgen

>  <s_i_glide_gridfile>  (1) 
gpcr_drd2_6luq_protein_autoprepared_prepared

>  <s_lp_Force_Field>  (1) 
S-OPLS

>  <s_lp_Variant>  (1) 
DiffSBDD_30-2

>  <s_m_source_file>  (1) 
generated_generic_title2_ligand_DiffSBDD_2026-06-23_prepared.sdf

>  <GenAI_Model>  (1) 
DiffSBDD

>  <Protein>  (1) 
generic_title2

$$$$
DiffSBDD_1
     RDKit          3D

  0  0  0  0  0  0  0  0  0  0999 V3000
M  V30 BEGIN CTAB
M  V30 COUNTS 90 92 0 0 1
M  V30 BEGIN ATOM
M  V30 1 O 8.091291 5.485136 -13.118671 0
M  V30 2 O 7.891923 5.190231 -9.009280 0
M  V30 3 C 8.243499 4.147075 -17.621829 0 CFG=2
M  V30 4 C 7.003461 3.739970 -19.886606 0
M  V30 5 C 8.712902 7.212822 -22.994453 0
M  V30 6 C 11.233597 7.006901 -5.263001 0
M  V30 7 C 10.954683 7.784631 -20.361931 0
M  V30 8 C 9.203867 5.256188 -9.521695 0 CFG=1
M  V30 9 C 7.585367 3.014222 -16.768590 0 CFG=1
M  V30 10 C 10.438646 5.460041 -19.294536 0 CFG=2
M  V30 11 C 7.171800 4.491234 -21.205702 0
M  V30 12 O 7.543276 -0.833105 -17.662434 0 CHG=-1
M  V30 13 C 8.994536 5.829577 -22.378664 0
M  V30 14 C 7.524474 5.497709 -17.358303 0
M  V30 15 C 9.177901 5.157132 -11.060994 0
M  V30 16 C 10.818499 8.226376 -21.837057 0
M  V30 17 C 8.359370 3.827698 -19.157183 0 CFG=1
M  V30 18 C 9.366078 8.429300 -22.309927 0
M  V30 19 C 9.933299 6.474438 -8.924826 0
M  V30 20 C 6.807018 4.819253 -15.047499 0 CFG=2
M  V30 21 C 10.664192 8.783992 -6.970665 0
M  V30 22 F 12.531921 6.460504 -19.368504 0
M  V30 23 C 11.097547 7.325871 -6.758888 0
M  V30 24 C 7.528218 5.877225 -15.882076 0
M  V30 25 C 8.605400 7.508914 -11.985208 0
M  V30 26 F 11.166227 4.471953 -18.766562 0
M  V30 27 O 7.900820 -0.409780 -15.161378 0
M  V30 28 O 5.831682 0.552293 -16.349471 0
M  V30 29 P 7.230617 0.148574 -16.602864 0
M  V30 30 C 10.126937 6.323705 -7.405733 0
M  V30 31 C 8.170240 6.045169 -11.817580 0 CFG=1
M  V30 32 C 9.278373 4.726897 -20.044359 0 CFG=1
M  V30 33 O 7.802102 6.634630 -20.387342 0
M  V30 34 C 6.769276 5.233421 -13.568012 0
M  V30 35 C 8.335984 1.651766 -16.837293 0
M  V30 36 C 8.334028 5.485583 -21.013285 0 CFG=2
M  V30 37 C 7.438892 3.429758 -15.275119 0
M  V30 38 C 11.427904 6.332272 -20.108918 0 CFG=2
M  V30 39 H 7.491489 6.055914 -9.108177 0
M  V30 40 H 9.254613 4.237294 -17.226164 0
M  V30 41 H 6.711637 2.702533 -20.055065 0
M  V30 42 H 6.189458 4.187836 -19.323031 0
M  V30 43 H 9.093563 7.183036 -24.012130 0
M  V30 44 H 7.638204 7.371568 -23.089937 0
M  V30 45 H 10.254565 7.000515 -4.784815 0
M  V30 46 H 11.680151 6.023988 -5.107944 0
M  V30 47 H 11.852932 7.740413 -4.747957 0
M  V30 48 H 11.683263 8.454636 -19.903735 0
M  V30 49 H 10.046061 7.989894 -19.800515 0
M  V30 50 H 9.726957 4.366670 -9.169831 0
M  V30 51 H 6.586680 2.860418 -17.178469 0
M  V30 52 H 10.077970 6.044261 -18.451267 0
M  V30 53 H 7.426413 3.750553 -21.964580 0
M  V30 54 H 6.249739 4.973621 -21.532571 0
M  V30 55 H 10.067210 5.672396 -22.341038 0
M  V30 56 H 8.682294 5.092663 -23.118834 0
M  V30 57 H 6.487848 5.467936 -17.687221 0
M  V30 58 H 7.988592 6.305994 -17.914605 0
M  V30 59 H 10.175338 5.303199 -11.474779 0
M  V30 60 H 8.927164 4.120490 -11.294920 0
M  V30 61 H 11.371074 7.573963 -22.512813 0
M  V30 62 H 11.317313 9.190218 -21.936905 0
M  V30 63 H 8.819045 2.851405 -19.264437 0
M  V30 64 H 9.360093 9.240554 -23.040409 0
M  V30 65 H 8.747221 8.802449 -21.494526 0
M  V30 66 H 10.906791 6.589421 -9.400416 0
M  V30 67 H 9.377446 7.387765 -9.127040 0
M  V30 68 H 5.775322 4.790390 -15.386758 0
M  V30 69 H 9.655544 8.952706 -6.593986 0
M  V30 70 H 11.335750 9.474690 -6.459886 0
M  V30 71 H 10.677647 9.044661 -8.028768 0
M  V30 72 H 12.079304 7.199423 -7.217719 0
M  V30 73 H 7.033929 6.839974 -15.746267 0
M  V30 74 H 8.558841 5.990468 -15.542655 0
M  V30 75 H 8.575319 8.053018 -11.044772 0
M  V30 76 H 9.616357 7.580804 -12.385074 0
M  V30 77 H 7.938018 8.031688 -12.670840 0
M  V30 78 H 7.775294 -1.355180 -15.170994 0
M  V30 79 H 9.154061 6.382816 -6.914710 0
M  V30 80 H 10.503303 5.322593 -7.203976 0
M  V30 81 H 7.197022 6.008563 -11.324787 0
M  V30 82 H 9.796158 4.020574 -20.697970 0
M  V30 83 H 8.461063 7.310782 -20.409721 0
M  V30 84 H 6.305717 4.455484 -12.959972 0
M  V30 85 H 6.164674 6.136315 -13.459231 0
M  V30 86 H 8.845385 1.492349 -17.779576 0
M  V30 87 H 9.135699 1.626370 -16.101058 0
M  V30 88 H 8.424487 3.430869 -14.808991 0
M  V30 89 H 6.857357 2.676446 -14.741352 0
M  V30 90 H 11.768234 5.827110 -21.011413 0
M  V30 END ATOM
M  V30 BEGIN BOND
M  V30 1 1 8 2
M  V30 2 1 9 3
M  V30 3 1 11 4
M  V30 4 1 13 5
M  V30 5 1 14 3
M  V30 6 1 15 8
M  V30 7 1 16 7
M  V30 8 1 17 3
M  V30 9 1 17 4
M  V30 10 1 18 5
M  V30 11 1 18 16
M  V30 12 1 19 8
M  V30 13 1 23 6
M  V30 14 1 23 21
M  V30 15 1 24 14
M  V30 16 1 24 20
M  V30 17 1 26 10
M  V30 18 1 29 12
M  V30 19 1 29 27
M  V30 20 2 29 28
M  V30 21 1 30 19
M  V30 22 1 30 23
M  V30 23 1 31 1
M  V30 24 1 31 15
M  V30 25 1 31 25
M  V30 26 1 32 10
M  V30 27 1 32 17
M  V30 28 1 34 1
M  V30 29 1 34 20
M  V30 30 1 35 9
M  V30 31 1 35 29
M  V30 32 1 36 11
M  V30 33 1 36 13
M  V30 34 1 36 32
M  V30 35 1 36 33 CFG=1
M  V30 36 1 37 9
M  V30 37 1 37 20
M  V30 38 1 38 7
M  V30 39 1 38 10
M  V30 40 1 38 22
M  V30 41 1 39 2
M  V30 42 1 3 40 CFG=1
M  V30 43 1 41 4
M  V30 44 1 42 4
M  V30 45 1 43 5
M  V30 46 1 44 5
M  V30 47 1 45 6
M  V30 48 1 46 6
M  V30 49 1 47 6
M  V30 50 1 48 7
M  V30 51 1 49 7
M  V30 52 1 8 50 CFG=1
M  V30 53 1 9 51 CFG=3
M  V30 54 1 10 52 CFG=1
M  V30 55 1 53 11
M  V30 56 1 54 11
M  V30 57 1 55 13
M  V30 58 1 56 13
M  V30 59 1 57 14
M  V30 60 1 58 14
M  V30 61 1 59 15
M  V30 62 1 60 15
M  V30 63 1 61 16
M  V30 64 1 62 16
M  V30 65 1 17 63 CFG=1
M  V30 66 1 64 18
M  V30 67 1 65 18
M  V30 68 1 66 19
M  V30 69 1 67 19
M  V30 70 1 20 68 CFG=3
M  V30 71 1 69 21
M  V30 72 1 70 21
M  V30 73 1 71 21
M  V30 74 1 72 23
M  V30 75 1 73 24
M  V30 76 1 74 24
M  V30 77 1 75 25
M  V30 78 1 76 25
M  V30 79 1 77 25
M  V30 80 1 78 27
M  V30 81 1 79 30
M  V30 82 1 80 30
M  V30 83 1 31 81 CFG=1
M  V30 84 1 32 82 CFG=3
M  V30 85 1 83 33
M  V30 86 1 84 34
M  V30 87 1 85 34
M  V30 88 1 86 35
M  V30 89 1 87 35
M  V30 90 1 88 37
M  V30 91 1 89 37
M  V30 92 1 38 90 CFG=3
M  V30 END BOND
M  V30 END CTAB
M  END
>  <i_epik_Tot_Q>  (1) 
-1

>  <i_epik_Tot_abs_Q>  (1) 
1

>  <i_i_glide_confnum>  (1) 
3678

>  <i_i_glide_lignum>  (1) 
17

>  <i_i_glide_posenum>  (1) 
353

>  <i_i_glide_rotatable_bonds>  (1) 
14

>  <i_lp_mmshare_version>  (1) 
72125

>  <i_m_source_file_index>  (1) 
2

>  <i_f3d_flags>  (1) 
0

>  <num_sample>  (1) 
50

>  <b_lp_Chiralities_Consistent>  (1) 
1

>  <r_epik_Charging_Adjusted_Penalty>  (1) 
0.13318820565599726

>  <r_epik_Ionization_Penalty>  (1) 
0.13318880763099702

>  <r_epik_Ionization_Penalty_Charging>  (1) 
1.1004593090013429e-05

>  <r_epik_Ionization_Penalty_Neutral>  (1) 
0.13317780303790702

>  <r_epik_State_Penalty>  (1) 
0.13317720106290726

>  <r_glide_ring_energy>  (1) 
0

>  <r_i_docking_score>  (1) 
-4.2509995208483717

>  <r_i_glide_ecoul>  (1) 
-5.0536051387925838

>  <r_i_glide_eff_state_penalty>  (1) 
0.13317720106290726

>  <r_i_glide_einternal>  (1) 
11.506387695351499

>  <r_i_glide_emodel>  (1) 
-33.814630514190071

>  <r_i_glide_emodel_strain>  (1) 
2.4273424911431363

>  <r_i_glide_energy>  (1) 
-36.704382195995407

>  <r_i_glide_erotb>  (1) 
0.56507953808565226

>  <r_i_glide_esite>  (1) 
0

>  <r_i_glide_evdw>  (1) 
-31.650777057202824

>  <r_i_glide_gscore>  (1) 
-4.3841767219112793

>  <r_i_glide_gscore_strain>  (1) 
0

>  <r_i_glide_hbond>  (1) 
-0.45599999999999996

>  <r_i_glide_ligand_efficiency>  (1) 
-0.1118684084433782

>  <r_i_glide_ligand_efficiency_ln>  (1) 
-0.91664054843116438

>  <r_i_glide_ligand_efficiency_sa>  (1) 
-0.3760988379843791

>  <r_i_glide_lipo>  (1) 
-1.9990798193160577

>  <r_i_glide_metal>  (1) 
-0

>  <r_i_glide_rewards>  (1) 
-0.15359681700184541

>  <r_lp_Energy>  (1) 
45.243853999999999

>  <s_epik_cmdline>  (1) 
J2VwaWtfcHl0aG9uJywgJy1waHQnLCAnMS4wJywgJy1waCcsICc3LjQnLCAnLXRuJywgJzgnLCAnLW1hJywgJzUwMCcsICctaW1hZScsICc8aW5maWxlLm1hZT4nLCAnLW9tYWUnLCAnPG91dGZpbGUubWFlPic=

>  <s_epik_input>  (1) 
W0NIM11bQ0hdKFtDSDNdKVtDSDJdW0NIMl1bQ0BASF0oW09IXSlbQ0gyXVtDQEBIXShbQ0gzXSlPW0NIMl1bQ0BASF0oW0NIMl1bQ0gyXTEpW0NIMl1bQ0BIXShbQ0gyXVAoPU8pKFtPSF0pW09IXSlbQ0BIXTFbQ0BASF0oW0NIMl1bQ0gyXTIpW0NAQEhdKFtDQF0yM1tPSF0pW0NAQEhdKEYpW0NASF0oRilbQ0gyXVtDSDJdW0NIMl1bQ0gyXVtDSDJdMw==

>  <s_glide_docking_method>  (1) 
confgen

>  <s_i_glide_gridfile>  (1) 
gpcr_drd2_6luq_protein_autoprepared_prepared

>  <s_lp_Force_Field>  (1) 
S-OPLS

>  <s_lp_Variant>  (1) 
DiffSBDD_1-1

>  <s_m_source_file>  (1) 
generated_generic_title2_ligand_DiffSBDD_2026-06-23_prepared.sdf

>  <GenAI_Model>  (1) 
DiffSBDD

>  <Protein>  (1) 
generic_title2

$$$$
DiffSBDD_14
     RDKit          3D

  0  0  0  0  0  0  0  0  0  0999 V3000
M  V30 BEGIN CTAB
M  V30 COUNTS 71 74 0 0 1
M  V30 BEGIN ATOM
M  V30 1 C 6.533800 5.801274 -11.918428 0
M  V30 2 O 5.689145 7.325766 -17.397655 0
M  V30 3 C 5.833008 5.467594 -18.764576 0 CFG=2
M  V30 4 O 8.144225 5.590138 -17.042153 0
M  V30 5 C 11.968598 9.044584 -9.389194 0
M  V30 6 C 9.571692 8.583808 -9.747223 0
M  V30 7 N 9.577945 6.475579 -10.924583 0
M  V30 8 C 10.760457 8.256328 -8.860441 0 CFG=2
M  V30 9 C 11.609750 6.965827 -4.368619 0
M  V30 10 C 4.912573 7.677745 -18.539510 0
M  V30 11 C 12.175918 8.918705 -2.021777 0
M  V30 12 C 11.493594 8.102014 -4.996086 0
M  V30 13 C 11.737523 6.385351 -6.470013 0
M  V30 14 C 11.599158 7.969772 -6.475315 0 CFG=1
M  V30 15 C 6.853541 6.016580 -15.037367 0
M  V30 16 C 12.202777 7.583000 -1.986296 0
M  V30 17 C 8.266008 4.981408 -18.321102 0
M  V30 18 C 10.464210 8.520366 -7.351688 0 CFG=2
M  V30 19 C 5.732703 5.910571 -17.311356 0 CFG=1
M  V30 20 C 7.269807 5.637480 -19.285088 0
M  V30 21 O 9.524773 4.481574 -11.986360 0
M  V30 22 C 9.059194 5.607949 -11.830626 0
M  V30 23 O 11.775317 5.892296 -5.124986 0
M  V30 24 C 4.844288 6.418341 -19.409469 0
M  V30 25 C 11.288473 9.406930 -4.349816 0
M  V30 26 C 11.539932 6.672370 -2.930105 0
M  V30 27 C 9.070289 8.040760 -6.903777 0
M  V30 28 C 9.057599 7.756229 -10.676101 0
M  V30 29 C 7.843838 5.365800 -14.060696 0
M  V30 30 C 7.849124 6.062407 -12.685211 0 CFG=1
M  V30 31 C 11.569935 9.752583 -3.060199 0
M  V30 32 C 6.876562 5.376207 -16.427071 0 CFG=1
M  V30 33 H 6.632233 5.990776 -10.848607 0
M  V30 34 H 5.728056 6.437341 -12.284993 0
M  V30 35 H 6.213484 4.763642 -12.020280 0
M  V30 36 H 5.522977 4.427871 -18.877725 0
M  V30 37 H 12.162864 8.791562 -10.430026 0
M  V30 38 H 11.775356 10.116264 -9.343499 0
M  V30 39 H 12.891856 8.830646 -8.853705 0
M  V30 40 H 9.122254 9.552494 -9.602022 0
M  V30 41 H 10.365505 6.185661 -10.367653 0
M  V30 42 H 10.993962 7.199376 -8.968468 0
M  V30 43 H 5.375404 8.512460 -19.065848 0
M  V30 44 H 3.914660 7.990010 -18.230247 0
M  V30 45 H 12.657188 9.434779 -1.206313 0
M  V30 46 H 12.696260 6.015851 -6.786541 0
M  V30 47 H 10.955288 5.874745 -7.032272 0
M  V30 48 H 12.539443 8.424746 -6.784228 0
M  V30 49 H 5.844646 5.937389 -14.631793 0
M  V30 50 H 7.062621 7.083457 -15.126970 0
M  V30 51 H 12.709660 7.102375 -1.185029 0
M  V30 52 H 9.285106 5.121683 -18.680864 0
M  V30 53 H 8.096167 3.905970 -18.249215 0
M  V30 54 H 10.487792 9.590190 -7.184318 0
M  V30 55 H 4.775334 5.590523 -16.896396 0
M  V30 56 H 7.517198 6.695810 -19.379249 0
M  V30 57 H 7.363186 5.206106 -20.281608 0
M  V30 58 H 5.038210 6.606608 -20.465765 0
M  V30 59 H 3.849454 5.989971 -19.312652 0
M  V30 60 H 10.899972 10.195163 -4.977496 0
M  V30 61 H 10.532961 6.390247 -2.618463 0
M  V30 62 H 12.091096 5.738153 -2.813286 0
M  V30 63 H 8.831806 7.052827 -7.298314 0
M  V30 64 H 8.980577 7.988796 -5.823460 0
M  V30 65 H 8.301944 8.738154 -7.233867 0
M  V30 66 H 8.212268 8.028120 -11.274951 0
M  V30 67 H 8.843592 5.411725 -14.496303 0
M  V30 68 H 7.612903 4.305742 -13.947890 0
M  V30 69 H 7.940961 7.110374 -12.956806 0
M  V30 70 H 11.375408 10.778080 -2.786689 0
M  V30 71 H 6.748562 4.300273 -16.304926 0
M  V30 END ATOM
M  V30 BEGIN BOND
M  V30 1 1 8 5
M  V30 2 1 8 6
M  V30 3 1 10 2
M  V30 4 2 12 9
M  V30 5 1 14 12
M  V30 6 1 14 13
M  V30 7 2 16 11
M  V30 8 1 17 4
M  V30 9 1 18 8
M  V30 10 1 18 14
M  V30 11 1 19 2
M  V30 12 1 19 3
M  V30 13 1 20 3
M  V30 14 1 20 17
M  V30 15 1 22 7
M  V30 16 2 22 21
M  V30 17 1 23 9
M  V30 18 1 23 13
M  V30 19 1 24 3
M  V30 20 1 24 10
M  V30 21 1 25 12
M  V30 22 1 26 9
M  V30 23 1 26 16
M  V30 24 1 27 18
M  V30 25 2 28 6
M  V30 26 1 28 7
M  V30 27 1 29 15
M  V30 28 1 30 1
M  V30 29 1 30 22
M  V30 30 1 30 29
M  V30 31 1 31 11
M  V30 32 2 31 25
M  V30 33 1 32 4
M  V30 34 1 32 15
M  V30 35 1 32 19
M  V30 36 1 33 1
M  V30 37 1 34 1
M  V30 38 1 35 1
M  V30 39 1 3 36 CFG=1
M  V30 40 1 37 5
M  V30 41 1 38 5
M  V30 42 1 39 5
M  V30 43 1 40 6
M  V30 44 1 41 7
M  V30 45 1 8 42 CFG=1
M  V30 46 1 43 10
M  V30 47 1 44 10
M  V30 48 1 45 11
M  V30 49 1 46 13
M  V30 50 1 47 13
M  V30 51 1 14 48 CFG=3
M  V30 52 1 49 15
M  V30 53 1 50 15
M  V30 54 1 51 16
M  V30 55 1 52 17
M  V30 56 1 53 17
M  V30 57 1 18 54 CFG=3
M  V30 58 1 19 55 CFG=1
M  V30 59 1 56 20
M  V30 60 1 57 20
M  V30 61 1 58 24
M  V30 62 1 59 24
M  V30 63 1 60 25
M  V30 64 1 61 26
M  V30 65 1 62 26
M  V30 66 1 63 27
M  V30 67 1 64 27
M  V30 68 1 65 27
M  V30 69 1 66 28
M  V30 70 1 67 29
M  V30 71 1 68 29
M  V30 72 1 30 69 CFG=3
M  V30 73 1 70 31
M  V30 74 1 32 71 CFG=1
M  V30 END BOND
M  V30 END CTAB
M  END
>  <i_epik_Tot_Q>  (1) 
0

>  <i_epik_Tot_abs_Q>  (1) 
0

>  <i_i_glide_confnum>  (1) 
240

>  <i_i_glide_lignum>  (1) 
53

>  <i_i_glide_posenum>  (1) 
118

>  <i_i_glide_rotatable_bonds>  (1) 
9

>  <i_lp_mmshare_version>  (1) 
72125

>  <i_m_source_file_index>  (1) 
15

>  <i_f3d_flags>  (1) 
0

>  <num_sample>  (1) 
50

>  <b_lp_Chiralities_Consistent>  (1) 
1

>  <r_epik_Charging_Adjusted_Penalty>  (1) 
0

>  <r_epik_Ionization_Penalty>  (1) 
2.2973717276536928e-08

>  <r_epik_Ionization_Penalty_Charging>  (1) 
0

>  <r_epik_Ionization_Penalty_Neutral>  (1) 
2.2973717276536928e-08

>  <r_epik_State_Penalty>  (1) 
-0

>  <r_glide_ring_energy>  (1) 
0

>  <r_i_docking_score>  (1) 
-4.2437936421740856

>  <r_i_glide_ecoul>  (1) 
1.6995168435975425

>  <r_i_glide_eff_state_penalty>  (1) 
-0

>  <r_i_glide_einternal>  (1) 
6.7874700520313684

>  <r_i_glide_emodel>  (1) 
-31.097992688403913

>  <r_i_glide_emodel_strain>  (1) 
0.21858587519149353

>  <r_i_glide_energy>  (1) 
-29.209596895864863

>  <r_i_glide_erotb>  (1) 
0.7170138056727231

>  <r_i_glide_esite>  (1) 
-0.055161852319944575

>  <r_i_glide_evdw>  (1) 
-30.909113739462406

>  <r_i_glide_gscore>  (1) 
-4.2437936421740856

>  <r_i_glide_gscore_strain>  (1) 
0

>  <r_i_glide_hbond>  (1) 
0

>  <r_i_glide_ligand_efficiency>  (1) 
-0.13261855131794018

>  <r_i_glide_ligand_efficiency_ln>  (1) 
-0.95030107792838847

>  <r_i_glide_ligand_efficiency_sa>  (1) 
-0.42103765574519381

>  <r_i_glide_lipo>  (1) 
-3.5936281994634882

>  <r_i_glide_metal>  (1) 
-0

>  <r_i_glide_rewards>  (1) 
-0.021489235629886805

>  <r_lp_Energy>  (1) 
16.754915

>  <r_lp_tautomer_probability>  (1) 
1

>  <s_epik_cmdline>  (1) 
J2VwaWtfcHl0aG9uJywgJy1waHQnLCAnMS4wJywgJy1waCcsICc3LjQnLCAnLXRuJywgJzgnLCAnLW1hJywgJzUwMCcsICctaW1hZScsICc8aW5maWxlLm1hZT4nLCAnLW9tYWUnLCAnPG91dGZpbGUubWFlPic=

>  <s_epik_input>  (1) 
W0NIMl0xW0NIMl1PW0NAQEhdKFtDQEBIXTEyKVtDQEBIXShPW0NIMl1bQ0gyXTIpW0NIMl1bQ0gyXVtDQEBIXShbQ0gzXSlDKD1PKVtOSF0vW0NIXT1bQ0hdXFtDQEBIXShbQ0gzXSlbQ0BASF0oW0NIM10pW0NASF0oW0NIMl1PMylDKD1DMzQpW0NIXT1bQ0hdW0NIXT1bQ0hdW0NIMl00

>  <s_glide_docking_method>  (1) 
confgen

>  <s_i_glide_gridfile>  (1) 
gpcr_drd2_6luq_protein_autoprepared_prepared

>  <s_lp_Force_Field>  (1) 
S-OPLS

>  <s_lp_Variant>  (1) 
DiffSBDD_14-2

>  <s_m_source_file>  (1) 
generated_generic_title2_ligand_DiffSBDD_2026-06-23_prepared.sdf

>  <GenAI_Model>  (1) 
DiffSBDD

>  <Protein>  (1) 
generic_title2

$$$$
DiffSBDD_1
     RDKit          3D

  0  0  0  0  0  0  0  0  0  0999 V3000
M  V30 BEGIN CTAB
M  V30 COUNTS 90 92 0 0 1
M  V30 BEGIN ATOM
M  V30 1 O 10.033848 8.124677 -10.348942 0
M  V30 2 O 10.575179 5.671946 -7.769408 0
M  V30 3 C 8.019552 5.119681 -14.294693 0 CFG=2
M  V30 4 C 6.993262 5.877429 -16.602682 0
M  V30 5 C 9.307630 3.242512 -19.991740 0
M  V30 6 C 11.823702 6.703737 -2.673432 0
M  V30 7 C 9.592777 0.867815 -17.421918 0
M  V30 8 C 11.056743 6.868960 -7.213538 0 CFG=1
M  V30 9 C 7.471500 6.361048 -13.491215 0 CFG=1
M  V30 10 C 7.853552 2.190875 -15.861274 0 CFG=2
M  V30 11 C 8.036851 5.636292 -17.709244 0
M  V30 12 O 6.800786 3.990038 -11.627115 0 CHG=-1
M  V30 13 C 8.118784 3.453079 -19.034442 0
M  V30 14 C 9.523996 5.315367 -14.501019 0
M  V30 15 C 10.247586 8.024156 -7.836751 0
M  V30 16 C 9.701500 0.869943 -18.968464 0
M  V30 17 C 7.158822 4.751817 -15.576780 0 CFG=1
M  V30 18 C 10.314947 2.150205 -19.575763 0
M  V30 19 C 10.991672 6.759778 -5.675182 0
M  V30 20 C 9.711847 6.848273 -12.333796 0 CFG=2
M  V30 21 C 12.369778 9.162731 -2.857861 0
M  V30 22 F 8.110160 -0.102665 -15.974249 0
M  V30 23 C 12.258310 7.839432 -3.618151 0
M  V30 24 C 10.270174 5.705957 -13.192586 0
M  V30 25 C 12.270965 8.665516 -9.389963 0
M  V30 26 F 6.746488 1.858356 -15.195842 0
M  V30 27 O 4.975462 5.522217 -10.786474 0
M  V30 28 O 4.575420 3.990232 -12.869284 0
M  V30 29 P 5.615174 4.715280 -12.115945 0
M  V30 30 C 11.445573 8.035077 -4.927607 0
M  V30 31 C 10.746344 8.566140 -9.199975 0 CFG=1
M  V30 32 C 7.519473 3.559634 -16.521874 0 CFG=1
M  V30 33 O 9.759497 4.040760 -17.303784 0
M  V30 34 C 10.419381 6.913176 -10.970212 0
M  V30 35 C 5.992666 6.247554 -13.130137 0
M  V30 36 C 8.399859 4.134023 -17.664172 0 CFG=2
M  V30 37 C 8.217833 6.676871 -12.169764 0
M  V30 38 C 8.179154 0.962803 -16.774439 0 CFG=2
M  V30 39 H 11.272308 5.032287 -7.764809 0
M  V30 40 H 7.975540 4.239064 -13.661171 0
M  V30 41 H 6.004670 5.776299 -17.051657 0
M  V30 42 H 7.008462 6.872234 -16.172552 0
M  V30 43 H 8.903605 2.958672 -20.964438 0
M  V30 44 H 9.834149 4.181878 -20.162729 0
M  V30 45 H 10.945504 6.945211 -2.084586 0
M  V30 46 H 11.639952 5.771168 -3.200197 0
M  V30 47 H 12.617522 6.501861 -1.952466 0
M  V30 48 H 10.001757 -0.104504 -17.142817 0
M  V30 49 H 10.278362 1.575524 -16.962239 0
M  V30 50 H 12.110343 6.963977 -7.466298 0
M  V30 51 H 7.587136 7.247172 -14.116537 0
M  V30 52 H 8.575455 2.311106 -15.069967 0
M  V30 53 H 7.617627 5.947760 -18.666718 0
M  V30 54 H 8.926373 6.252055 -17.584569 0
M  V30 55 H 7.621456 2.499781 -18.895409 0
M  V30 56 H 7.363851 4.024310 -19.575134 0
M  V30 57 H 9.699497 5.989383 -15.329835 0
M  V30 58 H 9.967105 4.390002 -14.842360 0
M  V30 59 H 9.189673 7.762602 -7.897267 0
M  V30 60 H 10.280033 8.866313 -7.147688 0
M  V30 61 H 8.761968 0.596883 -19.449660 0
M  V30 62 H 10.380170 0.056917 -19.233234 0
M  V30 63 H 6.173228 4.513898 -15.183109 0
M  V30 64 H 10.882686 1.871927 -20.465193 0
M  V30 65 H 11.066092 2.554003 -18.897052 0
M  V30 66 H 9.983033 6.491154 -5.355865 0
M  V30 67 H 11.632102 5.927365 -5.392162 0
M  V30 68 H 9.899392 7.815594 -12.785034 0
M  V30 69 H 11.391960 9.557458 -2.580830 0
M  V30 70 H 12.957026 9.048106 -1.947734 0
M  V30 71 H 12.872137 9.897711 -3.479046 0
M  V30 72 H 13.273085 7.588727 -3.914314 0
M  V30 73 H 11.295111 5.990218 -13.437316 0
M  V30 74 H 10.300528 4.815385 -12.559999 0
M  V30 75 H 12.734979 9.167856 -8.542488 0
M  V30 76 H 12.746888 7.690255 -9.491094 0
M  V30 77 H 12.509252 9.241802 -10.283602 0
M  V30 78 H 5.632878 5.488489 -10.106892 0
M  V30 79 H 12.075727 8.627440 -5.592720 0
M  V30 80 H 10.575438 8.668402 -4.770569 0
M  V30 81 H 10.411611 9.590171 -9.185461 0
M  V30 82 H 6.579666 3.348087 -17.035714 0
M  V30 83 H 10.278768 4.409607 -18.001070 0
M  V30 84 H 11.491878 6.900529 -11.150521 0
M  V30 85 H 10.174362 6.057659 -10.341948 0
M  V30 86 H 5.673164 7.132053 -12.577633 0
M  V30 87 H 5.375718 6.252474 -14.026207 0
M  V30 88 H 8.072967 5.918202 -11.409475 0
M  V30 89 H 7.807875 7.587152 -11.728064 0
M  V30 90 H 7.388143 0.796916 -17.503887 0
M  V30 END ATOM
M  V30 BEGIN BOND
M  V30 1 1 8 2
M  V30 2 1 9 3
M  V30 3 1 11 4
M  V30 4 1 13 5
M  V30 5 1 14 3
M  V30 6 1 15 8
M  V30 7 1 16 7
M  V30 8 1 17 3
M  V30 9 1 17 4
M  V30 10 1 18 5
M  V30 11 1 18 16
M  V30 12 1 19 8
M  V30 13 1 23 6
M  V30 14 1 23 21
M  V30 15 1 24 14
M  V30 16 1 24 20
M  V30 17 1 26 10
M  V30 18 1 29 12
M  V30 19 1 29 27
M  V30 20 2 29 28
M  V30 21 1 30 19
M  V30 22 1 30 23
M  V30 23 1 31 1
M  V30 24 1 31 15
M  V30 25 1 31 25
M  V30 26 1 32 10
M  V30 27 1 32 17
M  V30 28 1 34 1
M  V30 29 1 34 20
M  V30 30 1 35 9
M  V30 31 1 35 29
M  V30 32 1 36 11
M  V30 33 1 36 13
M  V30 34 1 36 32
M  V30 35 1 36 33 CFG=1
M  V30 36 1 37 9
M  V30 37 1 37 20
M  V30 38 1 38 7
M  V30 39 1 38 10
M  V30 40 1 38 22
M  V30 41 1 39 2
M  V30 42 1 3 40 CFG=1
M  V30 43 1 41 4
M  V30 44 1 42 4
M  V30 45 1 43 5
M  V30 46 1 44 5
M  V30 47 1 45 6
M  V30 48 1 46 6
M  V30 49 1 47 6
M  V30 50 1 48 7
M  V30 51 1 49 7
M  V30 52 1 8 50 CFG=1
M  V30 53 1 9 51 CFG=3
M  V30 54 1 10 52 CFG=1
M  V30 55 1 53 11
M  V30 56 1 54 11
M  V30 57 1 55 13
M  V30 58 1 56 13
M  V30 59 1 57 14
M  V30 60 1 58 14
M  V30 61 1 59 15
M  V30 62 1 60 15
M  V30 63 1 61 16
M  V30 64 1 62 16
M  V30 65 1 17 63 CFG=1
M  V30 66 1 64 18
M  V30 67 1 65 18
M  V30 68 1 66 19
M  V30 69 1 67 19
M  V30 70 1 20 68 CFG=3
M  V30 71 1 69 21
M  V30 72 1 70 21
M  V30 73 1 71 21
M  V30 74 1 72 23
M  V30 75 1 73 24
M  V30 76 1 74 24
M  V30 77 1 75 25
M  V30 78 1 76 25
M  V30 79 1 77 25
M  V30 80 1 78 27
M  V30 81 1 79 30
M  V30 82 1 80 30
M  V30 83 1 31 81 CFG=1
M  V30 84 1 32 82 CFG=3
M  V30 85 1 83 33
M  V30 86 1 84 34
M  V30 87 1 85 34
M  V30 88 1 86 35
M  V30 89 1 87 35
M  V30 90 1 88 37
M  V30 91 1 89 37
M  V30 92 1 38 90 CFG=3
M  V30 END BOND
M  V30 END CTAB
M  END
>  <i_epik_Tot_Q>  (1) 
-1

>  <i_epik_Tot_abs_Q>  (1) 
1

>  <i_i_glide_confnum>  (1) 
550

>  <i_i_glide_lignum>  (1) 
17

>  <i_i_glide_posenum>  (1) 
380

>  <i_i_glide_rotatable_bonds>  (1) 
14

>  <i_lp_mmshare_version>  (1) 
72125

>  <i_m_source_file_index>  (1) 
2

>  <i_f3d_flags>  (1) 
0

>  <num_sample>  (1) 
50

>  <b_lp_Chiralities_Consistent>  (1) 
1

>  <r_epik_Charging_Adjusted_Penalty>  (1) 
0.13318820565599726

>  <r_epik_Ionization_Penalty>  (1) 
0.13318880763099702

>  <r_epik_Ionization_Penalty_Charging>  (1) 
1.1004593090013429e-05

>  <r_epik_Ionization_Penalty_Neutral>  (1) 
0.13317780303790702

>  <r_epik_State_Penalty>  (1) 
0.13317720106290726

>  <r_glide_ring_energy>  (1) 
0

>  <r_i_docking_score>  (1) 
-4.2397664645101107

>  <r_i_glide_ecoul>  (1) 
0.57590704425664629

>  <r_i_glide_eff_state_penalty>  (1) 
0.13317720106290726

>  <r_i_glide_einternal>  (1) 
13.279593263957906

>  <r_i_glide_emodel>  (1) 
-24.316315089581821

>  <r_i_glide_emodel_strain>  (1) 
3.7046909240714569

>  <r_i_glide_energy>  (1) 
-29.383573939004716

>  <r_i_glide_erotb>  (1) 
0.56507953808565226

>  <r_i_glide_esite>  (1) 
-0.019980083314138121

>  <r_i_glide_evdw>  (1) 
-29.959480983261361

>  <r_i_glide_gscore>  (1) 
-4.3729436655730183

>  <r_i_glide_gscore_strain>  (1) 
0

>  <r_i_glide_hbond>  (1) 
-0.069038459291972873

>  <r_i_glide_ligand_efficiency>  (1) 
-0.11157280169763449

>  <r_i_glide_ligand_efficiency_ln>  (1) 
-0.91421837104159676

>  <r_i_glide_ligand_efficiency_sa>  (1) 
-0.37510501537510488

>  <r_i_glide_lipo>  (1) 
-3.0887721436299405

>  <r_i_glide_metal>  (1) 
-0

>  <r_i_glide_rewards>  (1) 
-0.34864452489804765

>  <r_lp_Energy>  (1) 
45.243853999999999

>  <s_epik_cmdline>  (1) 
J2VwaWtfcHl0aG9uJywgJy1waHQnLCAnMS4wJywgJy1waCcsICc3LjQnLCAnLXRuJywgJzgnLCAnLW1hJywgJzUwMCcsICctaW1hZScsICc8aW5maWxlLm1hZT4nLCAnLW9tYWUnLCAnPG91dGZpbGUubWFlPic=

>  <s_epik_input>  (1) 
W0NIM11bQ0hdKFtDSDNdKVtDSDJdW0NIMl1bQ0BASF0oW09IXSlbQ0gyXVtDQEBIXShbQ0gzXSlPW0NIMl1bQ0BASF0oW0NIMl1bQ0gyXTEpW0NIMl1bQ0BIXShbQ0gyXVAoPU8pKFtPSF0pW09IXSlbQ0BIXTFbQ0BASF0oW0NIMl1bQ0gyXTIpW0NAQEhdKFtDQF0yM1tPSF0pW0NAQEhdKEYpW0NASF0oRilbQ0gyXVtDSDJdW0NIMl1bQ0gyXVtDSDJdMw==

>  <s_glide_docking_method>  (1) 
confgen

>  <s_i_glide_gridfile>  (1) 
gpcr_drd2_6luq_protein_autoprepared_prepared

>  <s_lp_Force_Field>  (1) 
S-OPLS

>  <s_lp_Variant>  (1) 
DiffSBDD_1-1

>  <s_m_source_file>  (1) 
generated_generic_title2_ligand_DiffSBDD_2026-06-23_prepared.sdf

>  <GenAI_Model>  (1) 
DiffSBDD

>  <Protein>  (1) 
generic_title2

$$$$
DiffSBDD_47
     RDKit          3D

  0  0  0  0  0  0  0  0  0  0999 V3000
M  V30 BEGIN CTAB
M  V30 COUNTS 32 31 0 0 1
M  V30 BEGIN ATOM
M  V30 1 C 11.375410 6.633009 -5.091526 0
M  V30 2 C 11.775410 7.042163 -3.909302 0
M  V30 3 C 12.175410 7.366051 -2.701682 0
M  V30 4 C 11.210038 7.568600 -6.285841 0 CFG=1
M  V30 5 C 8.085049 5.081185 -10.763820 0
M  V30 6 C 10.662911 6.823142 -7.512595 0
M  V30 7 N 8.575413 5.990226 -9.711097 0 CHG=1
M  V30 8 C 7.868684 5.834114 -12.080150 0
M  V30 9 C 9.202186 6.381226 -7.344090 0
M  V30 10 C 12.549367 8.780149 -2.316149 0
M  V30 11 C 8.737860 5.359490 -8.389386 0
M  V30 12 O 10.389340 8.679334 -5.985021 0
M  V30 13 H 11.144994 5.590718 -5.262515 0
M  V30 14 H 12.253097 6.619365 -1.924790 0
M  V30 15 H 12.175410 7.981072 -6.559348 0
M  V30 16 H 8.801226 4.271068 -10.909683 0
M  V30 17 H 7.145846 4.628993 -10.440740 0
M  V30 18 H 10.752276 7.454915 -8.397109 0
M  V30 19 H 11.293495 5.953886 -7.698022 0
M  V30 20 H 7.880089 6.742463 -9.585026 0
M  V30 21 H 7.492555 5.163237 -12.853023 0
M  V30 22 H 7.142136 6.638999 -11.957808 0
M  V30 23 H 8.797704 6.272435 -12.446373 0
M  V30 24 H 9.053930 5.957929 -6.352632 0
M  V30 25 H 8.575365 7.268999 -7.371015 0
M  V30 26 H 13.570425 8.790795 -1.935578 0
M  V30 27 H 12.488696 9.467456 -3.161558 0
M  V30 28 H 11.888158 9.145430 -1.529841 0
M  V30 29 H 9.437256 4.524518 -8.450754 0
M  V30 30 H 7.775440 4.947940 -8.081947 0
M  V30 31 H 10.278421 9.193366 -6.769947 0
M  V30 32 H 9.446019 6.408824 -9.998810 0
M  V30 END ATOM
M  V30 BEGIN BOND
M  V30 1 2 2 1
M  V30 2 2 3 2
M  V30 3 1 4 1
M  V30 4 1 6 4
M  V30 5 1 7 5
M  V30 6 1 8 5
M  V30 7 1 9 6
M  V30 8 1 10 3
M  V30 9 1 11 7
M  V30 10 1 11 9
M  V30 11 1 12 4
M  V30 12 1 13 1
M  V30 13 1 14 3
M  V30 14 1 4 15 CFG=3
M  V30 15 1 16 5
M  V30 16 1 17 5
M  V30 17 1 18 6
M  V30 18 1 19 6
M  V30 19 1 20 7
M  V30 20 1 21 8
M  V30 21 1 22 8
M  V30 22 1 23 8
M  V30 23 1 24 9
M  V30 24 1 25 9
M  V30 25 1 26 10
M  V30 26 1 27 10
M  V30 27 1 28 10
M  V30 28 1 29 11
M  V30 29 1 30 11
M  V30 30 1 31 12
M  V30 31 1 32 7
M  V30 END BOND
M  V30 END CTAB
M  END
>  <i_epik_Tot_Q>  (1) 
1

>  <i_epik_Tot_abs_Q>  (1) 
1

>  <i_i_glide_confnum>  (1) 
45

>  <i_i_glide_lignum>  (1) 
125

>  <i_i_glide_posenum>  (1) 
338

>  <i_i_glide_rotatable_bonds>  (1) 
7

>  <i_lp_mmshare_version>  (1) 
72125

>  <i_m_source_file_index>  (1) 
48

>  <i_f3d_flags>  (1) 
0

>  <num_sample>  (1) 
50

>  <b_lp_Chiralities_Consistent>  (1) 
1

>  <r_epik_Charging_Adjusted_Penalty>  (1) 
0.00069192130555224092

>  <r_epik_Ionization_Penalty>  (1) 
0.00069195969174634328

>  <r_epik_Ionization_Penalty_Charging>  (1) 
0.00069192130555224092

>  <r_epik_Ionization_Penalty_Neutral>  (1) 
3.8386194102396343e-08

>  <r_epik_State_Penalty>  (1) 
-0

>  <r_glide_ring_energy>  (1) 
0

>  <r_i_docking_score>  (1) 
-4.2391215676078629

>  <r_i_glide_ecoul>  (1) 
-8.2402831974853399

>  <r_i_glide_eff_state_penalty>  (1) 
-0

>  <r_i_glide_einternal>  (1) 
5.7510199635997257

>  <r_i_glide_emodel>  (1) 
-37.16735841674349

>  <r_i_glide_emodel_strain>  (1) 
0.17112824399462312

>  <r_i_glide_energy>  (1) 
-28.79709430961757

>  <r_i_glide_erotb>  (1) 
2.6617729602706905

>  <r_i_glide_esite>  (1) 
-0.091170340627442337

>  <r_i_glide_evdw>  (1) 
-20.55681111213223

>  <r_i_glide_gscore>  (1) 
-4.2391215676078629

>  <r_i_glide_gscore_strain>  (1) 
0

>  <r_i_glide_hbond>  (1) 
-0.16661316956980005

>  <r_i_glide_ligand_efficiency>  (1) 
-0.35326013063398859

>  <r_i_glide_ligand_efficiency_ln>  (1) 
-1.2164232771818275

>  <r_i_glide_ligand_efficiency_sa>  (1) 
-0.80876380572595463

>  <r_i_glide_lipo>  (1) 
-1.5343429385742176

>  <r_i_glide_metal>  (1) 
-0

>  <r_i_glide_rewards>  (1) 
-2.844885043877682

>  <r_lp_Energy>  (1) 
-13.973255999999999

>  <r_lp_tautomer_probability>  (1) 
1

>  <s_epik_cmdline>  (1) 
J2VwaWtfcHl0aG9uJywgJy1waHQnLCAnMS4wJywgJy1waCcsICc3LjQnLCAnLXRuJywgJzgnLCAnLW1hJywgJzUwMCcsICctaW1hZScsICc8aW5maWxlLm1hZT4nLCAnLW9tYWUnLCAnPG91dGZpbGUubWFlPic=

>  <s_epik_input>  (1) 
W0NIM11bQ0hdPUM9W0NIXVtDQEhdKFtPSF0pW0NIMl1bQ0gyXVtDSDJdW05IXVtDSDJdW0NIM10=

>  <s_glide_docking_method>  (1) 
confgen

>  <s_i_glide_gridfile>  (1) 
gpcr_drd2_6luq_protein_autoprepared_prepared

>  <s_lp_Force_Field>  (1) 
S-OPLS

>  <s_lp_Variant>  (1) 
DiffSBDD_47-1

>  <s_m_source_file>  (1) 
generated_generic_title2_ligand_DiffSBDD_2026-06-23_prepared.sdf

>  <GenAI_Model>  (1) 
DiffSBDD

>  <Protein>  (1) 
generic_title2

$$$$
DiffSBDD_0
     RDKit          3D

  0  0  0  0  0  0  0  0  0  0999 V3000
M  V30 BEGIN CTAB
M  V30 COUNTS 70 74 0 0 1
M  V30 BEGIN ATOM
M  V30 1 C 11.774005 8.623756 -6.859998 0
M  V30 2 N 7.722546 4.499519 -13.817989 0
M  V30 3 C 7.670486 3.898119 -18.065439 0 CFG=1
M  V30 4 C 8.906624 4.007937 -11.737664 0
M  V30 5 F 9.521943 8.553545 -9.760097 0
M  V30 6 C 6.954113 5.462921 -14.620174 0
M  V30 7 C 11.375356 7.278519 -6.226559 0
M  V30 8 C 9.154719 5.702878 -10.037960 0
M  V30 9 C 9.419166 7.062675 -7.863060 0 CFG=1
M  V30 10 C 10.304840 4.279513 -18.107360 0
M  V30 11 C 7.867251 3.151733 -14.402214 0 CFG=2
M  V30 12 C 6.143211 0.529996 -13.118431 0
M  V30 13 C 9.056951 3.684802 -18.686674 0 CFG=1
M  V30 14 O 9.375419 4.384955 -10.502017 0
M  V30 15 C 9.848676 8.415967 -8.477613 0 CFG=1
M  V30 16 C 8.303904 2.524405 -18.067764 0 CFG=1
M  V30 17 N 7.493683 4.146541 -16.609497 0 CFG=1 CHG=1
M  V30 18 C 9.844806 5.826197 -8.667965 0
M  V30 19 C 6.115329 2.059618 -13.235966 0
M  V30 20 C 8.411628 3.316614 -15.827930 0 CFG=2
M  V30 21 O 5.004775 -0.009728 -13.749885 0
M  V30 22 C 9.874942 7.003629 -6.391528 0
M  V30 23 N 11.398153 3.531840 -17.778625 0
M  V30 24 C 7.419091 5.524572 -16.093951 0
M  V30 25 N 10.407531 5.590304 -17.890968 0
M  V30 26 O 11.683930 5.741923 -17.325194 0
M  V30 27 C 12.178937 4.490694 -17.307192 0
M  V30 28 O 6.661714 2.471991 -14.481767 0
M  V30 29 N 13.456627 4.383181 -16.787683 0
M  V30 30 C 8.226178 4.837870 -12.561356 0
M  V30 31 C 11.355376 8.678706 -8.333114 0
M  V30 32 C 14.317782 3.231061 -16.601610 0
M  V30 33 C 8.556180 2.036686 -16.653175 0
M  V30 34 H 11.298679 9.439882 -6.313968 0
M  V30 35 H 12.848091 8.790478 -6.785097 0
M  V30 36 H 6.788663 4.066519 -18.680444 0
M  V30 37 H 9.145128 2.980189 -11.959931 0
M  V30 38 H 5.903020 5.173640 -14.574743 0
M  V30 39 H 7.015991 6.459138 -14.180215 0
M  V30 40 H 11.632599 7.276767 -5.167004 0
M  V30 41 H 11.946680 6.469616 -6.684037 0
M  V30 42 H 9.578652 6.414718 -10.745351 0
M  V30 43 H 8.084562 5.888262 -9.946207 0
M  V30 44 H 8.339468 7.011934 -7.827162 0
M  V30 45 H 8.563844 2.548153 -13.826839 0
M  V30 46 H 6.103192 0.240497 -12.067657 0
M  V30 47 H 7.057046 0.109486 -13.539322 0
M  V30 48 H 9.118107 3.705214 -19.773106 0
M  V30 49 H 9.284556 9.190211 -7.961957 0
M  V30 50 H 7.923504 1.777508 -18.762034 0
M  V30 51 H 9.597928 4.937062 -8.086738 0
M  V30 52 H 10.924688 5.823547 -8.785060 0
M  V30 53 H 5.099796 2.446698 -13.185028 0
M  V30 54 H 6.642931 2.492966 -12.387008 0
M  V30 55 H 9.369616 3.833193 -15.754983 0
M  V30 56 H 4.975419 -0.960368 -13.585057 0
M  V30 57 H 9.324448 7.755558 -5.826948 0
M  V30 58 H 9.615160 6.042301 -5.948399 0
M  V30 59 H 6.728046 6.120249 -16.691262 0
M  V30 60 H 8.400676 5.990043 -16.156837 0
M  V30 61 H 13.860534 5.254264 -16.477077 0
M  V30 62 H 8.016258 5.860389 -12.283509 0
M  V30 63 H 11.611093 9.646692 -8.761979 0
M  V30 64 H 11.919188 7.942617 -8.906415 0
M  V30 65 H 15.049737 3.424363 -15.816640 0
M  V30 66 H 13.728654 2.357639 -16.319727 0
M  V30 67 H 14.847512 3.002273 -17.526901 0
M  V30 68 H 7.802860 1.290836 -16.395887 0
M  V30 69 H 9.542250 1.582428 -16.563841 0
M  V30 70 H 6.591615 3.743411 -16.395101 0
M  V30 END ATOM
M  V30 BEGIN BOND
M  V30 1 1 6 2
M  V30 2 1 7 1
M  V30 3 1 11 2
M  V30 4 1 13 3
M  V30 5 1 13 10
M  V30 6 1 14 4
M  V30 7 1 14 8
M  V30 8 1 15 5
M  V30 9 1 15 9
M  V30 10 1 16 3
M  V30 11 1 16 13
M  V30 12 1 17 3
M  V30 13 1 18 8
M  V30 14 1 18 9
M  V30 15 1 19 12
M  V30 16 1 20 11
M  V30 17 1 20 17
M  V30 18 1 21 12
M  V30 19 1 22 7
M  V30 20 1 22 9
M  V30 21 1 23 10
M  V30 22 1 24 6
M  V30 23 1 24 17
M  V30 24 2 25 10
M  V30 25 1 26 25
M  V30 26 2 27 23
M  V30 27 1 27 26
M  V30 28 1 28 11
M  V30 29 1 28 19
M  V30 30 1 29 27
M  V30 31 1 30 2
M  V30 32 2 30 4
M  V30 33 1 31 1
M  V30 34 1 31 15
M  V30 35 1 32 29
M  V30 36 1 33 16
M  V30 37 1 33 20
M  V30 38 1 34 1
M  V30 39 1 35 1
M  V30 40 1 3 36 CFG=3
M  V30 41 1 37 4
M  V30 42 1 38 6
M  V30 43 1 39 6
M  V30 44 1 40 7
M  V30 45 1 41 7
M  V30 46 1 42 8
M  V30 47 1 43 8
M  V30 48 1 9 44 CFG=1
M  V30 49 1 11 45 CFG=1
M  V30 50 1 46 12
M  V30 51 1 47 12
M  V30 52 1 13 48 CFG=3
M  V30 53 1 15 49 CFG=1
M  V30 54 1 16 50 CFG=3
M  V30 55 1 51 18
M  V30 56 1 52 18
M  V30 57 1 53 19
M  V30 58 1 54 19
M  V30 59 1 20 55 CFG=1
M  V30 60 1 56 21
M  V30 61 1 57 22
M  V30 62 1 58 22
M  V30 63 1 59 24
M  V30 64 1 60 24
M  V30 65 1 61 29
M  V30 66 1 62 30
M  V30 67 1 63 31
M  V30 68 1 64 31
M  V30 69 1 65 32
M  V30 70 1 66 32
M  V30 71 1 67 32
M  V30 72 1 68 33
M  V30 73 1 69 33
M  V30 74 1 17 70 CFG=1
M  V30 END BOND
M  V30 END CTAB
M  END
>  <i_epik_Tot_Q>  (1) 
1

>  <i_epik_Tot_abs_Q>  (1) 
1

>  <i_i_glide_confnum>  (1) 
153

>  <i_i_glide_lignum>  (1) 
10

>  <i_i_glide_posenum>  (1) 
43

>  <i_i_glide_rotatable_bonds>  (1) 
11

>  <i_lp_mmshare_version>  (1) 
72125

>  <i_m_source_file_index>  (1) 
1

>  <i_f3d_flags>  (1) 
0

>  <num_sample>  (1) 
50

>  <b_lp_Chiralities_Consistent>  (1) 
1

>  <r_epik_Charging_Adjusted_Penalty>  (1) 
0.41344222577729461

>  <r_epik_Ionization_Penalty>  (1) 
0.0027644559619576371

>  <r_epik_Ionization_Penalty_Charging>  (1) 
0.0027623868246906495

>  <r_epik_Ionization_Penalty_Neutral>  (1) 
2.0691372669875143e-06

>  <r_epik_State_Penalty>  (1) 
0.41067983895260396

>  <r_glide_ring_energy>  (1) 
1.7272227408313714

>  <r_i_docking_score>  (1) 
-4.2380932789848496

>  <r_i_glide_ecoul>  (1) 
-4.495266628998035

>  <r_i_glide_eff_state_penalty>  (1) 
0.41067983895260396

>  <r_i_glide_einternal>  (1) 
5.2273008959689022

>  <r_i_glide_emodel>  (1) 
-41.407089304673761

>  <r_i_glide_emodel_strain>  (1) 
0.35723262766076402

>  <r_i_glide_energy>  (1) 
-34.400726741890061

>  <r_i_glide_erotb>  (1) 
0.74142510397790429

>  <r_i_glide_esite>  (1) 
-0.10000000000000001

>  <r_i_glide_evdw>  (1) 
-29.905460112892026

>  <r_i_glide_gscore>  (1) 
-4.6487731179374538

>  <r_i_glide_gscore_strain>  (1) 
0

>  <r_i_glide_hbond>  (1) 
-0.16

>  <r_i_glide_ligand_efficiency>  (1) 
-0.12842706906014695

>  <r_i_glide_ligand_efficiency_ln>  (1) 
-0.94253000157363209

>  <r_i_glide_ligand_efficiency_sa>  (1) 
-0.41193423291116621

>  <r_i_glide_lipo>  (1) 
-1.9981969114079137

>  <r_i_glide_metal>  (1) 
-0

>  <r_i_glide_rewards>  (1) 
-0.96243831051313755

>  <r_lp_Energy>  (1) 
42.684458999999997

>  <r_lp_tautomer_probability>  (1) 
0.5

>  <s_epik_Chemistry_Notes>  (1) 
This compound has an imine and may undergo hydrolysis. This compound contains an acetal/aminal-like group ( X-CH(R)-Y where X, Y are N, S, or O) that may be acid/base labile, releasing an aldehyde.

>  <s_epik_cmdline>  (1) 
J2VwaWtfcHl0aG9uJywgJy1waHQnLCAnMS4wJywgJy1waCcsICc3LjQnLCAnLXRuJywgJzgnLCAnLW1hJywgJzUwMCcsICctaW1hZScsICc8aW5maWxlLm1hZT4nLCAnLW9tYWUnLCAnPG91dGZpbGUubWFlPic=

>  <s_epik_input>  (1) 
W0NIMl0xW0NIMl1bQ0gyXVtDSDJdW0NASF0oRilbQ0BIXTFbQ0gyXVtDSDJdTy9bQ0hdPVtDSF0vTihbQ0BIXTJPW0NIMl1bQ0gyXVtPSF0pW0NIMl1bQ0gyXU4zW0NAQEhdMltDSDJdW0NAQEhdKFtDQEBIXTM0KVtDQEBIXTRjNW5jKG9uNSlbTkhdW0NIM10=

>  <s_glide_docking_method>  (1) 
confgen

>  <s_i_glide_gridfile>  (1) 
gpcr_drd2_6luq_protein_autoprepared_prepared

>  <s_lp_Force_Field>  (1) 
S-OPLS

>  <s_lp_Variant>  (1) 
DiffSBDD_0-10

>  <s_m_source_file>  (1) 
generated_generic_title2_ligand_DiffSBDD_2026-06-23_prepared.sdf

>  <GenAI_Model>  (1) 
DiffSBDD

>  <Protein>  (1) 
generic_title2

$$$$
DiffSBDD_0
     RDKit          3D

  0  0  0  0  0  0  0  0  0  0999 V3000
M  V30 BEGIN CTAB
M  V30 COUNTS 70 74 0 0 1
M  V30 BEGIN ATOM
M  V30 1 C 10.186769 6.752059 -6.399065 0
M  V30 2 N 7.835684 4.406153 -13.950506 0
M  V30 3 C 7.507743 4.972594 -18.097438 0 CFG=1
M  V30 4 C 9.434796 5.077733 -12.204219 0
M  V30 5 F 12.343891 7.998984 -7.973489 0
M  V30 6 C 7.386452 5.754115 -14.327785 0
M  V30 7 C 8.975674 7.493143 -6.945523 0
M  V30 8 C 10.060873 7.230932 -11.515089 0
M  V30 9 C 10.281204 8.144298 -9.069767 0 CFG=1
M  V30 10 C 10.007143 4.313717 -18.493304 0
M  V30 11 C 7.324761 3.337515 -14.806643 0 CFG=1
M  V30 12 C 6.453822 0.135562 -13.412412 0
M  V30 13 C 8.595979 4.412290 -19.000454 0 CFG=1
M  V30 14 O 9.191797 6.420370 -12.294488 0
M  V30 15 C 11.426205 7.237340 -8.569389 0 CFG=2
M  V30 16 C 7.440851 3.536841 -18.511896 0 CFG=1
M  V30 17 N 7.846246 4.981029 -16.652807 0 CFG=2 CHG=1
M  V30 18 C 9.400332 7.491161 -10.158107 0
M  V30 19 C 6.799011 1.617428 -13.276151 0
M  V30 20 C 7.992795 3.573799 -16.174020 0 CFG=2
M  V30 21 O 5.221668 -0.009780 -14.081807 0
M  V30 22 C 9.438133 8.621736 -7.864213 0
M  V30 23 N 10.592856 5.296204 -17.745646 0
M  V30 24 C 6.960858 5.826941 -15.812384 0
M  V30 25 N 10.758099 3.239810 -18.738322 0
M  V30 26 O 11.966882 3.514402 -18.074959 0
M  V30 27 C 11.766547 4.726432 -17.525135 0
M  V30 28 O 7.578036 2.032755 -14.393756 0
M  V30 29 N 12.830419 5.208522 -16.785065 0
M  V30 30 C 8.810497 4.161299 -12.970504 0
M  V30 31 C 10.962127 6.148573 -7.574801 0
M  V30 32 C 12.990863 6.438255 -16.033261 0
M  V30 33 C 7.484923 2.655337 -17.288540 0
M  V30 34 H 10.825575 7.430359 -5.832504 0
M  V30 35 H 9.861877 5.990210 -5.696747 0
M  V30 36 H 6.778936 5.696165 -18.458449 0
M  V30 37 H 10.175407 4.836230 -11.458785 0
M  V30 38 H 6.589527 6.094860 -13.666299 0
M  V30 39 H 8.201725 6.463059 -14.248175 0
M  V30 40 H 8.383179 7.912653 -6.135131 0
M  V30 41 H 8.340967 6.789470 -7.482536 0
M  V30 42 H 11.061442 6.806139 -11.437202 0
M  V30 43 H 10.175378 8.178493 -12.036566 0
M  V30 44 H 10.728584 9.028299 -9.527030 0
M  V30 45 H 6.243040 3.460800 -14.880506 0
M  V30 46 H 6.341692 -0.310588 -12.423462 0
M  V30 47 H 7.241787 -0.411806 -13.930354 0
M  V30 48 H 8.588951 4.716913 -20.044804 0
M  V30 49 H 11.939788 6.790407 -9.415150 0
M  V30 50 H 6.711180 3.251478 -19.267114 0
M  V30 51 H 8.576034 8.166583 -10.386197 0
M  V30 52 H 8.969843 6.567524 -9.773393 0
M  V30 53 H 5.892579 2.208603 -13.129078 0
M  V30 54 H 7.406326 1.751270 -12.385061 0
M  V30 55 H 9.059898 3.397340 -16.044414 0
M  V30 56 H 4.975432 -0.933148 -13.985094 0
M  V30 57 H 10.043974 9.263350 -7.230041 0
M  V30 58 H 8.575445 9.190784 -8.202040 0
M  V30 59 H 5.931390 5.483440 -15.922029 0
M  V30 60 H 6.975189 6.859036 -16.160959 0
M  V30 61 H 13.630695 4.594995 -16.745436 0
M  V30 62 H 9.047616 3.114850 -12.861420 0
M  V30 63 H 11.803817 5.590077 -7.179811 0
M  V30 64 H 10.335297 5.421595 -8.092408 0
M  V30 65 H 13.921295 6.419482 -15.465607 0
M  V30 66 H 13.010739 7.296810 -16.704880 0
M  V30 67 H 12.164028 6.563851 -15.333813 0
M  V30 68 H 6.486201 2.276088 -17.076229 0
M  V30 69 H 8.142856 1.800324 -17.448231 0
M  V30 70 H 8.771191 5.389328 -16.578411 0
M  V30 END ATOM
M  V30 BEGIN BOND
M  V30 1 1 6 2
M  V30 2 1 7 1
M  V30 3 1 11 2
M  V30 4 1 13 3
M  V30 5 1 13 10
M  V30 6 1 14 4
M  V30 7 1 14 8
M  V30 8 1 15 5
M  V30 9 1 15 9
M  V30 10 1 16 3
M  V30 11 1 16 13
M  V30 12 1 17 3
M  V30 13 1 18 8
M  V30 14 1 18 9
M  V30 15 1 19 12
M  V30 16 1 20 11
M  V30 17 1 20 17
M  V30 18 1 21 12
M  V30 19 1 22 7
M  V30 20 1 22 9
M  V30 21 1 23 10
M  V30 22 1 24 6
M  V30 23 1 24 17
M  V30 24 2 25 10
M  V30 25 1 26 25
M  V30 26 2 27 23
M  V30 27 1 27 26
M  V30 28 1 28 11
M  V30 29 1 28 19
M  V30 30 1 29 27
M  V30 31 1 30 2
M  V30 32 2 30 4
M  V30 33 1 31 1
M  V30 34 1 31 15
M  V30 35 1 32 29
M  V30 36 1 33 16
M  V30 37 1 33 20
M  V30 38 1 34 1
M  V30 39 1 35 1
M  V30 40 1 3 36 CFG=3
M  V30 41 1 37 4
M  V30 42 1 38 6
M  V30 43 1 39 6
M  V30 44 1 40 7
M  V30 45 1 41 7
M  V30 46 1 42 8
M  V30 47 1 43 8
M  V30 48 1 9 44 CFG=3
M  V30 49 1 11 45 CFG=3
M  V30 50 1 46 12
M  V30 51 1 47 12
M  V30 52 1 13 48 CFG=3
M  V30 53 1 15 49 CFG=3
M  V30 54 1 16 50 CFG=3
M  V30 55 1 51 18
M  V30 56 1 52 18
M  V30 57 1 53 19
M  V30 58 1 54 19
M  V30 59 1 20 55 CFG=1
M  V30 60 1 56 21
M  V30 61 1 57 22
M  V30 62 1 58 22
M  V30 63 1 59 24
M  V30 64 1 60 24
M  V30 65 1 61 29
M  V30 66 1 62 30
M  V30 67 1 63 31
M  V30 68 1 64 31
M  V30 69 1 65 32
M  V30 70 1 66 32
M  V30 71 1 67 32
M  V30 72 1 68 33
M  V30 73 1 69 33
M  V30 74 1 17 70 CFG=3
M  V30 END BOND
M  V30 END CTAB
M  END
>  <i_epik_Tot_Q>  (1) 
1

>  <i_epik_Tot_abs_Q>  (1) 
1

>  <i_i_glide_confnum>  (1) 
52

>  <i_i_glide_lignum>  (1) 
7

>  <i_i_glide_posenum>  (1) 
368

>  <i_i_glide_rotatable_bonds>  (1) 
11

>  <i_lp_mmshare_version>  (1) 
72125

>  <i_m_source_file_index>  (1) 
1

>  <i_f3d_flags>  (1) 
0

>  <num_sample>  (1) 
50

>  <b_lp_Chiralities_Consistent>  (1) 
1

>  <r_epik_Charging_Adjusted_Penalty>  (1) 
0.41344222577729461

>  <r_epik_Ionization_Penalty>  (1) 
0.0027644559619576371

>  <r_epik_Ionization_Penalty_Charging>  (1) 
0.0027623868246906495

>  <r_epik_Ionization_Penalty_Neutral>  (1) 
2.0691372669875143e-06

>  <r_epik_State_Penalty>  (1) 
0.41067983895260396

>  <r_glide_ring_energy>  (1) 
1.2887488819257911

>  <r_i_docking_score>  (1) 
-4.236698608653354

>  <r_i_glide_ecoul>  (1) 
-3.6712223229649856

>  <r_i_glide_eff_state_penalty>  (1) 
0.41067983895260396

>  <r_i_glide_einternal>  (1) 
11.563223384741232

>  <r_i_glide_emodel>  (1) 
-35.538358209761732

>  <r_i_glide_emodel_strain>  (1) 
0.72525074618991425

>  <r_i_glide_energy>  (1) 
-34.124393948155713

>  <r_i_glide_erotb>  (1) 
0.74142510397790429

>  <r_i_glide_esite>  (1) 
0

>  <r_i_glide_evdw>  (1) 
-30.453171625190727

>  <r_i_glide_gscore>  (1) 
-4.6473784476059583

>  <r_i_glide_gscore_strain>  (1) 
0

>  <r_i_glide_hbond>  (1) 
-0.16

>  <r_i_glide_ligand_efficiency>  (1) 
-0.12838480632282892

>  <r_i_glide_ligand_efficiency_ln>  (1) 
-0.94221983411312393

>  <r_i_glide_ligand_efficiency_sa>  (1) 
-0.41179867373033902

>  <r_i_glide_lipo>  (1) 
-1.8038823805435966

>  <r_i_glide_metal>  (1) 
-0

>  <r_i_glide_rewards>  (1) 
-1.3515792413359813

>  <r_lp_Energy>  (1) 
39.472059000000002

>  <r_lp_tautomer_probability>  (1) 
0.5

>  <s_epik_Chemistry_Notes>  (1) 
This compound has an imine and may undergo hydrolysis. This compound contains an acetal/aminal-like group ( X-CH(R)-Y where X, Y are N, S, or O) that may be acid/base labile, releasing an aldehyde.

>  <s_epik_cmdline>  (1) 
J2VwaWtfcHl0aG9uJywgJy1waHQnLCAnMS4wJywgJy1waCcsICc3LjQnLCAnLXRuJywgJzgnLCAnLW1hJywgJzUwMCcsICctaW1hZScsICc8aW5maWxlLm1hZT4nLCAnLW9tYWUnLCAnPG91dGZpbGUubWFlPic=

>  <s_epik_input>  (1) 
W0NIMl0xW0NIMl1bQ0gyXVtDSDJdW0NASF0oRilbQ0BIXTFbQ0gyXVtDSDJdTy9bQ0hdPVtDSF1cTihbQ0BIXTJPW0NIMl1bQ0gyXVtPSF0pW0NIMl1bQ0gyXU4zW0NAQEhdMltDSDJdW0NAQEhdKFtDQEBIXTM0KVtDQEBIXTRjNW5jKG9uNSlbTkhdW0NIM10=

>  <s_glide_docking_method>  (1) 
confgen

>  <s_i_glide_gridfile>  (1) 
gpcr_drd2_6luq_protein_autoprepared_prepared

>  <s_lp_Force_Field>  (1) 
S-OPLS

>  <s_lp_Variant>  (1) 
DiffSBDD_0-7

>  <s_m_source_file>  (1) 
generated_generic_title2_ligand_DiffSBDD_2026-06-23_prepared.sdf

>  <GenAI_Model>  (1) 
DiffSBDD

>  <Protein>  (1) 
generic_title2

$$$$
DiffSBDD_0
     RDKit          3D

  0  0  0  0  0  0  0  0  0  0999 V3000
M  V30 BEGIN CTAB
M  V30 COUNTS 70 74 0 0 1
M  V30 BEGIN ATOM
M  V30 1 C 10.095411 6.954448 -5.988528 0
M  V30 2 N 7.444514 4.878566 -14.164915 0
M  V30 3 C 7.760387 5.027621 -18.322821 0 CFG=1
M  V30 4 C 8.712226 6.156940 -12.520524 0
M  V30 5 F 12.975404 7.990231 -8.091930 0
M  V30 6 C 6.730068 6.025768 -14.729277 0
M  V30 7 C 8.990205 7.357510 -6.970074 0
M  V30 8 C 9.768109 7.453728 -10.876056 0
M  V30 9 C 10.711644 8.338220 -8.588532 0 CFG=1
M  V30 10 C 10.317824 4.418687 -18.330123 0
M  V30 11 C 7.269520 3.638837 -14.909777 0 CFG=1
M  V30 12 C 7.178831 0.427113 -13.081209 0
M  V30 13 C 8.979454 4.423975 -19.008730 0 CFG=1
M  V30 14 O 9.690785 6.214417 -11.569655 0
M  V30 15 C 11.779066 8.049515 -7.514912 0 CFG=1
M  V30 16 C 7.797865 3.553587 -18.590506 0 CFG=1
M  V30 17 N 7.840349 5.186047 -16.845395 0 CFG=2 CHG=1
M  V30 18 C 10.666689 7.218430 -9.658769 0
M  V30 19 C 6.728733 1.848855 -13.454663 0
M  V30 20 C 8.047048 3.839820 -16.224140 0 CFG=2
M  V30 21 O 6.175398 -0.227468 -12.324577 0
M  V30 22 C 9.381649 8.556167 -7.845052 0
M  V30 23 N 11.103798 3.306414 -18.249432 0
M  V30 24 C 6.700766 5.962348 -16.277175 0
M  V30 25 N 10.807750 5.523920 -17.764617 0
M  V30 26 O 12.046003 5.116128 -17.243475 0
M  V30 27 C 12.128205 3.815365 -17.585094 0
M  V30 28 O 7.705060 2.465396 -14.290822 0
M  V30 29 N 13.292613 3.181671 -17.185031 0
M  V30 30 C 8.417326 5.017396 -13.173745 0
M  V30 31 C 11.433275 6.774281 -6.703721 0
M  V30 32 C 14.445166 3.670258 -16.450441 0
M  V30 33 C 7.710568 2.794890 -17.290994 0
M  V30 34 H 10.198008 7.723639 -5.222561 0
M  V30 35 H 9.818301 6.037930 -5.467578 0
M  V30 36 H 7.075134 5.677065 -18.864831 0
M  V30 37 H 8.225130 7.108201 -12.677466 0
M  V30 38 H 5.718691 6.074728 -14.323607 0
M  V30 39 H 7.215672 6.961054 -14.460292 0
M  V30 40 H 8.132475 7.647981 -6.385020 0
M  V30 41 H 8.686739 6.510826 -7.586724 0
M  V30 42 H 10.175360 8.232093 -11.521167 0
M  V30 43 H 8.777159 7.772661 -10.569099 0
M  V30 44 H 10.979570 9.265760 -9.095276 0
M  V30 45 H 6.203498 3.550985 -15.120915 0
M  V30 46 H 8.102172 0.461971 -12.502825 0
M  V30 47 H 7.382011 -0.158357 -13.979060 0
M  V30 48 H 9.102173 4.617870 -20.072533 0
M  V30 49 H 11.845964 8.897851 -6.832194 0
M  V30 50 H 7.192883 3.158123 -19.404443 0
M  V30 51 H 10.353337 6.279612 -9.205779 0
M  V30 52 H 11.678283 7.057361 -10.027530 0
M  V30 53 H 5.775425 1.775266 -13.978801 0
M  V30 54 H 6.565552 2.454812 -12.562163 0
M  V30 55 H 9.108556 3.769508 -15.984878 0
M  V30 56 H 5.800651 -0.946121 -12.829582 0
M  V30 57 H 9.480340 9.411730 -7.185008 0
M  V30 58 H 8.582870 8.828770 -8.527385 0
M  V30 59 H 5.775249 5.483867 -16.593287 0
M  V30 60 H 6.670347 6.967849 -16.697597 0
M  V30 61 H 13.348409 2.205669 -17.435715 0
M  V30 62 H 8.946585 4.099490 -12.959492 0
M  V30 63 H 12.175407 6.533778 -5.950336 0
M  V30 64 H 11.385851 5.895471 -7.344153 0
M  V30 65 H 15.059207 2.837569 -16.107322 0
M  V30 66 H 15.053416 4.316075 -17.083987 0
M  V30 67 H 14.127885 4.244328 -15.579609 0
M  V30 68 H 6.697495 2.407856 -17.173759 0
M  V30 69 H 8.402087 1.951457 -17.280181 0
M  V30 70 H 8.674284 5.719792 -16.635478 0
M  V30 END ATOM
M  V30 BEGIN BOND
M  V30 1 1 6 2
M  V30 2 1 7 1
M  V30 3 1 11 2
M  V30 4 1 13 3
M  V30 5 1 13 10
M  V30 6 1 14 4
M  V30 7 1 14 8
M  V30 8 1 15 5
M  V30 9 1 15 9
M  V30 10 1 16 3
M  V30 11 1 16 13
M  V30 12 1 17 3
M  V30 13 1 18 8
M  V30 14 1 18 9
M  V30 15 1 19 12
M  V30 16 1 20 11
M  V30 17 1 20 17
M  V30 18 1 21 12
M  V30 19 1 22 7
M  V30 20 1 22 9
M  V30 21 1 23 10
M  V30 22 1 24 6
M  V30 23 1 24 17
M  V30 24 2 25 10
M  V30 25 1 26 25
M  V30 26 2 27 23
M  V30 27 1 27 26
M  V30 28 1 28 11
M  V30 29 1 28 19
M  V30 30 1 29 27
M  V30 31 1 30 2
M  V30 32 2 30 4
M  V30 33 1 31 1
M  V30 34 1 31 15
M  V30 35 1 32 29
M  V30 36 1 33 16
M  V30 37 1 33 20
M  V30 38 1 34 1
M  V30 39 1 35 1
M  V30 40 1 3 36 CFG=3
M  V30 41 1 37 4
M  V30 42 1 38 6
M  V30 43 1 39 6
M  V30 44 1 40 7
M  V30 45 1 41 7
M  V30 46 1 42 8
M  V30 47 1 43 8
M  V30 48 1 9 44 CFG=3
M  V30 49 1 11 45 CFG=3
M  V30 50 1 46 12
M  V30 51 1 47 12
M  V30 52 1 13 48 CFG=3
M  V30 53 1 15 49 CFG=1
M  V30 54 1 16 50 CFG=3
M  V30 55 1 51 18
M  V30 56 1 52 18
M  V30 57 1 53 19
M  V30 58 1 54 19
M  V30 59 1 20 55 CFG=1
M  V30 60 1 56 21
M  V30 61 1 57 22
M  V30 62 1 58 22
M  V30 63 1 59 24
M  V30 64 1 60 24
M  V30 65 1 61 29
M  V30 66 1 62 30
M  V30 67 1 63 31
M  V30 68 1 64 31
M  V30 69 1 65 32
M  V30 70 1 66 32
M  V30 71 1 67 32
M  V30 72 1 68 33
M  V30 73 1 69 33
M  V30 74 1 17 70 CFG=3
M  V30 END BOND
M  V30 END CTAB
M  END
>  <i_epik_Tot_Q>  (1) 
1

>  <i_epik_Tot_abs_Q>  (1) 
1

>  <i_i_glide_confnum>  (1) 
528

>  <i_i_glide_lignum>  (1) 
13

>  <i_i_glide_posenum>  (1) 
170

>  <i_i_glide_rotatable_bonds>  (1) 
11

>  <i_lp_mmshare_version>  (1) 
72125

>  <i_m_source_file_index>  (1) 
1

>  <i_f3d_flags>  (1) 
0

>  <num_sample>  (1) 
50

>  <b_lp_Chiralities_Consistent>  (1) 
1

>  <r_epik_Charging_Adjusted_Penalty>  (1) 
0.41344222577729461

>  <r_epik_Ionization_Penalty>  (1) 
0.0027644559619576371

>  <r_epik_Ionization_Penalty_Charging>  (1) 
0.0027623868246906495

>  <r_epik_Ionization_Penalty_Neutral>  (1) 
2.0691372669875143e-06

>  <r_epik_State_Penalty>  (1) 
0.41067983895260396

>  <r_glide_ring_energy>  (1) 
1.7395912014422352

>  <r_i_docking_score>  (1) 
-4.2351831694590727

>  <r_i_glide_ecoul>  (1) 
-2.446534906867841

>  <r_i_glide_eff_state_penalty>  (1) 
0.41067983895260396

>  <r_i_glide_einternal>  (1) 
8.4905054828283113

>  <r_i_glide_emodel>  (1) 
-40.023851512737529

>  <r_i_glide_emodel_strain>  (1) 
1.4527057284210514

>  <r_i_glide_energy>  (1) 
-35.38365745147906

>  <r_i_glide_erotb>  (1) 
0.74142510397790429

>  <r_i_glide_esite>  (1) 
0

>  <r_i_glide_evdw>  (1) 
-32.937122544611221

>  <r_i_glide_gscore>  (1) 
-4.645863008411677

>  <r_i_glide_gscore_strain>  (1) 
0

>  <r_i_glide_hbond>  (1) 
-0.16

>  <r_i_glide_ligand_efficiency>  (1) 
-0.12833888392300219

>  <r_i_glide_ligand_efficiency_ln>  (1) 
-0.94188280828283999

>  <r_i_glide_ligand_efficiency_sa>  (1) 
-0.41165137605637903

>  <r_i_glide_lipo>  (1) 
-1.9680089704772998

>  <r_i_glide_metal>  (1) 
-0

>  <r_i_glide_rewards>  (1) 
-1.2454427786515441

>  <r_lp_Energy>  (1) 
41.750805999999997

>  <r_lp_tautomer_probability>  (1) 
0.5

>  <s_epik_Chemistry_Notes>  (1) 
This compound has an imine and may undergo hydrolysis. This compound contains an acetal/aminal-like group ( X-CH(R)-Y where X, Y are N, S, or O) that may be acid/base labile, releasing an aldehyde.

>  <s_epik_cmdline>  (1) 
J2VwaWtfcHl0aG9uJywgJy1waHQnLCAnMS4wJywgJy1waCcsICc3LjQnLCAnLXRuJywgJzgnLCAnLW1hJywgJzUwMCcsICctaW1hZScsICc8aW5maWxlLm1hZT4nLCAnLW9tYWUnLCAnPG91dGZpbGUubWFlPic=

>  <s_epik_input>  (1) 
W0NIMl0xW0NIMl1bQ0gyXVtDSDJdW0NASF0oRilbQ0BIXTFbQ0gyXVtDSDJdTy9bQ0hdPVtDSF0vTihbQ0BIXTJPW0NIMl1bQ0gyXVtPSF0pW0NIMl1bQ0gyXU4zW0NAQEhdMltDSDJdW0NAQEhdKFtDQEBIXTM0KVtDQEBIXTRjNW5jKG9uNSlbTkhdW0NIM10=

>  <s_glide_docking_method>  (1) 
confgen

>  <s_i_glide_gridfile>  (1) 
gpcr_drd2_6luq_protein_autoprepared_prepared

>  <s_lp_Force_Field>  (1) 
S-OPLS

>  <s_lp_Variant>  (1) 
DiffSBDD_0-13

>  <s_m_source_file>  (1) 
generated_generic_title2_ligand_DiffSBDD_2026-06-23_prepared.sdf

>  <GenAI_Model>  (1) 
DiffSBDD

>  <Protein>  (1) 
generic_title2

$$$$
DiffSBDD_0
     RDKit          3D

  0  0  0  0  0  0  0  0  0  0999 V3000
M  V30 BEGIN CTAB
M  V30 COUNTS 70 74 0 0 1
M  V30 BEGIN ATOM
M  V30 1 C 10.841523 8.885696 -6.293202 0
M  V30 2 N 7.662394 4.612297 -13.861434 0
M  V30 3 C 7.649200 5.063897 -17.993560 0 CFG=1
M  V30 4 C 9.076973 5.914356 -12.358202 0
M  V30 5 F 8.799361 6.003636 -7.436081 0
M  V30 6 C 6.809990 5.727304 -14.275745 0
M  V30 7 C 11.789283 8.963690 -7.500649 0
M  V30 8 C 10.529987 7.283522 -11.074862 0
M  V30 9 C 10.740254 6.852813 -8.491012 0 CFG=1
M  V30 10 C 10.210784 4.531919 -18.177247 0
M  V30 11 C 7.482651 3.394878 -14.645557 0 CFG=1
M  V30 12 C 6.651355 0.372286 -13.625862 0
M  V30 13 C 8.839705 4.544736 -18.788769 0 CFG=1
M  V30 14 O 10.175388 5.990220 -11.551769 0
M  V30 15 C 9.893966 6.727435 -7.209361 0 CFG=1
M  V30 16 C 7.695233 3.616746 -18.379585 0 CFG=1
M  V30 17 N 7.813425 5.105135 -16.515190 0 CFG=2 CHG=1
M  V30 18 C 9.965604 7.502603 -9.664626 0
M  V30 19 C 7.419843 1.589444 -13.087949 0
M  V30 20 C 8.095369 3.720616 -16.024481 0 CFG=2
M  V30 21 O 6.175417 -0.409617 -12.548452 0
M  V30 22 C 12.045745 7.590230 -8.125954 0
M  V30 23 N 10.717449 5.590317 -17.477520 0
M  V30 24 C 6.687503 5.785436 -15.817280 0
M  V30 25 N 11.004916 3.466390 -18.282057 0
M  V30 26 O 12.162945 3.836796 -17.577079 0
M  V30 27 C 11.897687 5.087988 -17.153237 0
M  V30 28 O 8.107434 2.255540 -14.140152 0
M  V30 29 N 12.913888 5.683965 -16.424074 0
M  V30 30 C 8.752779 4.781257 -13.006500 0
M  V30 31 C 9.557744 8.108148 -6.621899 0
M  V30 32 C 14.222030 5.196177 -16.027452 0
M  V30 33 C 7.681953 2.758161 -17.137594 0
M  V30 34 H 11.354131 8.391354 -5.466767 0
M  V30 35 H 10.594197 9.888409 -5.945169 0
M  V30 36 H 6.926966 5.743610 -18.443731 0
M  V30 37 H 8.526681 6.841915 -12.407296 0
M  V30 38 H 5.826252 5.633169 -13.814174 0
M  V30 39 H 7.207222 6.684867 -13.948573 0
M  V30 40 H 12.733018 9.405958 -7.184945 0
M  V30 41 H 11.375426 9.603785 -8.271426 0
M  V30 42 H 11.616085 7.369591 -11.068846 0
M  V30 43 H 10.175392 8.064583 -11.748007 0
M  V30 44 H 10.975405 5.835228 -8.785009 0
M  V30 45 H 6.411121 3.205923 -14.726278 0
M  V30 46 H 7.303966 -0.248316 -14.241660 0
M  V30 47 H 5.814965 0.685456 -14.251154 0
M  V30 48 H 8.902429 4.827698 -19.837566 0
M  V30 49 H 10.448472 6.153101 -6.465836 0
M  V30 50 H 7.049920 3.276949 -19.187818 0
M  V30 51 H 9.824633 8.568619 -9.494889 0
M  V30 52 H 8.975379 7.076769 -9.674722 0
M  V30 53 H 6.765209 2.261822 -12.530071 0
M  V30 54 H 8.175429 1.242060 -12.385200 0
M  V30 55 H 9.176043 3.663760 -15.908714 0
M  V30 56 H 5.694723 -1.159089 -12.901313 0
M  V30 57 H 12.575377 6.995715 -7.384933 0
M  V30 58 H 12.701926 7.679828 -8.991506 0
M  V30 59 H 5.767000 5.286019 -16.110679 0
M  V30 60 H 6.597094 6.818640 -16.154189 0
M  V30 61 H 12.712592 6.620418 -16.106961 0
M  V30 62 H 9.356115 3.890831 -12.899851 0
M  V30 63 H 8.975419 7.990156 -5.714305 0
M  V30 64 H 8.933716 8.675326 -7.313072 0
M  V30 65 H 14.703186 5.902660 -15.350552 0
M  V30 66 H 14.137321 4.235544 -15.519436 0
M  V30 67 H 14.859065 5.067231 -16.902513 0
M  V30 68 H 6.672745 2.375199 -16.982470 0
M  V30 69 H 8.361575 1.910406 -17.234208 0
M  V30 70 H 8.643792 5.647360 -16.310418 0
M  V30 END ATOM
M  V30 BEGIN BOND
M  V30 1 1 6 2
M  V30 2 1 7 1
M  V30 3 1 11 2
M  V30 4 1 13 3
M  V30 5 1 13 10
M  V30 6 1 14 4
M  V30 7 1 14 8
M  V30 8 1 15 5
M  V30 9 1 15 9
M  V30 10 1 16 3
M  V30 11 1 16 13
M  V30 12 1 17 3
M  V30 13 1 18 8
M  V30 14 1 18 9
M  V30 15 1 19 12
M  V30 16 1 20 11
M  V30 17 1 20 17
M  V30 18 1 21 12
M  V30 19 1 22 7
M  V30 20 1 22 9
M  V30 21 1 23 10
M  V30 22 1 24 6
M  V30 23 1 24 17
M  V30 24 2 25 10
M  V30 25 1 26 25
M  V30 26 2 27 23
M  V30 27 1 27 26
M  V30 28 1 28 11
M  V30 29 1 28 19
M  V30 30 1 29 27
M  V30 31 1 30 2
M  V30 32 2 30 4
M  V30 33 1 31 1
M  V30 34 1 31 15
M  V30 35 1 32 29
M  V30 36 1 33 16
M  V30 37 1 33 20
M  V30 38 1 34 1
M  V30 39 1 35 1
M  V30 40 1 3 36 CFG=3
M  V30 41 1 37 4
M  V30 42 1 38 6
M  V30 43 1 39 6
M  V30 44 1 40 7
M  V30 45 1 41 7
M  V30 46 1 42 8
M  V30 47 1 43 8
M  V30 48 1 9 44 CFG=3
M  V30 49 1 11 45 CFG=3
M  V30 50 1 46 12
M  V30 51 1 47 12
M  V30 52 1 13 48 CFG=3
M  V30 53 1 15 49 CFG=1
M  V30 54 1 16 50 CFG=3
M  V30 55 1 51 18
M  V30 56 1 52 18
M  V30 57 1 53 19
M  V30 58 1 54 19
M  V30 59 1 20 55 CFG=1
M  V30 60 1 56 21
M  V30 61 1 57 22
M  V30 62 1 58 22
M  V30 63 1 59 24
M  V30 64 1 60 24
M  V30 65 1 61 29
M  V30 66 1 62 30
M  V30 67 1 63 31
M  V30 68 1 64 31
M  V30 69 1 65 32
M  V30 70 1 66 32
M  V30 71 1 67 32
M  V30 72 1 68 33
M  V30 73 1 69 33
M  V30 74 1 17 70 CFG=3
M  V30 END BOND
M  V30 END CTAB
M  END
>  <i_epik_Tot_Q>  (1) 
1

>  <i_epik_Tot_abs_Q>  (1) 
1

>  <i_i_glide_confnum>  (1) 
102

>  <i_i_glide_lignum>  (1) 
13

>  <i_i_glide_posenum>  (1) 
396

>  <i_i_glide_rotatable_bonds>  (1) 
11

>  <i_lp_mmshare_version>  (1) 
72125

>  <i_m_source_file_index>  (1) 
1

>  <i_f3d_flags>  (1) 
0

>  <num_sample>  (1) 
50

>  <b_lp_Chiralities_Consistent>  (1) 
1

>  <r_epik_Charging_Adjusted_Penalty>  (1) 
0.41344222577729461

>  <r_epik_Ionization_Penalty>  (1) 
0.0027644559619576371

>  <r_epik_Ionization_Penalty_Charging>  (1) 
0.0027623868246906495

>  <r_epik_Ionization_Penalty_Neutral>  (1) 
2.0691372669875143e-06

>  <r_epik_State_Penalty>  (1) 
0.41067983895260396

>  <r_glide_ring_energy>  (1) 
1.7395912014422352

>  <r_i_docking_score>  (1) 
-4.2215035213493399

>  <r_i_glide_ecoul>  (1) 
-2.6962270558553145

>  <r_i_glide_eff_state_penalty>  (1) 
0.41067983895260396

>  <r_i_glide_einternal>  (1) 
9.738909404723092

>  <r_i_glide_emodel>  (1) 
-40.640760096893317

>  <r_i_glide_emodel_strain>  (1) 
0.29232064398047442

>  <r_i_glide_energy>  (1) 
-35.494823389717951

>  <r_i_glide_erotb>  (1) 
0.74142510397790429

>  <r_i_glide_esite>  (1) 
-0.091039391637002878

>  <r_i_glide_evdw>  (1) 
-32.798596333862633

>  <r_i_glide_gscore>  (1) 
-4.6321833603019442

>  <r_i_glide_gscore_strain>  (1) 
0

>  <r_i_glide_hbond>  (1) 
-0.16

>  <r_i_glide_ligand_efficiency>  (1) 
-0.12792434913179818

>  <r_i_glide_ligand_efficiency_ln>  (1) 
-0.9388405253726626

>  <r_i_glide_ligand_efficiency_sa>  (1) 
-0.41032174148261447

>  <r_i_glide_lipo>  (1) 
-1.8610558439077896

>  <r_i_glide_metal>  (1) 
-0

>  <r_i_glide_rewards>  (1) 
-1.217149353663628

>  <r_lp_Energy>  (1) 
41.750805999999997

>  <r_lp_tautomer_probability>  (1) 
0.5

>  <s_epik_Chemistry_Notes>  (1) 
This compound has an imine and may undergo hydrolysis. This compound contains an acetal/aminal-like group ( X-CH(R)-Y where X, Y are N, S, or O) that may be acid/base labile, releasing an aldehyde.

>  <s_epik_cmdline>  (1) 
J2VwaWtfcHl0aG9uJywgJy1waHQnLCAnMS4wJywgJy1waCcsICc3LjQnLCAnLXRuJywgJzgnLCAnLW1hJywgJzUwMCcsICctaW1hZScsICc8aW5maWxlLm1hZT4nLCAnLW9tYWUnLCAnPG91dGZpbGUubWFlPic=

>  <s_epik_input>  (1) 
W0NIMl0xW0NIMl1bQ0gyXVtDSDJdW0NASF0oRilbQ0BIXTFbQ0gyXVtDSDJdTy9bQ0hdPVtDSF0vTihbQ0BIXTJPW0NIMl1bQ0gyXVtPSF0pW0NIMl1bQ0gyXU4zW0NAQEhdMltDSDJdW0NAQEhdKFtDQEBIXTM0KVtDQEBIXTRjNW5jKG9uNSlbTkhdW0NIM10=

>  <s_glide_docking_method>  (1) 
confgen

>  <s_i_glide_gridfile>  (1) 
gpcr_drd2_6luq_protein_autoprepared_prepared

>  <s_lp_Force_Field>  (1) 
S-OPLS

>  <s_lp_Variant>  (1) 
DiffSBDD_0-13

>  <s_m_source_file>  (1) 
generated_generic_title2_ligand_DiffSBDD_2026-06-23_prepared.sdf

>  <GenAI_Model>  (1) 
DiffSBDD

>  <Protein>  (1) 
generic_title2

$$$$
DiffSBDD_30
     RDKit          3D

  0  0  0  0  0  0  0  0  0  0999 V3000
M  V30 BEGIN CTAB
M  V30 COUNTS 44 44 0 0 1
M  V30 BEGIN ATOM
M  V30 1 C 8.717917 5.789307 -10.717731 0
M  V30 2 N 11.738547 9.472322 -4.573601 0 CHG=-1
M  V30 3 C 7.832721 1.154797 -13.812030 0
M  V30 4 O 10.524022 6.858490 -6.868841 0
M  V30 5 C 12.262638 9.190213 -3.271113 0
M  V30 6 C 6.953446 2.321864 -13.315629 0
M  V30 7 O 8.575412 4.007755 -13.822702 0
M  V30 8 F 6.175410 1.829069 -12.352992 0
M  V30 9 N 7.008712 0.070496 -14.322893 0
M  V30 10 C 11.375402 8.245705 -5.041273 0
M  V30 11 C 9.579659 7.037374 -10.445253 0 CFG=2
M  V30 12 C 12.175411 7.678289 -3.240031 0
M  V30 13 C 7.708353 5.979777 -11.868085 0
M  V30 14 C 7.759723 3.529574 -12.771256 0 CFG=1
M  V30 15 F 11.506447 9.737149 -2.324277 0
M  V30 16 F 13.517270 9.590227 -3.185165 0
M  V30 17 C 10.639400 8.184461 -6.368088 0
M  V30 18 O 12.575406 7.032988 -2.272146 0
M  V30 19 N 9.594581 6.878482 -7.971792 0
M  V30 20 F 6.175423 2.747594 -14.308214 0
M  V30 21 O 10.476650 7.190229 -11.528011 0
M  V30 22 C 10.416692 6.912866 -9.165763 0
M  V30 23 O 6.159396 4.325845 -11.100127 0
M  V30 24 N 11.614665 7.180425 -4.385027 0
M  V30 25 C 6.900550 4.713435 -12.240226 0 CFG=1
M  V30 26 H 9.375016 4.941288 -10.910615 0
M  V30 27 H 8.160762 5.536311 -9.814944 0
M  V30 28 H 8.503249 1.484195 -14.605803 0
M  V30 29 H 8.455270 0.780193 -12.998513 0
M  V30 30 H 9.243676 4.564935 -13.452176 0
M  V30 31 H 7.570294 -0.734072 -14.569657 0
M  V30 32 H 6.352971 -0.240582 -13.617434 0
M  V30 33 H 8.975402 7.940572 -10.385078 0
M  V30 34 H 7.014680 6.774982 -11.589009 0
M  V30 35 H 8.222096 6.350508 -12.754505 0
M  V30 36 H 8.425103 3.175657 -11.985019 0
M  V30 37 H 11.156720 8.818622 -7.089423 0
M  V30 38 H 9.648493 8.614788 -6.208782 0
M  V30 39 H 9.037256 7.716692 -7.872458 0
M  V30 40 H 9.970973 7.379039 -12.303362 0
M  V30 41 H 10.975477 5.990227 -9.184913 0
M  V30 42 H 11.129050 7.735867 -9.105459 0
M  V30 43 H 5.855746 5.101408 -10.649244 0
M  V30 44 H 6.181354 4.994224 -13.010522 0
M  V30 END ATOM
M  V30 BEGIN BOND
M  V30 1 1 5 2
M  V30 2 1 6 3
M  V30 3 1 8 6
M  V30 4 1 9 3
M  V30 5 1 10 2
M  V30 6 1 11 1
M  V30 7 1 12 5
M  V30 8 1 13 1
M  V30 9 1 14 6
M  V30 10 1 14 7
M  V30 11 1 15 5
M  V30 12 1 16 5
M  V30 13 1 17 4
M  V30 14 1 17 10
M  V30 15 2 18 12
M  V30 16 1 19 4
M  V30 17 1 20 6
M  V30 18 1 21 11
M  V30 19 1 22 11
M  V30 20 1 22 19
M  V30 21 2 24 10
M  V30 22 1 24 12
M  V30 23 1 25 13
M  V30 24 1 25 14
M  V30 25 1 25 23
M  V30 26 1 26 1
M  V30 27 1 27 1
M  V30 28 1 28 3
M  V30 29 1 29 3
M  V30 30 1 30 7
M  V30 31 1 31 9
M  V30 32 1 32 9
M  V30 33 1 11 33 CFG=1
M  V30 34 1 34 13
M  V30 35 1 35 13
M  V30 36 1 14 36 CFG=1
M  V30 37 1 37 17
M  V30 38 1 38 17
M  V30 39 1 39 19
M  V30 40 1 40 21
M  V30 41 1 41 22
M  V30 42 1 42 22
M  V30 43 1 43 23
M  V30 44 1 25 44 CFG=3
M  V30 END BOND
M  V30 END CTAB
M  END
>  <i_epik_Tot_Q>  (1) 
-1

>  <i_epik_Tot_abs_Q>  (1) 
1

>  <i_i_glide_confnum>  (1) 
1132

>  <i_i_glide_lignum>  (1) 
89

>  <i_i_glide_posenum>  (1) 
50

>  <i_i_glide_rotatable_bonds>  (1) 
14

>  <i_lp_mmshare_version>  (1) 
72125

>  <i_m_source_file_index>  (1) 
31

>  <i_f3d_flags>  (1) 
0

>  <num_sample>  (1) 
50

>  <b_lp_Chiralities_Consistent>  (1) 
1

>  <r_epik_Charging_Adjusted_Penalty>  (1) 
0.29689953438897132

>  <r_epik_Ionization_Penalty>  (1) 
0.29704553669164502

>  <r_epik_Ionization_Penalty_Charging>  (1) 
1.7526919545429853e-05

>  <r_epik_Ionization_Penalty_Neutral>  (1) 
0.29702800977209959

>  <r_epik_State_Penalty>  (1) 
0.29688200746942589

>  <r_glide_ring_energy>  (1) 
0

>  <r_i_docking_score>  (1) 
-4.2205200461296295

>  <r_i_glide_ecoul>  (1) 
-5.3089256857398244

>  <r_i_glide_eff_state_penalty>  (1) 
0.29688200746942589

>  <r_i_glide_einternal>  (1) 
5.9485167121378169

>  <r_i_glide_emodel>  (1) 
-44.781294270119815

>  <r_i_glide_emodel_strain>  (1) 
0.60012843663880489

>  <r_i_glide_energy>  (1) 
-35.941228723338568

>  <r_i_glide_erotb>  (1) 
1.2361090002768802

>  <r_i_glide_esite>  (1) 
-0.074393953652616474

>  <r_i_glide_evdw>  (1) 
-30.632303037598742

>  <r_i_glide_gscore>  (1) 
-4.5174020535990556

>  <r_i_glide_gscore_strain>  (1) 
0

>  <r_i_glide_hbond>  (1) 
-0.11020722713559604

>  <r_i_glide_ligand_efficiency>  (1) 
-0.16882080184518519

>  <r_i_glide_ligand_efficiency_ln>  (1) 
-1.0003897297122937

>  <r_i_glide_ligand_efficiency_sa>  (1) 
-0.49363501917464087

>  <r_i_glide_lipo>  (1) 
-1.2723379890672566

>  <r_i_glide_metal>  (1) 
-0

>  <r_i_glide_rewards>  (1) 
-1.9686178792795563

>  <r_lp_Energy>  (1) 
24.598537

>  <s_epik_Chemistry_Notes>  (1) 
This compound has an imine and may undergo hydrolysis. This compound has a N-S or N-O group and may undergo hydrolysis at high or low pH.

>  <s_epik_cmdline>  (1) 
J2VwaWtfcHl0aG9uJywgJy1waHQnLCAnMS4wJywgJy1waCcsICc3LjQnLCAnLXRuJywgJzgnLCAnLW1hJywgJzUwMCcsICctaW1hZScsICc8aW5maWxlLm1hZT4nLCAnLW9tYWUnLCAnPG91dGZpbGUubWFlPic=

>  <s_epik_input>  (1) 
W05IMl1bQ0gyXUMoRikoRilbQ0BASF0oW09IXSlbQ0BASF0oW09IXSlbQ0gyXVtDSDJdW0NASF0oW09IXSlbQ0gyXVtOSF1PW0NIMl1DKD1OQzEoRilGKVtOSF1DMT1P

>  <s_glide_docking_method>  (1) 
confgen

>  <s_i_glide_gridfile>  (1) 
gpcr_drd2_6luq_protein_autoprepared_prepared

>  <s_lp_Force_Field>  (1) 
S-OPLS

>  <s_lp_Variant>  (1) 
DiffSBDD_30-1

>  <s_m_source_file>  (1) 
generated_generic_title2_ligand_DiffSBDD_2026-06-23_prepared.sdf

>  <GenAI_Model>  (1) 
DiffSBDD

>  <Protein>  (1) 
generic_title2

$$$$
DiffSBDD_28
     RDKit          3D

  0  0  0  0  0  0  0  0  0  0999 V3000
M  V30 BEGIN CTAB
M  V30 COUNTS 79 86 0 0 1
M  V30 BEGIN ATOM
M  V30 1 F 8.258749 0.589892 -17.174360 0
M  V30 2 C 11.684686 7.965219 -7.765123 0 CFG=1
M  V30 3 C 8.786898 6.000879 -9.164783 0 CFG=2
M  V30 4 C 11.692707 7.768865 -4.900314 0 CFG=2
M  V30 5 C 6.014821 3.618245 -11.845075 0 CFG=1
M  V30 6 C 13.129821 7.782436 -8.124179 0
M  V30 7 C 8.265959 4.718786 -11.292689 0 CFG=2
M  V30 8 C 6.789431 0.881273 -14.483992 0 CFG=1
M  V30 9 C 9.632920 4.889378 -8.525916 0
M  V30 10 C 6.527008 3.079344 -13.186435 0 CFG=1
M  V30 11 C 11.236412 9.765977 -6.651255 0 CFG=1
M  V30 12 C 9.590535 6.839275 -11.276822 0
M  V30 13 C 11.488760 8.355428 -6.284658 0 CFG=1
M  V30 14 O 12.175394 10.614879 -6.051620 0
M  V30 15 C 6.901424 0.417421 -16.995753 0 CFG=1
M  V30 16 C 6.846201 4.428404 -10.938257 0 CFG=1
M  V30 17 O 5.837438 5.038619 -11.748633 0
M  V30 18 N 8.581567 5.990200 -10.637051 0 CFG=2 CHG=1
M  V30 19 O 11.775385 8.240572 -2.449155 0
M  V30 20 C 6.371545 -0.866784 -17.509416 0
M  V30 21 O 10.412295 7.764561 -5.554577 0
M  V30 22 C 8.022310 3.392520 -13.427890 0
M  V30 23 C 11.375540 9.413185 -8.133940 0
M  V30 24 N 10.848677 6.893577 -8.354019 0
M  V30 25 C 11.883213 8.763411 -3.759685 0
M  V30 26 N 6.575522 -0.508450 -14.072831 0 CHG=1
M  V30 27 C 8.459664 4.729294 -12.828390 0
M  V30 28 C 6.175423 -0.563484 -12.656829 0
M  V30 29 C 6.507654 0.790978 -12.169204 0
M  V30 30 O 5.664264 -1.570086 -16.789331 0
M  V30 31 C 9.759634 7.955534 -10.290954 0
M  V30 32 C 6.174421 1.132656 -15.866857 0
M  V30 33 O 6.095777 0.217678 -18.202996 0
M  V30 34 N 6.196900 1.636215 -13.343740 0 CFG=2 CHG=1
M  V30 35 C 10.579360 5.676111 -7.607365 0
M  V30 36 C 12.975561 7.718577 -1.970357 0
M  V30 37 C 9.577226 7.289543 -8.909548 0 CFG=1
M  V30 38 H 7.824663 5.990451 -8.654890 0
M  V30 39 H 12.170427 6.796292 -4.801659 0
M  V30 40 H 5.375515 3.030877 -11.223387 0
M  V30 41 H 13.752020 8.642308 -7.871085 0
M  V30 42 H 13.517708 6.963491 -7.585032 0
M  V30 43 H 13.258768 7.592914 -9.189354 0
M  V30 44 H 8.888796 3.918386 -10.898569 0
M  V30 45 H 7.867650 1.037841 -14.522346 0
M  V30 46 H 10.175406 4.315513 -9.261167 0
M  V30 47 H 9.005966 4.186767 -7.980586 0
M  V30 48 H 5.959084 3.608977 -13.954907 0
M  V30 49 H 10.226658 10.045760 -6.384798 0
M  V30 50 H 9.265949 7.219525 -12.244176 0
M  V30 51 H 10.524633 6.293084 -11.410295 0
M  V30 52 H 11.942684 11.506168 -6.267880 0
M  V30 53 H 6.602102 4.367285 -9.879421 0
M  V30 54 H 8.227173 3.397176 -14.498661 0
M  V30 55 H 8.652031 2.616996 -12.993870 0
M  V30 56 H 10.484172 9.590227 -8.718971 0
M  V30 57 H 12.167080 9.893554 -8.700287 0
M  V30 58 H 12.839636 9.272126 -3.893544 0
M  V30 59 H 11.118114 9.534032 -3.842892 0
M  V30 60 H 7.414423 -1.053802 -14.231282 0
M  V30 61 H 7.891513 5.541679 -13.284649 0
M  V30 62 H 9.506862 4.894846 -13.086143 0
M  V30 63 H 6.592979 -1.369742 -12.065139 0
M  V30 64 H 5.096510 -0.681414 -12.573272 0
M  V30 65 H 7.582176 0.800051 -11.985026 0
M  V30 66 H 5.950603 0.996243 -11.255242 0
M  V30 67 H 8.989793 8.713744 -10.438940 0
M  V30 68 H 10.731108 8.418013 -10.458992 0
M  V30 69 H 5.133837 0.790205 -15.860067 0
M  V30 70 H 6.181392 2.194251 -16.100915 0
M  V30 71 H 11.482848 5.149240 -7.314790 0
M  V30 72 H 10.027755 5.880471 -6.693422 0
M  V30 73 H 12.975388 7.585178 -0.892428 0
M  V30 74 H 13.218102 6.772713 -2.462469 0
M  V30 75 H 13.776196 8.432993 -2.141710 0
M  V30 76 H 9.035069 7.926196 -8.210229 0
M  V30 77 H 7.737596 6.557053 -10.701166 0
M  V30 78 H 5.822827 -0.947959 -14.595779 0
M  V30 79 H 5.191613 1.594256 -13.443165 0
M  V30 END ATOM
M  V30 BEGIN BOND
M  V30 1 1 2 6 CFG=1
M  V30 2 1 9 3
M  V30 3 1 10 5
M  V30 4 1 13 2
M  V30 5 1 13 4
M  V30 6 1 13 11
M  V30 7 1 14 11
M  V30 8 1 15 1 CFG=3
M  V30 9 1 16 5
M  V30 10 1 16 7
M  V30 11 1 17 5
M  V30 12 1 17 16
M  V30 13 1 18 3
M  V30 14 1 18 7
M  V30 15 1 18 12
M  V30 16 1 20 15
M  V30 17 1 21 4
M  V30 18 1 13 21 CFG=3
M  V30 19 1 22 10
M  V30 20 1 23 2
M  V30 21 1 23 11
M  V30 22 1 24 2
M  V30 23 1 25 4
M  V30 24 1 25 19
M  V30 25 1 26 8
M  V30 26 1 27 7
M  V30 27 1 27 22
M  V30 28 1 28 26
M  V30 29 1 29 28
M  V30 30 2 30 20
M  V30 31 1 31 12
M  V30 32 1 32 8
M  V30 33 1 32 15
M  V30 34 1 33 15
M  V30 35 1 33 20
M  V30 36 1 34 8
M  V30 37 1 34 10
M  V30 38 1 34 29
M  V30 39 1 35 9
M  V30 40 1 35 24
M  V30 41 1 36 19
M  V30 42 1 37 3
M  V30 43 1 37 24
M  V30 44 1 37 31
M  V30 45 1 3 38 CFG=1
M  V30 46 1 4 39 CFG=3
M  V30 47 1 5 40 CFG=1
M  V30 48 1 41 6
M  V30 49 1 42 6
M  V30 50 1 43 6
M  V30 51 1 7 44 CFG=1
M  V30 52 1 8 45 CFG=3
M  V30 53 1 46 9
M  V30 54 1 47 9
M  V30 55 1 10 48 CFG=3
M  V30 56 1 11 49 CFG=3
M  V30 57 1 50 12
M  V30 58 1 51 12
M  V30 59 1 52 14
M  V30 60 1 16 53 CFG=1
M  V30 61 1 54 22
M  V30 62 1 55 22
M  V30 63 1 56 23
M  V30 64 1 57 23
M  V30 65 1 58 25
M  V30 66 1 59 25
M  V30 67 1 60 26
M  V30 68 1 61 27
M  V30 69 1 62 27
M  V30 70 1 63 28
M  V30 71 1 64 28
M  V30 72 1 65 29
M  V30 73 1 66 29
M  V30 74 1 67 31
M  V30 75 1 68 31
M  V30 76 1 69 32
M  V30 77 1 70 32
M  V30 78 1 71 35
M  V30 79 1 72 35
M  V30 80 1 73 36
M  V30 81 1 74 36
M  V30 82 1 75 36
M  V30 83 1 37 76 CFG=1
M  V30 84 1 18 77 CFG=1
M  V30 85 1 78 26
M  V30 86 1 34 79 CFG=3
M  V30 END BOND
M  V30 END CTAB
M  END
>  <i_epik_Tot_Q>  (1) 
3

>  <i_epik_Tot_abs_Q>  (1) 
3

>  <i_i_glide_confnum>  (1) 
314

>  <i_i_glide_lignum>  (1) 
81

>  <i_i_glide_posenum>  (1) 
13

>  <i_i_glide_rotatable_bonds>  (1) 
8

>  <i_lp_mmshare_version>  (1) 
72125

>  <i_m_source_file_index>  (1) 
29

>  <i_f3d_flags>  (1) 
0

>  <num_sample>  (1) 
50

>  <b_lp_Chiralities_Consistent>  (1) 
1

>  <r_epik_Charging_Adjusted_Penalty>  (1) 
2.5241965566360229

>  <r_epik_Ionization_Penalty>  (1) 
2.0480993089750741

>  <r_epik_Ionization_Penalty_Charging>  (1) 
2.0477503768466887

>  <r_epik_Ionization_Penalty_Neutral>  (1) 
0.00034893212838530931

>  <r_epik_State_Penalty>  (1) 
0.4764461797893344

>  <r_glide_ring_energy>  (1) 
0.81914574756083636

>  <r_i_docking_score>  (1) 
-4.2183587314428275

>  <r_i_glide_ecoul>  (1) 
-9.0130236798599075

>  <r_i_glide_eff_state_penalty>  (1) 
0.4764461797893344

>  <r_i_glide_einternal>  (1) 
20.302287445380344

>  <r_i_glide_emodel>  (1) 
-7.379786055200249

>  <r_i_glide_emodel_strain>  (1) 
5.5392066605759851

>  <r_i_glide_energy>  (1) 
-14.238362651732505

>  <r_i_glide_erotb>  (1) 
0.44698704239028575

>  <r_i_glide_esite>  (1) 
-0.14258748425107676

>  <r_i_glide_evdw>  (1) 
-5.2253389718725973

>  <r_i_glide_gscore>  (1) 
-4.6948049112321621

>  <r_i_glide_gscore_strain>  (1) 
0.38480166514399627

>  <r_i_glide_hbond>  (1) 
-0.15832609933579694

>  <r_i_glide_ligand_efficiency>  (1) 
-0.11400969544440075

>  <r_i_glide_ligand_efficiency_ln>  (1) 
-0.91486311649033991

>  <r_i_glide_ligand_efficiency_sa>  (1) 
-0.37990559845933231

>  <r_i_glide_lipo>  (1) 
-2.4433082704185254

>  <r_i_glide_metal>  (1) 
-0

>  <r_i_glide_rewards>  (1) 
-1.1691512641884281

>  <r_lp_Energy>  (1) 
75.273594000000003

>  <s_epik_Chemistry_Notes>  (1) 
This compound has an ester and may undergo hydrolysis at high or low pH. This compound contains an acetal/aminal-like group ( X-CH(R)-Y where X, Y are N, S, or O) that may be acid/base labile, releasing an aldehyde.

>  <s_epik_cmdline>  (1) 
J2VwaWtfcHl0aG9uJywgJy1waHQnLCAnMS4wJywgJy1waCcsICc3LjQnLCAnLXRuJywgJzgnLCAnLW1hJywgJzUwMCcsICctaW1hZScsICc8aW5maWxlLm1hZT4nLCAnLW9tYWUnLCAnPG91dGZpbGUubWFlPic=

>  <s_epik_input>  (1) 
Tz1DKE8xKUMxKEYpW0NIMl1bQ0BASF0yW05IXVtDSDJdW0NIMl1OMltDQEBIXTNbQ0gyXVtDSDJdW0NASF0oW0NAQEhdKE80KVtDQEhdMzQpTjVbQ0gyXVtDSDJdW0NAQEhdKFtDQEhdNTYpTihbQ0gyXVtDSDJdNilbQ0BAXShbQ0gzXSkoW0NIMl1bQ0BASF03W09IXSlbQ0BAXTc4W0NASF0oTzgpW0NIMl1PW0NIM10=

>  <s_glide_docking_method>  (1) 
confgen

>  <s_i_glide_gridfile>  (1) 
gpcr_drd2_6luq_protein_autoprepared_prepared

>  <s_lp_Force_Field>  (1) 
S-OPLS

>  <s_lp_Variant>  (1) 
DiffSBDD_28-4

>  <s_m_source_file>  (1) 
generated_generic_title2_ligand_DiffSBDD_2026-06-23_prepared.sdf

>  <GenAI_Model>  (1) 
DiffSBDD

>  <Protein>  (1) 
generic_title2

$$$$
DiffSBDD_47
     RDKit          3D

  0  0  0  0  0  0  0  0  0  0999 V3000
M  V30 BEGIN CTAB
M  V30 COUNTS 32 31 0 0 1
M  V30 BEGIN ATOM
M  V30 1 C 11.339035 6.917696 -5.245016 0
M  V30 2 C 11.775410 6.994002 -4.007662 0
M  V30 3 C 12.175393 7.128405 -2.764285 0
M  V30 4 C 11.195237 8.139460 -6.138043 0 CFG=1
M  V30 5 C 8.920064 4.916616 -9.822799 0
M  V30 6 C 11.676082 7.933286 -7.591658 0
M  V30 7 N 8.975410 6.390226 -9.885789 0 CHG=1
M  V30 8 C 8.916466 4.317403 -11.233407 0
M  V30 9 C 10.975408 6.835521 -8.420259 0
M  V30 10 C 12.505184 8.476644 -2.155832 0
M  V30 11 C 9.478799 7.079260 -8.681340 0
M  V30 12 O 9.860705 8.585622 -6.141747 0
M  V30 13 H 11.063655 5.968648 -5.676564 0
M  V30 14 H 12.283684 6.268215 -2.118878 0
M  V30 15 H 11.782022 8.954368 -5.709092 0
M  V30 16 H 9.775411 4.520394 -9.278124 0
M  V30 17 H 8.028755 4.617048 -9.269397 0
M  V30 18 H 11.588521 8.882046 -8.123498 0
M  V30 19 H 12.744106 7.715692 -7.585025 0
M  V30 20 H 8.023378 6.755809 -9.985024 0
M  V30 21 H 8.975407 3.229890 -11.194757 0
M  V30 22 H 8.012085 4.586655 -11.779946 0
M  V30 23 H 9.775401 4.658352 -11.812785 0
M  V30 24 H 11.490876 6.790227 -9.379361 0
M  V30 25 H 11.112975 5.862366 -7.951745 0
M  V30 26 H 12.365204 9.290969 -2.868806 0
M  V30 27 H 11.861009 8.667759 -1.296998 0
M  V30 28 H 13.539360 8.502253 -1.816601 0
M  V30 29 H 8.873208 6.787752 -7.822378 0
M  V30 30 H 9.312492 8.145781 -8.838765 0
M  V30 31 H 9.279798 7.838689 -6.150801 0
M  V30 32 H 9.519338 6.682280 -10.683071 0
M  V30 END ATOM
M  V30 BEGIN BOND
M  V30 1 2 2 1
M  V30 2 2 3 2
M  V30 3 1 4 1
M  V30 4 1 6 4
M  V30 5 1 7 5
M  V30 6 1 8 5
M  V30 7 1 9 6
M  V30 8 1 10 3
M  V30 9 1 11 7
M  V30 10 1 11 9
M  V30 11 1 12 4
M  V30 12 1 13 1
M  V30 13 1 14 3
M  V30 14 1 4 15 CFG=1
M  V30 15 1 16 5
M  V30 16 1 17 5
M  V30 17 1 18 6
M  V30 18 1 19 6
M  V30 19 1 20 7
M  V30 20 1 21 8
M  V30 21 1 22 8
M  V30 22 1 23 8
M  V30 23 1 24 9
M  V30 24 1 25 9
M  V30 25 1 26 10
M  V30 26 1 27 10
M  V30 27 1 28 10
M  V30 28 1 29 11
M  V30 29 1 30 11
M  V30 30 1 31 12
M  V30 31 1 32 7
M  V30 END BOND
M  V30 END CTAB
M  END
>  <i_epik_Tot_Q>  (1) 
1

>  <i_epik_Tot_abs_Q>  (1) 
1

>  <i_i_glide_confnum>  (1) 
107

>  <i_i_glide_lignum>  (1) 
125

>  <i_i_glide_posenum>  (1) 
35

>  <i_i_glide_rotatable_bonds>  (1) 
7

>  <i_lp_mmshare_version>  (1) 
72125

>  <i_m_source_file_index>  (1) 
48

>  <i_f3d_flags>  (1) 
0

>  <num_sample>  (1) 
50

>  <b_lp_Chiralities_Consistent>  (1) 
1

>  <r_epik_Charging_Adjusted_Penalty>  (1) 
0.00069192130555224092

>  <r_epik_Ionization_Penalty>  (1) 
0.00069195969174634328

>  <r_epik_Ionization_Penalty_Charging>  (1) 
0.00069192130555224092

>  <r_epik_Ionization_Penalty_Neutral>  (1) 
3.8386194102396343e-08

>  <r_epik_State_Penalty>  (1) 
-0

>  <r_glide_ring_energy>  (1) 
0

>  <r_i_docking_score>  (1) 
-4.2119918643057277

>  <r_i_glide_ecoul>  (1) 
-7.6701626409880133

>  <r_i_glide_eff_state_penalty>  (1) 
-0

>  <r_i_glide_einternal>  (1) 
5.4417777113865418

>  <r_i_glide_emodel>  (1) 
-34.548586439815764

>  <r_i_glide_emodel_strain>  (1) 
1.4599337033141073

>  <r_i_glide_energy>  (1) 
-27.38557302363315

>  <r_i_glide_erotb>  (1) 
2.6617729602706905

>  <r_i_glide_esite>  (1) 
-0.10000000000000001

>  <r_i_glide_evdw>  (1) 
-19.715410382645135

>  <r_i_glide_gscore>  (1) 
-4.2119918643057277

>  <r_i_glide_gscore_strain>  (1) 
0

>  <r_i_glide_hbond>  (1) 
-0.18007287174192607

>  <r_i_glide_ligand_efficiency>  (1) 
-0.35099932202547729

>  <r_i_glide_ligand_efficiency_ln>  (1) 
-1.2086383618229655

>  <r_i_glide_ligand_efficiency_sa>  (1) 
-0.80358784609825462

>  <r_i_glide_lipo>  (1) 
-1.7791149559619948

>  <r_i_glide_metal>  (1) 
-0

>  <r_i_glide_rewards>  (1) 
-2.6782820815920387

>  <r_lp_Energy>  (1) 
-13.973255999999999

>  <r_lp_tautomer_probability>  (1) 
1

>  <s_epik_cmdline>  (1) 
J2VwaWtfcHl0aG9uJywgJy1waHQnLCAnMS4wJywgJy1waCcsICc3LjQnLCAnLXRuJywgJzgnLCAnLW1hJywgJzUwMCcsICctaW1hZScsICc8aW5maWxlLm1hZT4nLCAnLW9tYWUnLCAnPG91dGZpbGUubWFlPic=

>  <s_epik_input>  (1) 
W0NIM11bQ0hdPUM9W0NIXVtDQEhdKFtPSF0pW0NIMl1bQ0gyXVtDSDJdW05IXVtDSDJdW0NIM10=

>  <s_glide_docking_method>  (1) 
confgen

>  <s_i_glide_gridfile>  (1) 
gpcr_drd2_6luq_protein_autoprepared_prepared

>  <s_lp_Force_Field>  (1) 
S-OPLS

>  <s_lp_Variant>  (1) 
DiffSBDD_47-1

>  <s_m_source_file>  (1) 
generated_generic_title2_ligand_DiffSBDD_2026-06-23_prepared.sdf

>  <GenAI_Model>  (1) 
DiffSBDD

>  <Protein>  (1) 
generic_title2

$$$$
DiffSBDD_16
     RDKit          3D

  0  0  0  0  0  0  0  0  0  0999 V3000
M  V30 BEGIN CTAB
M  V30 COUNTS 41 43 0 0 1
M  V30 BEGIN ATOM
M  V30 1 O 10.157460 8.790227 -9.150506 0
M  V30 2 O 10.528280 6.613123 -7.131499 0
M  V30 3 C 6.248276 6.461602 -16.956755 0
M  V30 4 C 8.093698 5.274345 -11.466810 0 CFG=1
M  V30 5 C 7.719715 4.404348 -17.251571 0
M  V30 6 S 8.930524 5.190665 -8.798157 0
M  V30 7 F 5.775357 7.590237 -17.503362 0
M  V30 8 C 8.399327 4.375951 -15.878842 0
M  V30 9 C 8.980922 5.880826 -10.391167 0
M  V30 10 C 10.114419 6.501567 -8.284742 0
M  V30 11 C 7.104185 5.720609 -17.688646 0
M  V30 12 C 7.135617 6.353448 -12.013034 0
M  V30 13 C 8.017668 3.674222 -13.451156 0
M  V30 14 C 6.148248 5.900730 -13.091098 0
M  V30 15 C 9.771766 6.926465 -10.567490 0
M  V30 16 C 10.564838 7.468018 -9.420276 0 CFG=1
M  V30 17 C 6.806636 5.760480 -14.481457 0 CFG=2
M  V30 18 C 5.766880 6.099528 -15.564649 0
M  V30 19 C 7.409986 4.353684 -14.704138 0 CFG=1
M  V30 20 C 8.909224 4.559590 -12.561443 0
M  V30 21 H 9.207443 8.788657 -9.119526 0
M  V30 22 H 7.479800 4.524645 -10.965727 0
M  V30 23 H 8.479870 4.167453 -17.996691 0
M  V30 24 H 6.975991 3.611872 -17.334185 0
M  V30 25 H 8.975049 3.453212 -15.861828 0
M  V30 26 H 9.124079 5.185200 -15.776789 0
M  V30 27 H 7.377451 6.063710 -18.675525 0
M  V30 28 H 6.535936 6.724733 -11.185191 0
M  V30 29 H 7.689812 7.219975 -12.375651 0
M  V30 30 H 8.575374 2.793295 -13.761143 0
M  V30 31 H 7.216101 3.250095 -12.845107 0
M  V30 32 H 5.623123 4.989752 -12.800037 0
M  V30 33 H 5.375974 6.670792 -13.122484 0
M  V30 34 H 9.850491 7.420936 -11.525063 0
M  V30 35 H 11.637601 7.399625 -9.602747 0
M  V30 36 H 7.597079 6.510358 -14.550299 0
M  V30 37 H 5.209350 6.981812 -15.251050 0
M  V30 38 H 5.031295 5.313735 -15.631769 0
M  V30 39 H 6.594352 3.686477 -14.988767 0
M  V30 40 H 9.641426 3.914733 -12.071443 0
M  V30 41 H 9.486544 5.264464 -13.161501 0
M  V30 END ATOM
M  V30 BEGIN BOND
M  V30 1 1 7 3
M  V30 2 1 8 5
M  V30 3 1 9 4
M  V30 4 1 9 6
M  V30 5 2 10 2
M  V30 6 1 10 6
M  V30 7 2 11 3
M  V30 8 1 11 5
M  V30 9 1 12 4
M  V30 10 1 14 12
M  V30 11 2 15 9
M  V30 12 1 16 1
M  V30 13 1 16 10
M  V30 14 1 16 15
M  V30 15 1 17 14
M  V30 16 1 18 3
M  V30 17 1 18 17
M  V30 18 1 19 8
M  V30 19 1 19 13
M  V30 20 1 19 17
M  V30 21 1 20 4
M  V30 22 1 20 13
M  V30 23 1 21 1
M  V30 24 1 4 22 CFG=1
M  V30 25 1 23 5
M  V30 26 1 24 5
M  V30 27 1 25 8
M  V30 28 1 26 8
M  V30 29 1 27 11
M  V30 30 1 28 12
M  V30 31 1 29 12
M  V30 32 1 30 13
M  V30 33 1 31 13
M  V30 34 1 32 14
M  V30 35 1 33 14
M  V30 36 1 34 15
M  V30 37 1 16 35 CFG=3
M  V30 38 1 17 36 CFG=1
M  V30 39 1 37 18
M  V30 40 1 38 18
M  V30 41 1 19 39 CFG=3
M  V30 42 1 40 20
M  V30 43 1 41 20
M  V30 END BOND
M  V30 END CTAB
M  END
>  <i_epik_Tot_Q>  (1) 
0

>  <i_epik_Tot_abs_Q>  (1) 
0

>  <i_i_glide_confnum>  (1) 
2

>  <i_i_glide_lignum>  (1) 
59

>  <i_i_glide_posenum>  (1) 
208

>  <i_i_glide_rotatable_bonds>  (1) 
2

>  <i_lp_mmshare_version>  (1) 
72125

>  <i_m_source_file_index>  (1) 
17

>  <i_f3d_flags>  (1) 
0

>  <num_sample>  (1) 
50

>  <b_lp_Chiralities_Consistent>  (1) 
1

>  <r_epik_Charging_Adjusted_Penalty>  (1) 
0.89600900946001893

>  <r_epik_Ionization_Penalty>  (1) 
0.89600900946003292

>  <r_epik_Ionization_Penalty_Charging>  (1) 
0

>  <r_epik_Ionization_Penalty_Neutral>  (1) 
0.89600900946003292

>  <r_epik_State_Penalty>  (1) 
0.89600900946001893

>  <r_glide_ring_energy>  (1) 
0

>  <r_i_docking_score>  (1) 
-4.205974606362159

>  <r_i_glide_ecoul>  (1) 
-1.9708016599825231

>  <r_i_glide_eff_state_penalty>  (1) 
0.89600900946001893

>  <r_i_glide_einternal>  (1) 
0.24755309119517044

>  <r_i_glide_emodel>  (1) 
-40.41025432897252

>  <r_i_glide_emodel_strain>  (1) 
0.00036402026540116594

>  <r_i_glide_energy>  (1) 
-31.371080942202493

>  <r_i_glide_erotb>  (1) 
0.20851456216113889

>  <r_i_glide_esite>  (1) 
-0.034095907545281572

>  <r_i_glide_evdw>  (1) 
-29.400279282219969

>  <r_i_glide_gscore>  (1) 
-5.1019836158221779

>  <r_i_glide_gscore_strain>  (1) 
0

>  <r_i_glide_hbond>  (1) 
0

>  <r_i_glide_ligand_efficiency>  (1) 
-0.21029873031810795

>  <r_i_glide_ligand_efficiency_ln>  (1) 
-1.0526167216456594

>  <r_i_glide_ligand_efficiency_sa>  (1) 
-0.57083857832301366

>  <r_i_glide_lipo>  (1) 
-1.2864139369550345

>  <r_i_glide_metal>  (1) 
-0

>  <r_i_glide_rewards>  (1) 
-2.224354120374624

>  <r_lp_Energy>  (1) 
22.466232999999999

>  <s_epik_cmdline>  (1) 
J2VwaWtfcHl0aG9uJywgJy1waHQnLCAnMS4wJywgJy1waCcsICc3LjQnLCAnLXRuJywgJzgnLCAnLW1hJywgJzUwMCcsICctaW1hZScsICc8aW5maWxlLm1hZT4nLCAnLW9tYWUnLCAnPG91dGZpbGUubWFlPic=

>  <s_epik_input>  (1) 
Tz1DKFMxKVtDQEhdKFtPSF0pW0NIXT1DMVtDQEBIXShbQ0gyXVtDSDJdMilbQ0gyXVtDSDJdW0NAQEhdKFtDQEhdMjMpW0NIMl1bQ0gyXVtDSF09QyhGKVtDSDJdMw==

>  <s_glide_docking_method>  (1) 
confgen

>  <s_i_glide_gridfile>  (1) 
gpcr_drd2_6luq_protein_autoprepared_prepared

>  <s_lp_Force_Field>  (1) 
S-OPLS

>  <s_lp_Variant>  (1) 
DiffSBDD_16-2

>  <s_m_source_file>  (1) 
generated_generic_title2_ligand_DiffSBDD_2026-06-23_prepared.sdf

>  <GenAI_Model>  (1) 
DiffSBDD

>  <Protein>  (1) 
generic_title2

$$$$
DiffSBDD_28
     RDKit          3D

  0  0  0  0  0  0  0  0  0  0999 V3000
M  V30 BEGIN CTAB
M  V30 COUNTS 79 86 0 0 1
M  V30 BEGIN ATOM
M  V30 1 F 8.110903 -0.738665 -19.440669 0
M  V30 2 C 10.651133 7.620868 -9.165967 0 CFG=1
M  V30 3 C 9.221099 5.164825 -11.709048 0 CFG=2
M  V30 4 C 11.500429 6.409455 -6.801484 0 CFG=2
M  V30 5 C 5.794220 1.888476 -13.467447 0 CFG=1
M  V30 6 C 12.078414 8.089118 -9.463456 0
M  V30 7 C 7.703340 3.392518 -12.376698 0 CFG=2
M  V30 8 C 7.224075 -0.356739 -16.341718 0 CFG=1
M  V30 9 C 9.542564 6.423841 -12.519156 0
M  V30 10 C 6.677031 1.505684 -14.656230 0 CFG=1
M  V30 11 C 9.432684 8.012064 -7.392802 0 CFG=1
M  V30 12 C 7.137166 5.138438 -10.659136 0
M  V30 13 C 10.530839 7.069929 -7.748132 0 CFG=1
M  V30 14 O 9.775251 8.790221 -6.289434 0
M  V30 15 C 8.515181 0.167536 -18.476926 0 CFG=1
M  V30 16 C 6.285254 2.825756 -12.379833 0 CFG=1
M  V30 17 O 5.443466 3.289873 -13.419656 0
M  V30 18 N 7.826363 4.773277 -11.898763 0
M  V30 19 O 11.775344 7.619869 -4.683939 0
M  V30 20 C 9.838095 0.807213 -18.679198 0
M  V30 21 O 10.481019 5.669224 -7.516571 0
M  V30 22 C 8.150913 1.747697 -14.272699 0
M  V30 23 C 9.611751 8.661448 -8.767855 0
M  V30 24 N 10.143270 6.815214 -10.312082 0 CFG=2 CHG=1
M  V30 25 C 11.376975 6.390066 -5.278542 0
M  V30 26 N 6.428249 -1.458717 -16.924444 0 CHG=1
M  V30 27 C 8.331713 3.193158 -13.750459 0
M  V30 28 C 5.007565 -1.186111 -16.668293 0
M  V30 29 C 4.989597 -0.119691 -15.570411 0
M  V30 30 O 9.982376 2.011346 -18.478463 0
M  V30 31 C 8.163232 5.287747 -9.540005 0
M  V30 32 C 7.520082 0.692318 -17.448335 0
M  V30 33 O 9.797184 -0.202389 -17.851534 0
M  V30 34 N 6.399009 0.130100 -15.192096 0 CFG=1 CHG=1
M  V30 35 C 9.583397 7.520521 -11.476084 0
M  V30 36 C 12.143670 7.503377 -3.316227 0
M  V30 37 C 9.510573 5.474198 -10.234769 0 CFG=1
M  V30 38 H 9.928006 4.384136 -11.976503 0
M  V30 39 H 12.512472 6.390210 -7.184281 0
M  V30 40 H 4.982328 1.213657 -13.202685 0
M  V30 41 H 12.472558 8.711764 -8.659435 0
M  V30 42 H 12.761184 7.250543 -9.585130 0
M  V30 43 H 12.129049 8.687453 -10.373140 0
M  V30 44 H 8.362670 2.790230 -11.762104 0
M  V30 45 H 8.158182 -0.758627 -15.944261 0
M  V30 46 H 8.799008 6.621038 -13.291832 0
M  V30 47 H 10.515419 6.322365 -13.002104 0
M  V30 48 H 6.439005 2.207885 -15.453968 0
M  V30 49 H 8.478005 7.524648 -7.246214 0
M  V30 50 H 6.654603 6.103144 -10.812858 0
M  V30 51 H 6.340807 4.456367 -10.374293 0
M  V30 52 H 8.974039 9.201267 -6.005325 0
M  V30 53 H 5.780493 2.743780 -11.417605 0
M  V30 54 H 8.801692 1.581344 -15.126064 0
M  V30 55 H 8.468017 1.035784 -13.508748 0
M  V30 56 H 8.720919 8.790195 -9.363628 0
M  V30 57 H 10.139936 9.590227 -8.785141 0
M  V30 58 H 10.353535 6.155258 -4.984936 0
M  V30 59 H 12.014572 5.590193 -4.912310 0
M  V30 60 H 6.690220 -2.307668 -16.430924 0
M  V30 61 H 7.946745 3.916325 -14.471263 0
M  V30 62 H 9.374381 3.433860 -13.585007 0
M  V30 63 H 4.498513 -2.104848 -16.385075 0
M  V30 64 H 4.529870 -0.810554 -17.575065 0
M  V30 65 H 4.381645 -0.409700 -14.713215 0
M  V30 66 H 4.570679 0.790038 -15.985013 0
M  V30 67 H 7.895106 5.991136 -8.774231 0
M  V30 68 H 8.202305 4.372868 -8.971286 0
M  V30 69 H 6.603387 0.979783 -17.965834 0
M  V30 70 H 7.916538 1.618301 -17.040909 0
M  V30 71 H 8.566389 7.857796 -11.279490 0
M  V30 72 H 10.175366 8.380356 -11.783918 0
M  V30 73 H 12.310567 8.497276 -2.900756 0
M  V30 74 H 11.374381 7.014124 -2.722495 0
M  V30 75 H 13.064721 6.936162 -3.187752 0
M  V30 76 H 10.175272 4.736299 -9.803263 0
M  V30 77 H 11.031140 6.533396 -10.694313 0
M  V30 78 H 6.613709 -1.593748 -17.909880 0
M  V30 79 H 6.586014 -0.512737 -14.432746 0
M  V30 END ATOM
M  V30 BEGIN BOND
M  V30 1 1 2 6 CFG=3
M  V30 2 1 9 3
M  V30 3 1 10 5
M  V30 4 1 13 2
M  V30 5 1 13 4
M  V30 6 1 13 11
M  V30 7 1 14 11
M  V30 8 1 15 1 CFG=3
M  V30 9 1 16 5
M  V30 10 1 16 7
M  V30 11 1 17 5
M  V30 12 1 17 16
M  V30 13 1 18 3
M  V30 14 1 18 7
M  V30 15 1 18 12
M  V30 16 1 20 15
M  V30 17 1 21 4
M  V30 18 1 13 21 CFG=3
M  V30 19 1 22 10
M  V30 20 1 23 2
M  V30 21 1 23 11
M  V30 22 1 24 2
M  V30 23 1 25 4
M  V30 24 1 25 19
M  V30 25 1 26 8
M  V30 26 1 27 7
M  V30 27 1 27 22
M  V30 28 1 28 26
M  V30 29 1 29 28
M  V30 30 2 30 20
M  V30 31 1 31 12
M  V30 32 1 32 8
M  V30 33 1 32 15
M  V30 34 1 33 15
M  V30 35 1 33 20
M  V30 36 1 34 8
M  V30 37 1 34 10
M  V30 38 1 34 29
M  V30 39 1 35 9
M  V30 40 1 35 24
M  V30 41 1 36 19
M  V30 42 1 37 3
M  V30 43 1 37 24
M  V30 44 1 37 31
M  V30 45 1 3 38 CFG=3
M  V30 46 1 4 39 CFG=1
M  V30 47 1 5 40 CFG=1
M  V30 48 1 41 6
M  V30 49 1 42 6
M  V30 50 1 43 6
M  V30 51 1 7 44 CFG=1
M  V30 52 1 8 45 CFG=1
M  V30 53 1 46 9
M  V30 54 1 47 9
M  V30 55 1 10 48 CFG=3
M  V30 56 1 11 49 CFG=1
M  V30 57 1 50 12
M  V30 58 1 51 12
M  V30 59 1 52 14
M  V30 60 1 16 53 CFG=1
M  V30 61 1 54 22
M  V30 62 1 55 22
M  V30 63 1 56 23
M  V30 64 1 57 23
M  V30 65 1 58 25
M  V30 66 1 59 25
M  V30 67 1 60 26
M  V30 68 1 61 27
M  V30 69 1 62 27
M  V30 70 1 63 28
M  V30 71 1 64 28
M  V30 72 1 65 29
M  V30 73 1 66 29
M  V30 74 1 67 31
M  V30 75 1 68 31
M  V30 76 1 69 32
M  V30 77 1 70 32
M  V30 78 1 71 35
M  V30 79 1 72 35
M  V30 80 1 73 36
M  V30 81 1 74 36
M  V30 82 1 75 36
M  V30 83 1 37 76 CFG=1
M  V30 84 1 24 77 CFG=3
M  V30 85 1 78 26
M  V30 86 1 34 79 CFG=1
M  V30 END BOND
M  V30 END CTAB
M  END
>  <i_epik_Tot_Q>  (1) 
3

>  <i_epik_Tot_abs_Q>  (1) 
3

>  <i_i_glide_confnum>  (1) 
34

>  <i_i_glide_lignum>  (1) 
83

>  <i_i_glide_posenum>  (1) 
267

>  <i_i_glide_rotatable_bonds>  (1) 
8

>  <i_lp_mmshare_version>  (1) 
72125

>  <i_m_source_file_index>  (1) 
29

>  <i_f3d_flags>  (1) 
0

>  <num_sample>  (1) 
50

>  <b_lp_Chiralities_Consistent>  (1) 
1

>  <r_epik_Charging_Adjusted_Penalty>  (1) 
2.5479580004866769

>  <r_epik_Ionization_Penalty>  (1) 
1.853674345886815

>  <r_epik_Ionization_Penalty_Charging>  (1) 
1.8530809818743854

>  <r_epik_Ionization_Penalty_Neutral>  (1) 
0.00059336401242958479

>  <r_epik_State_Penalty>  (1) 
0.69487701861229134

>  <r_glide_ring_energy>  (1) 
0.81914574756082947

>  <r_i_docking_score>  (1) 
-4.2026847441527604

>  <r_i_glide_ecoul>  (1) 
-8.4982987430421186

>  <r_i_glide_eff_state_penalty>  (1) 
0.69487701861229134

>  <r_i_glide_einternal>  (1) 
4.5333914787502962

>  <r_i_glide_emodel>  (1) 
-21.809845428123694

>  <r_i_glide_emodel_strain>  (1) 
4.1421682597523954

>  <r_i_glide_energy>  (1) 
-27.878014786874914

>  <r_i_glide_erotb>  (1) 
0.44698704239028575

>  <r_i_glide_esite>  (1) 
-0.08859136522273571

>  <r_i_glide_evdw>  (1) 
-19.379716043832797

>  <r_i_glide_gscore>  (1) 
-4.8975617627650516

>  <r_i_glide_gscore_strain>  (1) 
0.035542064938098861

>  <r_i_glide_hbond>  (1) 
0

>  <r_i_glide_ligand_efficiency>  (1) 
-0.11358607416629082

>  <r_i_glide_ligand_efficiency_ln>  (1) 
-0.9114637960975206

>  <r_i_glide_ligand_efficiency_sa>  (1) 
-0.37849399837959224

>  <r_i_glide_lipo>  (1) 
-2.1696887541479426

>  <r_i_glide_metal>  (1) 
-0

>  <r_i_glide_rewards>  (1) 
-0.87808013707480015

>  <r_lp_Energy>  (1) 
76.82741

>  <s_epik_Chemistry_Notes>  (1) 
This compound has an ester and may undergo hydrolysis at high or low pH. This compound contains an acetal/aminal-like group ( X-CH(R)-Y where X, Y are N, S, or O) that may be acid/base labile, releasing an aldehyde.

>  <s_epik_cmdline>  (1) 
J2VwaWtfcHl0aG9uJywgJy1waHQnLCAnMS4wJywgJy1waCcsICc3LjQnLCAnLXRuJywgJzgnLCAnLW1hJywgJzUwMCcsICctaW1hZScsICc8aW5maWxlLm1hZT4nLCAnLW9tYWUnLCAnPG91dGZpbGUubWFlPic=

>  <s_epik_input>  (1) 
Tz1DKE8xKUMxKEYpW0NIMl1bQ0BASF0yW05IXVtDSDJdW0NIMl1OMltDQEBIXTNbQ0gyXVtDSDJdW0NASF0oW0NAQEhdKE80KVtDQEhdMzQpTjVbQ0gyXVtDSDJdW0NAQEhdKFtDQEhdNTYpTihbQ0gyXVtDSDJdNilbQ0BAXShbQ0gzXSkoW0NIMl1bQ0BASF03W09IXSlbQ0BAXTc4W0NASF0oTzgpW0NIMl1PW0NIM10=

>  <s_glide_docking_method>  (1) 
confgen

>  <s_i_glide_gridfile>  (1) 
gpcr_drd2_6luq_protein_autoprepared_prepared

>  <s_lp_Force_Field>  (1) 
S-OPLS

>  <s_lp_Variant>  (1) 
DiffSBDD_28-6

>  <s_m_source_file>  (1) 
generated_generic_title2_ligand_DiffSBDD_2026-06-23_prepared.sdf

>  <GenAI_Model>  (1) 
DiffSBDD

>  <Protein>  (1) 
generic_title2

$$$$
DiffSBDD_0
     RDKit          3D

  0  0  0  0  0  0  0  0  0  0999 V3000
M  V30 BEGIN CTAB
M  V30 COUNTS 70 74 0 0 1
M  V30 BEGIN ATOM
M  V30 1 C 11.520571 7.446891 -5.757959 0
M  V30 2 N 7.264418 4.701856 -13.760412 0
M  V30 3 C 7.367563 4.986167 -17.990569 0 CFG=1
M  V30 4 C 8.531482 5.781114 -11.992162 0
M  V30 5 F 11.487636 8.999947 -9.119084 0
M  V30 6 C 6.714122 5.941126 -14.318194 0
M  V30 7 C 10.124274 6.838888 -5.787713 0
M  V30 8 C 9.726049 6.940889 -10.330111 0
M  V30 9 C 9.629109 8.026487 -7.979059 0 CFG=1
M  V30 10 C 9.974791 4.457209 -17.940157 0
M  V30 11 C 7.010996 3.509304 -14.568043 0 CFG=1
M  V30 12 C 7.079387 0.275546 -12.877780 0
M  V30 13 C 8.645571 4.435508 -18.630008 0 CFG=1
M  V30 14 O 9.413134 5.701908 -10.954983 0
M  V30 15 C 11.027459 8.665194 -7.913873 0 CFG=1
M  V30 16 C 7.510293 3.502533 -18.268891 0 CFG=1
M  V30 17 N 7.144981 4.971204 -16.522513 0 CFG=1 CHG=1
M  V30 18 C 9.547318 6.734846 -8.828309 0
M  V30 19 C 6.523643 1.655729 -13.219027 0
M  V30 20 C 7.706491 3.756348 -15.910847 0 CFG=2
M  V30 21 O 6.175412 -0.409772 -12.040837 0
M  V30 22 C 9.154708 7.754964 -6.539048 0
M  V30 23 N 10.512343 5.590227 -17.409059 0
M  V30 24 C 7.335318 6.188178 -15.707228 0
M  V30 25 N 10.717695 3.354107 -17.837668 0
M  V30 26 O 11.882227 3.789923 -17.184976 0
M  V30 27 C 11.669619 5.103931 -16.990505 0
M  V30 28 O 7.467202 2.304695 -14.055025 0
M  V30 29 N 12.717297 5.774448 -16.385023 0
M  V30 30 C 8.151606 4.698002 -12.688289 0
M  V30 31 C 12.023025 7.774581 -7.185035 0
M  V30 32 C 12.884285 7.171868 -16.038143 0
M  V30 33 C 7.489477 2.691451 -16.983322 0
M  V30 34 H 11.513351 8.351527 -5.148194 0
M  V30 35 H 12.175404 6.734953 -5.253998 0
M  V30 36 H 6.642089 5.557468 -18.567136 0
M  V30 37 H 8.190520 6.786828 -12.178326 0
M  V30 38 H 5.633275 5.825001 -14.409889 0
M  V30 39 H 6.853031 6.813311 -13.685596 0
M  V30 40 H 9.775413 6.654806 -4.775704 0
M  V30 41 H 10.158824 5.863176 -6.266461 0
M  V30 42 H 10.758640 7.190177 -10.572136 0
M  V30 43 H 9.111825 7.783521 -10.651884 0
M  V30 44 H 8.957324 8.763121 -8.417574 0
M  V30 45 H 5.934786 3.470333 -14.698622 0
M  V30 46 H 8.044941 0.373655 -12.385044 0
M  V30 47 H 7.239015 -0.308142 -13.785802 0
M  V30 48 H 8.790430 4.645342 -19.688026 0
M  V30 49 H 10.975430 9.590229 -7.345050 0
M  V30 50 H 6.958825 3.074974 -19.104059 0
M  V30 51 H 8.566547 6.287164 -8.674164 0
M  V30 52 H 10.258993 5.981918 -8.495478 0
M  V30 53 H 5.565811 1.538537 -13.727826 0
M  V30 54 H 6.347779 2.247323 -12.320376 0
M  V30 55 H 8.770470 3.887427 -15.712230 0
M  V30 56 H 5.694223 -1.042687 -12.569147 0
M  V30 57 H 9.047707 8.696526 -6.001567 0
M  V30 58 H 8.175419 7.292078 -6.536103 0
M  V30 59 H 6.867319 7.047277 -16.186878 0
M  V30 60 H 8.398951 6.390022 -15.585004 0
M  V30 61 H 13.504553 5.192248 -16.138891 0
M  V30 62 H 8.533994 3.716336 -12.446818 0
M  V30 63 H 12.975392 8.302657 -7.185026 0
M  V30 64 H 12.175398 6.850084 -7.732327 0
M  V30 65 H 13.914420 7.483489 -16.209211 0
M  V30 66 H 12.232596 7.796228 -16.650588 0
M  V30 67 H 12.639123 7.334096 -14.988544 0
M  V30 68 H 6.524569 2.197457 -16.879462 0
M  V30 69 H 8.267179 1.926833 -16.979242 0
M  V30 70 H 6.149480 4.817058 -16.463740 0
M  V30 END ATOM
M  V30 BEGIN BOND
M  V30 1 1 6 2
M  V30 2 1 7 1
M  V30 3 1 11 2
M  V30 4 1 13 3
M  V30 5 1 13 10
M  V30 6 1 14 4
M  V30 7 1 14 8
M  V30 8 1 15 5
M  V30 9 1 15 9
M  V30 10 1 16 3
M  V30 11 1 16 13
M  V30 12 1 17 3
M  V30 13 1 18 8
M  V30 14 1 18 9
M  V30 15 1 19 12
M  V30 16 1 20 11
M  V30 17 1 20 17
M  V30 18 1 21 12
M  V30 19 1 22 7
M  V30 20 1 22 9
M  V30 21 1 23 10
M  V30 22 1 24 6
M  V30 23 1 24 17
M  V30 24 2 25 10
M  V30 25 1 26 25
M  V30 26 2 27 23
M  V30 27 1 27 26
M  V30 28 1 28 11
M  V30 29 1 28 19
M  V30 30 1 29 27
M  V30 31 1 30 2
M  V30 32 2 30 4
M  V30 33 1 31 1
M  V30 34 1 31 15
M  V30 35 1 32 29
M  V30 36 1 33 16
M  V30 37 1 33 20
M  V30 38 1 34 1
M  V30 39 1 35 1
M  V30 40 1 3 36 CFG=3
M  V30 41 1 37 4
M  V30 42 1 38 6
M  V30 43 1 39 6
M  V30 44 1 40 7
M  V30 45 1 41 7
M  V30 46 1 42 8
M  V30 47 1 43 8
M  V30 48 1 9 44 CFG=3
M  V30 49 1 11 45 CFG=3
M  V30 50 1 46 12
M  V30 51 1 47 12
M  V30 52 1 13 48 CFG=3
M  V30 53 1 15 49 CFG=1
M  V30 54 1 16 50 CFG=3
M  V30 55 1 51 18
M  V30 56 1 52 18
M  V30 57 1 53 19
M  V30 58 1 54 19
M  V30 59 1 20 55 CFG=1
M  V30 60 1 56 21
M  V30 61 1 57 22
M  V30 62 1 58 22
M  V30 63 1 59 24
M  V30 64 1 60 24
M  V30 65 1 61 29
M  V30 66 1 62 30
M  V30 67 1 63 31
M  V30 68 1 64 31
M  V30 69 1 65 32
M  V30 70 1 66 32
M  V30 71 1 67 32
M  V30 72 1 68 33
M  V30 73 1 69 33
M  V30 74 1 17 70 CFG=3
M  V30 END BOND
M  V30 END CTAB
M  END
>  <i_epik_Tot_Q>  (1) 
1

>  <i_epik_Tot_abs_Q>  (1) 
1

>  <i_i_glide_confnum>  (1) 
275

>  <i_i_glide_lignum>  (1) 
14

>  <i_i_glide_posenum>  (1) 
201

>  <i_i_glide_rotatable_bonds>  (1) 
11

>  <i_lp_mmshare_version>  (1) 
72125

>  <i_m_source_file_index>  (1) 
1

>  <i_f3d_flags>  (1) 
0

>  <num_sample>  (1) 
50

>  <b_lp_Chiralities_Consistent>  (1) 
1

>  <r_epik_Charging_Adjusted_Penalty>  (1) 
0.41344222577729461

>  <r_epik_Ionization_Penalty>  (1) 
0.0027644559619576371

>  <r_epik_Ionization_Penalty_Charging>  (1) 
0.0027623868246906495

>  <r_epik_Ionization_Penalty_Neutral>  (1) 
2.0691372669875143e-06

>  <r_epik_State_Penalty>  (1) 
0.41067983895260396

>  <r_glide_ring_energy>  (1) 
1.7272227408313596

>  <r_i_docking_score>  (1) 
-4.2014857019865355

>  <r_i_glide_ecoul>  (1) 
-2.278216565554195

>  <r_i_glide_eff_state_penalty>  (1) 
0.41067983895260396

>  <r_i_glide_einternal>  (1) 
10.560899227917012

>  <r_i_glide_emodel>  (1) 
-36.4262248948977

>  <r_i_glide_emodel_strain>  (1) 
0.75757149161803738

>  <r_i_glide_energy>  (1) 
-33.118789699555919

>  <r_i_glide_erotb>  (1) 
0.74142510397790429

>  <r_i_glide_esite>  (1) 
0

>  <r_i_glide_evdw>  (1) 
-30.840573134001726

>  <r_i_glide_gscore>  (1) 
-4.6121655409391398

>  <r_i_glide_gscore_strain>  (1) 
0

>  <r_i_glide_hbond>  (1) 
-0.16

>  <r_i_glide_ligand_efficiency>  (1) 
-0.12731774854504652

>  <r_i_glide_ligand_efficiency_ln>  (1) 
-0.93438866599309656

>  <r_i_glide_ligand_efficiency_sa>  (1) 
-0.40837604927601295

>  <r_i_glide_lipo>  (1) 
-2.0104357398620039

>  <r_i_glide_metal>  (1) 
-0

>  <r_i_glide_rewards>  (1) 
-1.2993937635218249

>  <r_lp_Energy>  (1) 
49.633499

>  <r_lp_tautomer_probability>  (1) 
0.5

>  <s_epik_Chemistry_Notes>  (1) 
This compound has an imine and may undergo hydrolysis. This compound contains an acetal/aminal-like group ( X-CH(R)-Y where X, Y are N, S, or O) that may be acid/base labile, releasing an aldehyde.

>  <s_epik_cmdline>  (1) 
J2VwaWtfcHl0aG9uJywgJy1waHQnLCAnMS4wJywgJy1waCcsICc3LjQnLCAnLXRuJywgJzgnLCAnLW1hJywgJzUwMCcsICctaW1hZScsICc8aW5maWxlLm1hZT4nLCAnLW9tYWUnLCAnPG91dGZpbGUubWFlPic=

>  <s_epik_input>  (1) 
W0NIMl0xW0NIMl1bQ0gyXVtDSDJdW0NASF0oRilbQ0BIXTFbQ0gyXVtDSDJdTy9bQ0hdPVtDSF0vTihbQ0BIXTJPW0NIMl1bQ0gyXVtPSF0pW0NIMl1bQ0gyXU4zW0NAQEhdMltDSDJdW0NAQEhdKFtDQEBIXTM0KVtDQEBIXTRjNW5jKG9uNSlbTkhdW0NIM10=

>  <s_glide_docking_method>  (1) 
confgen

>  <s_i_glide_gridfile>  (1) 
gpcr_drd2_6luq_protein_autoprepared_prepared

>  <s_lp_Force_Field>  (1) 
S-OPLS

>  <s_lp_Variant>  (1) 
DiffSBDD_0-14

>  <s_m_source_file>  (1) 
generated_generic_title2_ligand_DiffSBDD_2026-06-23_prepared.sdf

>  <GenAI_Model>  (1) 
DiffSBDD

>  <Protein>  (1) 
generic_title2

$$$$
DiffSBDD_20
     RDKit          3D

  0  0  0  0  0  0  0  0  0  0999 V3000
M  V30 BEGIN CTAB
M  V30 COUNTS 72 74 0 0 1
M  V30 BEGIN ATOM
M  V30 1 C 6.428245 9.160577 -22.629850 0
M  V30 2 C 8.752569 3.114077 -17.387254 0
M  V30 3 C 7.266413 6.091790 -19.273867 0 CFG=1
M  V30 4 C 7.501707 8.408004 -22.366304 0
M  V30 5 C 5.264762 9.340863 -21.739302 0 CFG=1
M  V30 6 C 7.966808 6.823419 -12.049690 0
M  V30 7 C 7.049751 3.634683 -12.327891 0 CFG=1
M  V30 8 F 4.337667 10.081587 -22.345967 0
M  V30 9 C 7.564549 4.514572 -14.755756 0
M  V30 10 O 7.148041 5.590223 -10.150596 0
M  V30 11 C 6.620341 6.464292 -17.914147 0
M  V30 12 C 6.514822 4.094440 -13.707875 0 CFG=2
M  V30 13 C 9.660755 7.485311 -9.629333 0
M  V30 14 C 7.711284 7.556054 -21.183637 0
M  V30 15 C 6.756520 6.987207 -20.393872 0
M  V30 16 C 5.296947 7.112457 -20.589378 0
M  V30 17 C 8.326208 4.282457 -11.678848 0 CFG=2
M  V30 18 C 9.558438 4.825941 -19.220271 0
M  V30 19 N 7.375400 5.970907 -16.740925 0 CHG=1
M  V30 20 C 9.739045 4.226436 -17.806876 0
M  V30 21 C 9.755307 5.083406 -8.978553 0
M  V30 22 C 6.979586 4.678042 -16.165992 0 CFG=1
M  V30 23 O 5.505862 5.083501 -13.569090 0
M  V30 24 C 8.243817 5.700123 -11.022211 0 CFG=1
M  V30 25 S 9.340745 7.133424 -20.763607 0
M  V30 26 C 4.648644 8.111915 -21.200933 0
M  V30 27 C 9.516604 6.045817 -10.168355 0
M  V30 28 C 7.274562 3.484268 -17.113315 0
M  V30 29 C 8.832581 6.187489 -19.288680 0 CFG=1
M  V30 30 O 9.413291 4.203442 -12.565094 0
M  V30 31 N 5.923729 3.590229 -11.376366 0 CHG=1
M  V30 32 H 6.415382 9.741817 -23.540788 0
M  V30 33 H 9.156491 2.632154 -16.498172 0
M  V30 34 H 8.772040 2.329823 -18.146216 0
M  V30 35 H 6.972057 5.086488 -19.569281 0
M  V30 36 H 8.305474 8.440769 -23.089266 0
M  V30 37 H 5.582525 9.944199 -20.891811 0
M  V30 38 H 8.810746 6.951722 -12.727390 0
M  V30 39 H 7.779608 7.789137 -11.585007 0
M  V30 40 H 7.088554 6.646273 -12.650053 0
M  V30 41 H 7.324872 2.590327 -12.486716 0
M  V30 42 H 8.046763 5.438876 -14.440503 0
M  V30 43 H 8.354619 3.768541 -14.781994 0
M  V30 44 H 6.984918 6.492008 -9.795198 0
M  V30 45 H 6.573921 7.546488 -17.810523 0
M  V30 46 H 5.582796 6.128139 -17.870076 0
M  V30 47 H 5.998006 3.227051 -14.117037 0
M  V30 48 H 8.975413 7.684642 -8.808192 0
M  V30 49 H 9.526108 8.251180 -10.390768 0
M  V30 50 H 10.662862 7.636191 -9.226787 0
M  V30 51 H 4.685339 6.318340 -20.186098 0
M  V30 52 H 8.598441 3.590245 -10.888521 0
M  V30 53 H 10.564099 4.987204 -19.611098 0
M  V30 54 H 9.109526 4.103156 -19.902041 0
M  V30 55 H 8.358443 5.935789 -16.967835 0
M  V30 56 H 9.818027 5.002152 -17.046569 0
M  V30 57 H 10.724916 3.757995 -17.797374 0
M  V30 58 H 8.905826 5.076698 -8.295055 0
M  V30 59 H 10.615332 5.390306 -8.384842 0
M  V30 60 H 9.934919 4.055981 -9.284660 0
M  V30 61 H 5.915914 4.792028 -16.009896 0
M  V30 62 H 5.872444 5.855783 -13.161826 0
M  V30 63 H 3.572070 8.065542 -21.264667 0
M  V30 64 H 10.335624 5.990176 -10.876916 0
M  V30 65 H 6.749617 3.612484 -18.055695 0
M  V30 66 H 6.809058 2.597539 -16.680149 0
M  V30 67 H 9.179592 6.803437 -18.462206 0
M  V30 68 H 10.222854 4.334611 -12.092435 0
M  V30 69 H 6.067085 4.372015 -10.733797 0
M  V30 70 H 5.920617 2.726504 -10.855581 0
M  V30 71 H 7.245323 6.655468 -16.009349 0
M  V30 72 H 5.060316 3.720139 -11.884571 0
M  V30 END ATOM
M  V30 BEGIN BOND
M  V30 1 2 4 1
M  V30 2 1 5 1
M  V30 3 1 8 5
M  V30 4 1 11 3
M  V30 5 1 12 7
M  V30 6 1 12 9
M  V30 7 1 14 4
M  V30 8 1 15 3
M  V30 9 2 15 14
M  V30 10 1 16 15
M  V30 11 1 17 7
M  V30 12 1 19 11
M  V30 13 1 20 2
M  V30 14 1 20 18
M  V30 15 1 22 9
M  V30 16 1 22 19
M  V30 17 1 23 12
M  V30 18 1 24 6
M  V30 19 1 24 10 CFG=1
M  V30 20 1 24 17
M  V30 21 1 25 14
M  V30 22 1 26 5
M  V30 23 2 26 16
M  V30 24 1 27 13
M  V30 25 1 27 21
M  V30 26 1 27 24
M  V30 27 1 28 2
M  V30 28 1 28 22
M  V30 29 1 29 3
M  V30 30 1 29 18
M  V30 31 1 29 25
M  V30 32 1 30 17
M  V30 33 1 31 7
M  V30 34 1 32 1
M  V30 35 1 33 2
M  V30 36 1 34 2
M  V30 37 1 3 35 CFG=3
M  V30 38 1 36 4
M  V30 39 1 5 37 CFG=1
M  V30 40 1 38 6
M  V30 41 1 39 6
M  V30 42 1 40 6
M  V30 43 1 7 41 CFG=3
M  V30 44 1 42 9
M  V30 45 1 43 9
M  V30 46 1 44 10
M  V30 47 1 45 11
M  V30 48 1 46 11
M  V30 49 1 12 47 CFG=3
M  V30 50 1 48 13
M  V30 51 1 49 13
M  V30 52 1 50 13
M  V30 53 1 51 16
M  V30 54 1 17 52 CFG=1
M  V30 55 1 53 18
M  V30 56 1 54 18
M  V30 57 1 55 19
M  V30 58 1 56 20
M  V30 59 1 57 20
M  V30 60 1 58 21
M  V30 61 1 59 21
M  V30 62 1 60 21
M  V30 63 1 22 61 CFG=1
M  V30 64 1 62 23
M  V30 65 1 63 26
M  V30 66 1 64 27
M  V30 67 1 65 28
M  V30 68 1 66 28
M  V30 69 1 29 67 CFG=1
M  V30 70 1 68 30
M  V30 71 1 69 31
M  V30 72 1 70 31
M  V30 73 1 71 19
M  V30 74 1 72 31
M  V30 END BOND
M  V30 END CTAB
M  END
>  <i_epik_Tot_Q>  (1) 
2

>  <i_epik_Tot_abs_Q>  (1) 
2

>  <i_i_glide_confnum>  (1) 
4

>  <i_i_glide_lignum>  (1) 
64

>  <i_i_glide_posenum>  (1) 
358

>  <i_i_glide_rotatable_bonds>  (1) 
9

>  <i_lp_mmshare_version>  (1) 
72125

>  <i_m_source_file_index>  (1) 
21

>  <i_f3d_flags>  (1) 
0

>  <num_sample>  (1) 
50

>  <b_lp_Chiralities_Consistent>  (1) 
1

>  <r_epik_Charging_Adjusted_Penalty>  (1) 
0.28425092081310654

>  <r_epik_Ionization_Penalty>  (1) 
0.14293687999153612

>  <r_epik_Ionization_Penalty_Charging>  (1) 
0.14293530953308087

>  <r_epik_Ionization_Penalty_Neutral>  (1) 
1.5704584552406844e-06

>  <r_epik_State_Penalty>  (1) 
0.14131561128002565

>  <r_glide_ring_energy>  (1) 
0

>  <r_i_docking_score>  (1) 
-4.1971134622290256

>  <r_i_glide_ecoul>  (1) 
-9.659686066646552

>  <r_i_glide_eff_state_penalty>  (1) 
0.14131561128002565

>  <r_i_glide_einternal>  (1) 
12.578622341730433

>  <r_i_glide_emodel>  (1) 
-30.345932419522754

>  <r_i_glide_emodel_strain>  (1) 
1.9114900305468296

>  <r_i_glide_energy>  (1) 
-24.901810815309155

>  <r_i_glide_erotb>  (1) 
0.38550374204318533

>  <r_i_glide_esite>  (1) 
0

>  <r_i_glide_evdw>  (1) 
-15.242124748662601

>  <r_i_glide_gscore>  (1) 
-4.3384290735090509

>  <r_i_glide_gscore_strain>  (1) 
0

>  <r_i_glide_hbond>  (1) 
-0.10348558186891554

>  <r_i_glide_ligand_efficiency>  (1) 
-0.13539075684609761

>  <r_i_glide_ligand_efficiency_ln>  (1) 
-0.94657771181285455

>  <r_i_glide_ligand_efficiency_sa>  (1) 
-0.42531390406895864

>  <r_i_glide_lipo>  (1) 
-1.7434041313712942

>  <r_i_glide_metal>  (1) 
-0

>  <r_i_glide_rewards>  (1) 
-0.66598395488191309

>  <r_lp_Energy>  (1) 
51.405214999999998

>  <s_epik_cmdline>  (1) 
J2VwaWtfcHl0aG9uJywgJy1waHQnLCAnMS4wJywgJy1waCcsICc3LjQnLCAnLXRuJywgJzgnLCAnLW1hJywgJzUwMCcsICctaW1hZScsICc8aW5maWxlLm1hZT4nLCAnLW9tYWUnLCAnPG91dGZpbGUubWFlPic=

>  <s_epik_input>  (1) 
W0NIXTE9W0NIXVtDQEhdKEYpW0NIXT1bQ0hdQyg9QzFbQ0BIXTIzKVNbQ0BASF0zW0NIMl1bQ0gyXVtDSDJdW0NIMl1bQ0BIXShbTkhdW0NIMl0yKVtDSDJdW0NASF0oW09IXSlbQ0BIXShbTkgyXSlbQ0BASF0oW09IXSlbQ0BAXShbQ0gzXSkoW09IXSlbQ0hdKFtDSDNdKVtDSDNd

>  <s_glide_docking_method>  (1) 
confgen

>  <s_i_glide_gridfile>  (1) 
gpcr_drd2_6luq_protein_autoprepared_prepared

>  <s_lp_Force_Field>  (1) 
S-OPLS

>  <s_lp_Variant>  (1) 
DiffSBDD_20-1

>  <s_m_source_file>  (1) 
generated_generic_title2_ligand_DiffSBDD_2026-06-23_prepared.sdf

>  <GenAI_Model>  (1) 
DiffSBDD

>  <Protein>  (1) 
generic_title2

$$$$
DiffSBDD_47
     RDKit          3D

  0  0  0  0  0  0  0  0  0  0999 V3000
M  V30 BEGIN CTAB
M  V30 COUNTS 32 31 0 0 1
M  V30 BEGIN ATOM
M  V30 1 C 11.375384 6.633253 -5.094018 0
M  V30 2 C 11.775411 7.044649 -3.912741 0
M  V30 3 C 12.175429 7.371026 -2.705922 0
M  V30 4 C 11.209131 7.565572 -6.289222 0 CFG=1
M  V30 5 C 8.173075 5.108062 -10.850733 0
M  V30 6 C 10.675508 6.811424 -7.521496 0
M  V30 7 N 8.575410 5.990227 -9.735260 0 CHG=1
M  V30 8 C 6.717260 4.638052 -10.733537 0
M  V30 9 C 9.225118 6.326559 -7.360415 0
M  V30 10 C 12.554182 8.784840 -2.324892 0
M  V30 11 C 8.765746 5.326236 -8.431727 0
M  V30 12 O 10.366060 8.659438 -5.985083 0
M  V30 13 H 11.145136 5.592648 -5.262657 0
M  V30 14 H 12.249881 6.626684 -1.926490 0
M  V30 15 H 12.175410 7.989214 -6.553689 0
M  V30 16 H 8.287289 5.672040 -11.777042 0
M  V30 17 H 8.851195 4.255866 -10.917939 0
M  V30 18 H 10.749681 7.449985 -8.402434 0
M  V30 19 H 11.327393 5.959556 -7.712321 0
M  V30 20 H 7.857793 6.719549 -9.600327 0
M  V30 21 H 6.421526 4.070561 -11.616327 0
M  V30 22 H 6.575410 3.990225 -9.869387 0
M  V30 23 H 6.033245 5.482669 -10.637563 0
M  V30 24 H 9.098527 5.862521 -6.385032 0
M  V30 25 H 8.575407 7.197778 -7.348673 0
M  V30 26 H 13.573069 8.790231 -1.938264 0
M  V30 27 H 12.503437 9.467696 -3.174649 0
M  V30 28 H 11.890234 9.158092 -1.544660 0
M  V30 29 H 9.480124 4.506866 -8.523192 0
M  V30 30 H 7.816553 4.890051 -8.118531 0
M  V30 31 H 10.141945 9.102167 -6.789260 0
M  V30 32 H 9.436584 6.450919 -9.985325 0
M  V30 END ATOM
M  V30 BEGIN BOND
M  V30 1 2 2 1
M  V30 2 2 3 2
M  V30 3 1 4 1
M  V30 4 1 6 4
M  V30 5 1 7 5
M  V30 6 1 8 5
M  V30 7 1 9 6
M  V30 8 1 10 3
M  V30 9 1 11 7
M  V30 10 1 11 9
M  V30 11 1 12 4
M  V30 12 1 13 1
M  V30 13 1 14 3
M  V30 14 1 4 15 CFG=3
M  V30 15 1 16 5
M  V30 16 1 17 5
M  V30 17 1 18 6
M  V30 18 1 19 6
M  V30 19 1 20 7
M  V30 20 1 21 8
M  V30 21 1 22 8
M  V30 22 1 23 8
M  V30 23 1 24 9
M  V30 24 1 25 9
M  V30 25 1 26 10
M  V30 26 1 27 10
M  V30 27 1 28 10
M  V30 28 1 29 11
M  V30 29 1 30 11
M  V30 30 1 31 12
M  V30 31 1 32 7
M  V30 END BOND
M  V30 END CTAB
M  END
>  <i_epik_Tot_Q>  (1) 
1

>  <i_epik_Tot_abs_Q>  (1) 
1

>  <i_i_glide_confnum>  (1) 
243

>  <i_i_glide_lignum>  (1) 
125

>  <i_i_glide_posenum>  (1) 
121

>  <i_i_glide_rotatable_bonds>  (1) 
7

>  <i_lp_mmshare_version>  (1) 
72125

>  <i_m_source_file_index>  (1) 
48

>  <i_f3d_flags>  (1) 
0

>  <num_sample>  (1) 
50

>  <b_lp_Chiralities_Consistent>  (1) 
1

>  <r_epik_Charging_Adjusted_Penalty>  (1) 
0.00069192130555224092

>  <r_epik_Ionization_Penalty>  (1) 
0.00069195969174634328

>  <r_epik_Ionization_Penalty_Charging>  (1) 
0.00069192130555224092

>  <r_epik_Ionization_Penalty_Neutral>  (1) 
3.8386194102396343e-08

>  <r_epik_State_Penalty>  (1) 
-0

>  <r_glide_ring_energy>  (1) 
0

>  <r_i_docking_score>  (1) 
-4.194832424412704

>  <r_i_glide_ecoul>  (1) 
-8.2912215179053739

>  <r_i_glide_eff_state_penalty>  (1) 
-0

>  <r_i_glide_einternal>  (1) 
6.1346145614962468

>  <r_i_glide_emodel>  (1) 
-37.497083432370417

>  <r_i_glide_emodel_strain>  (1) 
0.099435401100392617

>  <r_i_glide_energy>  (1) 
-29.366204347850708

>  <r_i_glide_erotb>  (1) 
2.6617729602706905

>  <r_i_glide_esite>  (1) 
-0.091340412650621414

>  <r_i_glide_evdw>  (1) 
-21.074982829945334

>  <r_i_glide_gscore>  (1) 
-4.194832424412704

>  <r_i_glide_gscore_strain>  (1) 
0

>  <r_i_glide_hbond>  (1) 
-0.16911108318962792

>  <r_i_glide_ligand_efficiency>  (1) 
-0.34956936870105865

>  <r_i_glide_ligand_efficiency_ln>  (1) 
-1.2037144308206622

>  <r_i_glide_ligand_efficiency_sa>  (1) 
-0.8003140702249576

>  <r_i_glide_lipo>  (1) 
-1.5348289441404672

>  <r_i_glide_metal>  (1) 
-0

>  <r_i_glide_rewards>  (1) 
-2.7638925755196051

>  <r_lp_Energy>  (1) 
-13.973255999999999

>  <r_lp_tautomer_probability>  (1) 
1

>  <s_epik_cmdline>  (1) 
J2VwaWtfcHl0aG9uJywgJy1waHQnLCAnMS4wJywgJy1waCcsICc3LjQnLCAnLXRuJywgJzgnLCAnLW1hJywgJzUwMCcsICctaW1hZScsICc8aW5maWxlLm1hZT4nLCAnLW9tYWUnLCAnPG91dGZpbGUubWFlPic=

>  <s_epik_input>  (1) 
W0NIM11bQ0hdPUM9W0NIXVtDQEhdKFtPSF0pW0NIMl1bQ0gyXVtDSDJdW05IXVtDSDJdW0NIM10=

>  <s_glide_docking_method>  (1) 
confgen

>  <s_i_glide_gridfile>  (1) 
gpcr_drd2_6luq_protein_autoprepared_prepared

>  <s_lp_Force_Field>  (1) 
S-OPLS

>  <s_lp_Variant>  (1) 
DiffSBDD_47-1

>  <s_m_source_file>  (1) 
generated_generic_title2_ligand_DiffSBDD_2026-06-23_prepared.sdf

>  <GenAI_Model>  (1) 
DiffSBDD

>  <Protein>  (1) 
generic_title2

$$$$
DiffSBDD_1
     RDKit          3D

  0  0  0  0  0  0  0  0  0  0999 V3000
M  V30 BEGIN CTAB
M  V30 COUNTS 90 92 0 0 1
M  V30 BEGIN ATOM
M  V30 1 O 9.205809 5.388534 -10.445887 0
M  V30 2 O 11.771243 7.806813 -10.043374 0
M  V30 3 C 7.950613 4.544880 -15.177469 0 CFG=2
M  V30 4 C 6.814851 5.642243 -17.333088 0
M  V30 5 C 9.772779 5.407432 -21.214540 0
M  V30 6 C 11.499995 9.940657 -4.166142 0
M  V30 7 C 11.937361 3.984541 -18.851345 0
M  V30 8 C 10.909609 8.198504 -8.992479 0 CFG=1
M  V30 9 C 7.281283 3.472415 -14.257870 0 CFG=1
M  V30 10 C 9.898312 3.277494 -17.330440 0 CFG=2
M  V30 11 C 7.170365 5.621620 -18.812630 0
M  V30 12 O 5.161385 1.190116 -13.585024 0 CHG=-1
M  V30 13 C 8.900097 4.512750 -20.312625 0
M  V30 14 C 7.676421 5.941469 -14.556493 0
M  V30 15 C 9.553789 7.464447 -9.108501 0
M  V30 16 C 11.968485 4.247041 -20.375683 0
M  V30 17 C 7.527699 4.419493 -16.703596 0 CFG=1
M  V30 18 C 11.263212 5.540451 -20.833018 0
M  V30 19 C 11.643085 8.049707 -7.637134 0
M  V30 20 C 7.469386 5.030743 -12.211363 0 CFG=2
M  V30 21 C 13.430344 9.670198 -5.644659 0
M  V30 22 F 11.800804 2.008440 -17.723369 0
M  V30 23 C 12.071684 9.046298 -5.266643 0
M  V30 24 C 8.151229 6.074501 -13.101054 0
M  V30 25 C 8.769857 5.292950 -7.982138 0
M  V30 26 F 9.514231 2.128386 -16.785046 0
M  V30 27 O 6.569502 -0.409779 -15.018249 0
M  V30 28 O 7.354205 0.242331 -12.664074 0
M  V30 29 P 6.548961 0.736364 -13.794414 0
M  V30 30 C 11.125138 8.951338 -6.478293 0
M  V30 31 C 9.557955 5.912073 -9.149014 0 CFG=1
M  V30 32 C 8.545879 3.912976 -17.801417 0 CFG=1
M  V30 33 O 9.484088 6.009079 -18.441914 0
M  V30 34 C 7.815736 5.172059 -10.709879 0
M  V30 35 C 7.525120 2.021364 -14.725581 0
M  V30 36 C 8.581139 5.019697 -18.877528 0 CFG=2
M  V30 37 C 7.713714 3.626210 -12.774980 0
M  V30 38 C 10.989452 2.860122 -18.356278 0 CFG=2
M  V30 39 H 12.467731 8.443202 -10.109626 0
M  V30 40 H 9.021599 4.399008 -15.081498 0
M  V30 41 H 5.737408 5.621873 -17.167947 0
M  V30 42 H 7.165905 6.594203 -16.957772 0
M  V30 43 H 9.728146 4.990195 -22.221334 0
M  V30 44 H 9.326406 6.399454 -21.290426 0
M  V30 45 H 11.289798 10.935772 -4.551518 0
M  V30 46 H 10.575418 9.590116 -3.759416 0
M  V30 47 H 12.189042 9.990230 -3.321292 0
M  V30 48 H 12.955154 3.694788 -18.581906 0
M  V30 49 H 11.799873 4.903176 -18.284413 0
M  V30 50 H 10.722263 9.259702 -9.158167 0
M  V30 51 H 6.203247 3.641342 -14.300236 0
M  V30 52 H 10.381350 3.872258 -16.558973 0
M  V30 53 H 6.452265 4.980498 -19.325996 0
M  V30 54 H 7.109456 6.610530 -19.270473 0
M  V30 55 H 9.325808 3.517522 -20.293813 0
M  V30 56 H 7.960378 4.345552 -20.840379 0
M  V30 57 H 6.609236 6.162719 -14.600713 0
M  V30 58 H 8.175412 6.717494 -15.125965 0
M  V30 59 H 8.971196 7.800456 -8.254157 0
M  V30 60 H 9.028623 7.833865 -9.990105 0
M  V30 61 H 11.624845 3.382660 -20.945453 0
M  V30 62 H 13.018460 4.355624 -20.652294 0
M  V30 63 H 6.744697 3.670185 -16.720117 0
M  V30 64 H 11.780932 5.910807 -21.718610 0
M  V30 65 H 11.409311 6.329353 -20.095621 0
M  V30 66 H 11.644840 7.006193 -7.320285 0
M  V30 67 H 12.685187 8.289494 -7.829510 0
M  V30 68 H 6.393381 5.199431 -12.282924 0
M  V30 69 H 13.257068 10.678191 -6.007535 0
M  V30 70 H 14.099406 9.728417 -4.785470 0
M  V30 71 H 13.984017 9.190221 -6.441884 0
M  V30 72 H 12.175402 8.046650 -4.844083 0
M  V30 73 H 7.931870 7.077018 -12.730553 0
M  V30 74 H 9.234695 5.955476 -13.054351 0
M  V30 75 H 9.169487 5.639409 -7.028399 0
M  V30 76 H 7.720568 5.579892 -8.004926 0
M  V30 77 H 8.831608 4.206091 -7.985030 0
M  V30 78 H 7.142934 -1.104071 -14.727302 0
M  V30 79 H 10.975394 9.980864 -6.786057 0
M  V30 80 H 10.146409 8.591324 -6.157609 0
M  V30 81 H 10.575580 5.590221 -8.985759 0
M  V30 82 H 8.024265 3.090719 -18.298742 0
M  V30 83 H 10.360882 5.678632 -18.559289 0
M  V30 84 H 7.474554 4.289747 -10.169379 0
M  V30 85 H 7.226658 5.990229 -10.324052 0
M  V30 86 H 7.288050 1.882716 -15.776190 0
M  V30 87 H 8.575268 1.771654 -14.607228 0
M  V30 88 H 8.763900 3.353914 -12.656191 0
M  V30 89 H 7.137915 2.931031 -12.170096 0
M  V30 90 H 10.578640 2.260642 -19.166349 0
M  V30 END ATOM
M  V30 BEGIN BOND
M  V30 1 1 8 2
M  V30 2 1 9 3
M  V30 3 1 11 4
M  V30 4 1 13 5
M  V30 5 1 14 3
M  V30 6 1 15 8
M  V30 7 1 16 7
M  V30 8 1 17 3
M  V30 9 1 17 4
M  V30 10 1 18 5
M  V30 11 1 18 16
M  V30 12 1 19 8
M  V30 13 1 23 6
M  V30 14 1 23 21
M  V30 15 1 24 14
M  V30 16 1 24 20
M  V30 17 1 26 10
M  V30 18 1 29 12
M  V30 19 1 29 27
M  V30 20 2 29 28
M  V30 21 1 30 19
M  V30 22 1 30 23
M  V30 23 1 31 1
M  V30 24 1 31 15
M  V30 25 1 31 25
M  V30 26 1 32 10
M  V30 27 1 32 17
M  V30 28 1 34 1
M  V30 29 1 34 20
M  V30 30 1 35 9
M  V30 31 1 35 29
M  V30 32 1 36 11
M  V30 33 1 36 13
M  V30 34 1 36 32
M  V30 35 1 36 33 CFG=1
M  V30 36 1 37 9
M  V30 37 1 37 20
M  V30 38 1 38 7
M  V30 39 1 38 10
M  V30 40 1 38 22
M  V30 41 1 39 2
M  V30 42 1 3 40 CFG=3
M  V30 43 1 41 4
M  V30 44 1 42 4
M  V30 45 1 43 5
M  V30 46 1 44 5
M  V30 47 1 45 6
M  V30 48 1 46 6
M  V30 49 1 47 6
M  V30 50 1 48 7
M  V30 51 1 49 7
M  V30 52 1 8 50 CFG=3
M  V30 53 1 9 51 CFG=1
M  V30 54 1 10 52 CFG=1
M  V30 55 1 53 11
M  V30 56 1 54 11
M  V30 57 1 55 13
M  V30 58 1 56 13
M  V30 59 1 57 14
M  V30 60 1 58 14
M  V30 61 1 59 15
M  V30 62 1 60 15
M  V30 63 1 61 16
M  V30 64 1 62 16
M  V30 65 1 17 63 CFG=1
M  V30 66 1 64 18
M  V30 67 1 65 18
M  V30 68 1 66 19
M  V30 69 1 67 19
M  V30 70 1 20 68 CFG=1
M  V30 71 1 69 21
M  V30 72 1 70 21
M  V30 73 1 71 21
M  V30 74 1 72 23
M  V30 75 1 73 24
M  V30 76 1 74 24
M  V30 77 1 75 25
M  V30 78 1 76 25
M  V30 79 1 77 25
M  V30 80 1 78 27
M  V30 81 1 79 30
M  V30 82 1 80 30
M  V30 83 1 31 81 CFG=1
M  V30 84 1 32 82 CFG=3
M  V30 85 1 83 33
M  V30 86 1 84 34
M  V30 87 1 85 34
M  V30 88 1 86 35
M  V30 89 1 87 35
M  V30 90 1 88 37
M  V30 91 1 89 37
M  V30 92 1 38 90 CFG=3
M  V30 END BOND
M  V30 END CTAB
M  END
>  <i_epik_Tot_Q>  (1) 
-1

>  <i_epik_Tot_abs_Q>  (1) 
1

>  <i_i_glide_confnum>  (1) 
614

>  <i_i_glide_lignum>  (1) 
17

>  <i_i_glide_posenum>  (1) 
247

>  <i_i_glide_rotatable_bonds>  (1) 
14

>  <i_lp_mmshare_version>  (1) 
72125

>  <i_m_source_file_index>  (1) 
2

>  <i_f3d_flags>  (1) 
0

>  <num_sample>  (1) 
50

>  <b_lp_Chiralities_Consistent>  (1) 
1

>  <r_epik_Charging_Adjusted_Penalty>  (1) 
0.13318820565599726

>  <r_epik_Ionization_Penalty>  (1) 
0.13318880763099702

>  <r_epik_Ionization_Penalty_Charging>  (1) 
1.1004593090013429e-05

>  <r_epik_Ionization_Penalty_Neutral>  (1) 
0.13317780303790702

>  <r_epik_State_Penalty>  (1) 
0.13317720106290726

>  <r_glide_ring_energy>  (1) 
0

>  <r_i_docking_score>  (1) 
-4.1911361486707479

>  <r_i_glide_ecoul>  (1) 
-1.6371682579096054

>  <r_i_glide_eff_state_penalty>  (1) 
0.13317720106290726

>  <r_i_glide_einternal>  (1) 
25.663526414132843

>  <r_i_glide_emodel>  (1) 
-22.30160153292848

>  <r_i_glide_emodel_strain>  (1) 
0.93357184952812133

>  <r_i_glide_energy>  (1) 
-30.848394506457634

>  <r_i_glide_erotb>  (1) 
0.56507953808565226

>  <r_i_glide_esite>  (1) 
0

>  <r_i_glide_evdw>  (1) 
-29.21122624854803

>  <r_i_glide_gscore>  (1) 
-4.3243133497336554

>  <r_i_glide_gscore_strain>  (1) 
0

>  <r_i_glide_hbond>  (1) 
-0.28421534436599905

>  <r_i_glide_ligand_efficiency>  (1) 
-0.11029305654396705

>  <r_i_glide_ligand_efficiency_ln>  (1) 
-0.90373224438767563

>  <r_i_glide_ligand_efficiency_sa>  (1) 
-0.37080254364150478

>  <r_i_glide_lipo>  (1) 
-2.5743325843895528

>  <r_i_glide_metal>  (1) 
-0

>  <r_i_glide_rewards>  (1) 
-0.32470840794991268

>  <r_lp_Energy>  (1) 
45.243853999999999

>  <s_epik_cmdline>  (1) 
J2VwaWtfcHl0aG9uJywgJy1waHQnLCAnMS4wJywgJy1waCcsICc3LjQnLCAnLXRuJywgJzgnLCAnLW1hJywgJzUwMCcsICctaW1hZScsICc8aW5maWxlLm1hZT4nLCAnLW9tYWUnLCAnPG91dGZpbGUubWFlPic=

>  <s_epik_input>  (1) 
W0NIM11bQ0hdKFtDSDNdKVtDSDJdW0NIMl1bQ0BASF0oW09IXSlbQ0gyXVtDQEBIXShbQ0gzXSlPW0NIMl1bQ0BASF0oW0NIMl1bQ0gyXTEpW0NIMl1bQ0BIXShbQ0gyXVAoPU8pKFtPSF0pW09IXSlbQ0BIXTFbQ0BASF0oW0NIMl1bQ0gyXTIpW0NAQEhdKFtDQF0yM1tPSF0pW0NAQEhdKEYpW0NASF0oRilbQ0gyXVtDSDJdW0NIMl1bQ0gyXVtDSDJdMw==

>  <s_glide_docking_method>  (1) 
confgen

>  <s_i_glide_gridfile>  (1) 
gpcr_drd2_6luq_protein_autoprepared_prepared

>  <s_lp_Force_Field>  (1) 
S-OPLS

>  <s_lp_Variant>  (1) 
DiffSBDD_1-1

>  <s_m_source_file>  (1) 
generated_generic_title2_ligand_DiffSBDD_2026-06-23_prepared.sdf

>  <GenAI_Model>  (1) 
DiffSBDD

>  <Protein>  (1) 
generic_title2

$$$$
DiffSBDD_6
     RDKit          3D

  0  0  0  0  0  0  0  0  0  0999 V3000
M  V30 BEGIN CTAB
M  V30 COUNTS 73 76 0 0 1
M  V30 BEGIN ATOM
M  V30 1 C 4.448374 0.273857 -14.170386 0
M  V30 2 C 5.902131 0.687541 -14.006779 0 CFG=1
M  V30 3 N 7.732635 5.447344 -12.014012 0
M  V30 4 C 7.370633 7.463126 -13.363830 0
M  V30 5 O 9.285263 7.371974 -6.996342 0
M  V30 6 C 7.713076 6.913630 -11.987080 0 CFG=2
M  V30 7 C 11.622028 7.543626 -6.902969 0
M  V30 8 C 6.452589 1.354924 -15.214870 0
M  V30 9 N 7.941074 2.719694 -17.171519 0
M  V30 10 C 6.267120 0.638902 -16.560500 0
M  V30 11 O 11.647936 7.590000 -9.772570 0
M  V30 12 C 10.442599 7.026026 -7.731443 0 CFG=2
M  V30 13 C 7.628573 3.390548 -16.065303 0
M  V30 14 C 6.184514 1.829526 -12.955286 0 CFG=2
M  V30 15 C 5.656225 3.271717 -12.954491 0 CFG=1
M  V30 16 C 8.528561 4.763276 -12.865853 0
M  V30 17 C 5.723498 -2.091811 -18.261021 0
M  V30 18 C 12.295950 8.838635 -9.925844 0
M  V30 19 C 5.550725 4.192699 -11.733668 0
M  V30 20 C 7.014548 2.541148 -15.001696 0
M  V30 21 C 13.410507 8.659025 -10.954478 0
M  V30 22 C 9.435409 6.814497 -10.054700 0
M  V30 23 C 10.368793 7.637020 -9.150886 0 CFG=2
M  V30 24 C 5.034709 -0.259536 -16.581577 0
M  V30 25 C 8.975480 7.539446 -11.341139 0
M  V30 26 F 6.939032 -1.617438 -18.531114 0
M  V30 27 C 6.983413 2.995159 -13.607046 0 CFG=2
M  V30 28 C 6.825666 4.753007 -11.084108 0
M  V30 29 C 8.302966 3.268946 -12.947378 0
M  V30 30 C 6.141828 7.418410 -13.903611 0
M  V30 31 F 5.790096 -2.972260 -17.265383 0
M  V30 32 O 7.857871 4.589733 -15.954699 0
M  V30 33 F 5.269848 -2.717389 -19.346592 0
M  V30 34 C 4.748052 -0.961918 -17.903885 0
M  V30 35 C 4.230880 -0.409122 -15.510698 0
M  V30 36 O 9.374503 5.301154 -13.579388 0
M  V30 37 H 3.775437 1.122750 -14.069256 0
M  V30 38 H 4.179241 -0.409658 -13.365050 0
M  V30 39 H 6.523110 -0.181770 -13.786514 0
M  V30 40 H 8.175388 7.903846 -13.919415 0
M  V30 41 H 8.501241 7.189975 -7.504893 0
M  V30 42 H 6.838782 7.200083 -11.414615 0
M  V30 43 H 12.569966 7.312019 -7.386532 0
M  V30 44 H 11.633384 7.081803 -5.916112 0
M  V30 45 H 11.569880 8.624416 -6.765008 0
M  V30 46 H 8.372094 3.203283 -17.944718 0
M  V30 47 H 7.752740 1.730483 -17.230852 0
M  V30 48 H 6.049428 1.330195 -17.371457 0
M  V30 49 H 7.158765 0.055137 -16.789362 0
M  V30 50 H 10.508701 5.938482 -7.802177 0
M  V30 51 H 6.483395 1.449222 -11.985455 0
M  V30 52 H 4.785352 3.407188 -13.585015 0
M  V30 53 H 11.602062 9.590160 -10.280745 0
M  V30 54 H 12.688509 9.189903 -8.972135 0
M  V30 55 H 4.975422 3.692415 -10.959016 0
M  V30 56 H 4.975422 5.061812 -12.042819 0
M  V30 57 H 13.693173 9.590100 -11.439426 0
M  V30 58 H 13.088518 7.990312 -11.751503 0
M  V30 59 H 14.307578 8.265980 -10.479086 0
M  V30 60 H 8.575481 6.508276 -9.469125 0
M  V30 61 H 9.921977 5.878152 -10.321040 0
M  V30 62 H 9.996193 8.660116 -9.078427 0
M  V30 63 H 9.805707 7.552018 -12.049476 0
M  V30 64 H 8.757114 8.584609 -11.116390 0
M  V30 65 H 6.521057 5.437166 -10.290391 0
M  V30 66 H 7.363564 3.990177 -10.529192 0
M  V30 67 H 8.976090 2.755360 -13.585073 0
M  V30 68 H 8.416762 2.789705 -11.985218 0
M  V30 69 H 5.314360 6.979560 -13.366409 0
M  V30 70 H 5.951489 7.820013 -14.888026 0
M  V30 71 H 3.745955 -1.383065 -17.865846 0
M  V30 72 H 4.722988 -0.221292 -18.703079 0
M  V30 73 H 3.375515 -1.045921 -15.585139 0
M  V30 END ATOM
M  V30 BEGIN BOND
M  V30 1 1 2 1
M  V30 2 1 6 3
M  V30 3 1 6 4
M  V30 4 1 8 2
M  V30 5 1 10 8
M  V30 6 1 12 5
M  V30 7 1 12 7
M  V30 8 1 13 9
M  V30 9 1 14 2
M  V30 10 1 15 14
M  V30 11 1 16 3
M  V30 12 1 18 11
M  V30 13 1 19 15
M  V30 14 2 20 8
M  V30 15 1 20 13
M  V30 16 1 21 18
M  V30 17 1 23 11
M  V30 18 1 23 12
M  V30 19 1 23 22
M  V30 20 1 24 10
M  V30 21 1 25 6
M  V30 22 1 25 22
M  V30 23 1 26 17
M  V30 24 1 27 14
M  V30 25 1 27 15
M  V30 26 1 27 20
M  V30 27 1 28 3
M  V30 28 1 28 19
M  V30 29 1 29 16
M  V30 30 1 27 29 CFG=1
M  V30 31 2 30 4
M  V30 32 1 31 17
M  V30 33 2 32 13
M  V30 34 1 33 17
M  V30 35 1 34 17
M  V30 36 1 34 24
M  V30 37 1 35 1
M  V30 38 2 35 24
M  V30 39 2 36 16
M  V30 40 1 37 1
M  V30 41 1 38 1
M  V30 42 1 2 39 CFG=1
M  V30 43 1 40 4
M  V30 44 1 41 5
M  V30 45 1 6 42 CFG=1
M  V30 46 1 43 7
M  V30 47 1 44 7
M  V30 48 1 45 7
M  V30 49 1 46 9
M  V30 50 1 47 9
M  V30 51 1 48 10
M  V30 52 1 49 10
M  V30 53 1 12 50 CFG=3
M  V30 54 1 14 51 CFG=1
M  V30 55 1 15 52 CFG=3
M  V30 56 1 53 18
M  V30 57 1 54 18
M  V30 58 1 55 19
M  V30 59 1 56 19
M  V30 60 1 57 21
M  V30 61 1 58 21
M  V30 62 1 59 21
M  V30 63 1 60 22
M  V30 64 1 61 22
M  V30 65 1 23 62 CFG=1
M  V30 66 1 63 25
M  V30 67 1 64 25
M  V30 68 1 65 28
M  V30 69 1 66 28
M  V30 70 1 67 29
M  V30 71 1 68 29
M  V30 72 1 69 30
M  V30 73 1 70 30
M  V30 74 1 71 34
M  V30 75 1 72 34
M  V30 76 1 73 35
M  V30 END BOND
M  V30 END CTAB
M  END
>  <i_epik_Tot_Q>  (1) 
0

>  <i_epik_Tot_abs_Q>  (1) 
0

>  <i_i_glide_confnum>  (1) 
987

>  <i_i_glide_lignum>  (1) 
30

>  <i_i_glide_posenum>  (1) 
393

>  <i_i_glide_rotatable_bonds>  (1) 
12

>  <i_lp_mmshare_version>  (1) 
72125

>  <i_m_source_file_index>  (1) 
7

>  <i_f3d_flags>  (1) 
0

>  <num_sample>  (1) 
50

>  <b_lp_Chiralities_Consistent>  (1) 
1

>  <r_epik_Charging_Adjusted_Penalty>  (1) 
0

>  <r_epik_Ionization_Penalty>  (1) 
7.0933553160111078e-06

>  <r_epik_Ionization_Penalty_Charging>  (1) 
0

>  <r_epik_Ionization_Penalty_Neutral>  (1) 
7.0933553160111078e-06

>  <r_epik_State_Penalty>  (1) 
-0

>  <r_glide_ring_energy>  (1) 
0

>  <r_i_docking_score>  (1) 
-4.190677026787176

>  <r_i_glide_ecoul>  (1) 
-1.8695169220856416

>  <r_i_glide_eff_state_penalty>  (1) 
-0

>  <r_i_glide_einternal>  (1) 
5.6496330471575291

>  <r_i_glide_emodel>  (1) 
-34.021216697816357

>  <r_i_glide_emodel_strain>  (1) 
4.8110620760173788

>  <r_i_glide_energy>  (1) 
-33.312517472457131

>  <r_i_glide_erotb>  (1) 
0.62865897288938211

>  <r_i_glide_esite>  (1) 
-0.068086052097727973

>  <r_i_glide_evdw>  (1) 
-31.44300055037149

>  <r_i_glide_gscore>  (1) 
-4.190677026787176

>  <r_i_glide_gscore_strain>  (1) 
0.2027655190043447

>  <r_i_glide_hbond>  (1) 
-0.054698337349592653

>  <r_i_glide_ligand_efficiency>  (1) 
-0.11640769518853267

>  <r_i_glide_ligand_efficiency_ln>  (1) 
-0.9142925082357668

>  <r_i_glide_ligand_efficiency_sa>  (1) 
-0.38436974072403601

>  <r_i_glide_lipo>  (1) 
-2.1269277544940697

>  <r_i_glide_metal>  (1) 
-0

>  <r_i_glide_rewards>  (1) 
-0.91981180890809133

>  <r_lp_Energy>  (1) 
24.422612999999998

>  <r_lp_tautomer_probability>  (1) 
1

>  <s_epik_cmdline>  (1) 
J2VwaWtfcHl0aG9uJywgJy1waHQnLCAnMS4wJywgJy1waCcsICc3LjQnLCAnLXRuJywgJzgnLCAnLW1hJywgJzUwMCcsICctaW1hZScsICc8aW5maWxlLm1hZT4nLCAnLW9tYWUnLCAnPG91dGZpbGUubWFlPic=

>  <s_epik_input>  (1) 
RkMoRikoRilbQ0gyXUMoPVtDSF1bQ0gyXTEpW0NIMl1DKD1DMkMoPU8pW05IMl0pW0NASF0xW0NIXShbQ0BAXTIzNClbQ0BIXTNbQ0gyXVtDSDJdTihDKD1PKVtDSDJdNClbQ0BIXShbQ0hdPVtDSDJdKVtDSDJdW0NIMl1bQ0BASF0oW0NASF0oW09IXSlbQ0gzXSlPW0NIMl1bQ0gzXQ==

>  <s_glide_docking_method>  (1) 
confgen

>  <s_i_glide_gridfile>  (1) 
gpcr_drd2_6luq_protein_autoprepared_prepared

>  <s_lp_Force_Field>  (1) 
S-OPLS

>  <s_lp_Variant>  (1) 
DiffSBDD_6-1

>  <s_m_source_file>  (1) 
generated_generic_title2_ligand_DiffSBDD_2026-06-23_prepared.sdf

>  <GenAI_Model>  (1) 
DiffSBDD

>  <Protein>  (1) 
generic_title2

$$$$
DiffSBDD_0
     RDKit          3D

  0  0  0  0  0  0  0  0  0  0999 V3000
M  V30 BEGIN CTAB
M  V30 COUNTS 70 74 0 0 1
M  V30 BEGIN ATOM
M  V30 1 C 10.089035 6.999116 -5.961997 0
M  V30 2 N 7.428732 4.848246 -14.105299 0
M  V30 3 C 7.750712 5.006118 -18.258967 0 CFG=1
M  V30 4 C 8.706378 6.133624 -12.473519 0
M  V30 5 F 12.975268 7.990225 -8.068283 0
M  V30 6 C 6.709021 5.992675 -14.667660 0
M  V30 7 C 8.987293 7.385306 -6.954482 0
M  V30 8 C 9.771811 7.439801 -10.843571 0
M  V30 9 C 10.715592 8.346183 -8.570920 0 CFG=1
M  V30 10 C 10.306560 4.430191 -18.236807 0
M  V30 11 C 7.253656 3.607057 -14.848865 0 CFG=1
M  V30 12 C 7.184304 0.403453 -12.994093 0
M  V30 13 C 8.977873 4.413988 -18.935235 0 CFG=1
M  V30 14 O 9.690469 6.195883 -11.527999 0
M  V30 15 C 11.780149 8.067043 -7.492326 0 CFG=1
M  V30 16 C 7.796825 3.533171 -18.531709 0 CFG=1
M  V30 17 N 7.826449 5.159967 -16.781850 0 CFG=2 CHG=1
M  V30 18 C 10.676901 7.217320 -9.629581 0
M  V30 19 C 6.716975 1.810851 -13.397419 0
M  V30 20 C 8.030680 3.811645 -16.163629 0 CFG=2
M  V30 21 O 6.175369 -0.260627 -12.253575 0
M  V30 22 C 9.382722 8.575654 -7.835935 0
M  V30 23 N 10.776549 5.526008 -17.568993 0
M  V30 24 C 6.687550 5.937207 -16.216533 0
M  V30 25 N 11.097846 3.357037 -18.230170 0
M  V30 26 O 12.222123 3.771390 -17.494997 0
M  V30 27 C 11.940905 5.047183 -17.163705 0
M  V30 28 O 7.693718 2.434590 -14.229335 0
M  V30 29 N 12.929084 5.693123 -16.438312 0
M  V30 30 C 8.407143 4.991038 -13.120110 0
M  V30 31 C 11.432321 6.805640 -6.663687 0
M  V30 32 C 14.226624 5.240985 -15.971139 0
M  V30 33 C 7.699514 2.770078 -17.234637 0
M  V30 34 H 10.186858 7.785007 -5.213545 0
M  V30 35 H 9.805830 6.094444 -5.422293 0
M  V30 36 H 7.071151 5.659985 -18.803505 0
M  V30 37 H 8.219098 7.083426 -12.632348 0
M  V30 38 H 5.694971 6.030477 -14.265283 0
M  V30 39 H 7.184780 6.932086 -14.394795 0
M  V30 40 H 8.121381 7.681708 -6.385024 0
M  V30 41 H 8.692597 6.532431 -7.565997 0
M  V30 42 H 10.175447 8.214379 -11.496107 0
M  V30 43 H 8.783216 7.760949 -10.531925 0
M  V30 44 H 10.985581 9.268761 -9.085359 0
M  V30 45 H 6.187418 3.515768 -15.058871 0
M  V30 46 H 8.092064 0.468482 -12.394863 0
M  V30 47 H 7.419308 -0.191464 -13.877627 0
M  V30 48 H 9.108740 4.617678 -19.996848 0
M  V30 49 H 11.848606 8.923948 -6.821167 0
M  V30 50 H 7.197008 3.139246 -19.349793 0
M  V30 51 H 10.376037 6.276949 -9.169859 0
M  V30 52 H 11.688308 7.065199 -10.003944 0
M  V30 53 H 5.775321 1.712374 -13.936853 0
M  V30 54 H 6.528900 2.423205 -12.514186 0
M  V30 55 H 9.090536 3.741792 -15.921364 0
M  V30 56 H 5.777902 -0.946705 -12.785284 0
M  V30 57 H 9.479231 9.438745 -7.185038 0
M  V30 58 H 8.586937 8.844494 -8.522965 0
M  V30 59 H 5.762195 5.464402 -16.540466 0
M  V30 60 H 6.666794 6.944499 -16.632726 0
M  V30 61 H 12.716921 6.648833 -16.194835 0
M  V30 62 H 8.936550 4.073650 -12.905093 0
M  V30 63 H 12.175405 6.580053 -5.905382 0
M  V30 64 H 11.393151 5.914454 -7.288624 0
M  V30 65 H 14.608453 5.910662 -15.199098 0
M  V30 66 H 14.160523 4.235825 -15.552620 0
M  V30 67 H 14.936875 5.225452 -16.798036 0
M  V30 68 H 6.684064 2.388017 -17.122730 0
M  V30 69 H 8.388261 1.924177 -17.221067 0
M  V30 70 H 8.663703 5.690763 -16.573870 0
M  V30 END ATOM
M  V30 BEGIN BOND
M  V30 1 1 6 2
M  V30 2 1 7 1
M  V30 3 1 11 2
M  V30 4 1 13 3
M  V30 5 1 13 10
M  V30 6 1 14 4
M  V30 7 1 14 8
M  V30 8 1 15 5
M  V30 9 1 15 9
M  V30 10 1 16 3
M  V30 11 1 16 13
M  V30 12 1 17 3
M  V30 13 1 18 8
M  V30 14 1 18 9
M  V30 15 1 19 12
M  V30 16 1 20 11
M  V30 17 1 20 17
M  V30 18 1 21 12
M  V30 19 1 22 7
M  V30 20 1 22 9
M  V30 21 1 23 10
M  V30 22 1 24 6
M  V30 23 1 24 17
M  V30 24 2 25 10
M  V30 25 1 26 25
M  V30 26 2 27 23
M  V30 27 1 27 26
M  V30 28 1 28 11
M  V30 29 1 28 19
M  V30 30 1 29 27
M  V30 31 1 30 2
M  V30 32 2 30 4
M  V30 33 1 31 1
M  V30 34 1 31 15
M  V30 35 1 32 29
M  V30 36 1 33 16
M  V30 37 1 33 20
M  V30 38 1 34 1
M  V30 39 1 35 1
M  V30 40 1 3 36 CFG=3
M  V30 41 1 37 4
M  V30 42 1 38 6
M  V30 43 1 39 6
M  V30 44 1 40 7
M  V30 45 1 41 7
M  V30 46 1 42 8
M  V30 47 1 43 8
M  V30 48 1 9 44 CFG=3
M  V30 49 1 11 45 CFG=3
M  V30 50 1 46 12
M  V30 51 1 47 12
M  V30 52 1 13 48 CFG=3
M  V30 53 1 15 49 CFG=1
M  V30 54 1 16 50 CFG=3
M  V30 55 1 51 18
M  V30 56 1 52 18
M  V30 57 1 53 19
M  V30 58 1 54 19
M  V30 59 1 20 55 CFG=1
M  V30 60 1 56 21
M  V30 61 1 57 22
M  V30 62 1 58 22
M  V30 63 1 59 24
M  V30 64 1 60 24
M  V30 65 1 61 29
M  V30 66 1 62 30
M  V30 67 1 63 31
M  V30 68 1 64 31
M  V30 69 1 65 32
M  V30 70 1 66 32
M  V30 71 1 67 32
M  V30 72 1 68 33
M  V30 73 1 69 33
M  V30 74 1 17 70 CFG=3
M  V30 END BOND
M  V30 END CTAB
M  END
>  <i_epik_Tot_Q>  (1) 
1

>  <i_epik_Tot_abs_Q>  (1) 
1

>  <i_i_glide_confnum>  (1) 
102

>  <i_i_glide_lignum>  (1) 
13

>  <i_i_glide_posenum>  (1) 
396

>  <i_i_glide_rotatable_bonds>  (1) 
11

>  <i_lp_mmshare_version>  (1) 
72125

>  <i_m_source_file_index>  (1) 
1

>  <i_f3d_flags>  (1) 
0

>  <num_sample>  (1) 
50

>  <b_lp_Chiralities_Consistent>  (1) 
1

>  <r_epik_Charging_Adjusted_Penalty>  (1) 
0.41344222577729461

>  <r_epik_Ionization_Penalty>  (1) 
0.0027644559619576371

>  <r_epik_Ionization_Penalty_Charging>  (1) 
0.0027623868246906495

>  <r_epik_Ionization_Penalty_Neutral>  (1) 
2.0691372669875143e-06

>  <r_epik_State_Penalty>  (1) 
0.41067983895260396

>  <r_glide_ring_energy>  (1) 
1.7395912014422352

>  <r_i_docking_score>  (1) 
-4.1887232641439693

>  <r_i_glide_ecoul>  (1) 
-2.8098568900484926

>  <r_i_glide_eff_state_penalty>  (1) 
0.41067983895260396

>  <r_i_glide_einternal>  (1) 
7.2337661071519515

>  <r_i_glide_emodel>  (1) 
-41.231256343184441

>  <r_i_glide_emodel_strain>  (1) 
1.2386437099894749

>  <r_i_glide_energy>  (1) 
-35.852014938660041

>  <r_i_glide_erotb>  (1) 
0.74142510397790429

>  <r_i_glide_esite>  (1) 
0

>  <r_i_glide_evdw>  (1) 
-33.042158048611547

>  <r_i_glide_gscore>  (1) 
-4.5994031030965736

>  <r_i_glide_gscore_strain>  (1) 
0

>  <r_i_glide_hbond>  (1) 
-0.16

>  <r_i_glide_ligand_efficiency>  (1) 
-0.12693100800436272

>  <r_i_glide_ligand_efficiency_ln>  (1) 
-0.93155036589727636

>  <r_i_glide_ligand_efficiency_sa>  (1) 
-0.40713556571496845

>  <r_i_glide_lipo>  (1) 
-1.899958434682141

>  <r_i_glide_metal>  (1) 
-0

>  <r_i_glide_rewards>  (1) 
-1.2072833364544862

>  <r_lp_Energy>  (1) 
41.750805999999997

>  <r_lp_tautomer_probability>  (1) 
0.5

>  <s_epik_Chemistry_Notes>  (1) 
This compound has an imine and may undergo hydrolysis. This compound contains an acetal/aminal-like group ( X-CH(R)-Y where X, Y are N, S, or O) that may be acid/base labile, releasing an aldehyde.

>  <s_epik_cmdline>  (1) 
J2VwaWtfcHl0aG9uJywgJy1waHQnLCAnMS4wJywgJy1waCcsICc3LjQnLCAnLXRuJywgJzgnLCAnLW1hJywgJzUwMCcsICctaW1hZScsICc8aW5maWxlLm1hZT4nLCAnLW9tYWUnLCAnPG91dGZpbGUubWFlPic=

>  <s_epik_input>  (1) 
W0NIMl0xW0NIMl1bQ0gyXVtDSDJdW0NASF0oRilbQ0BIXTFbQ0gyXVtDSDJdTy9bQ0hdPVtDSF0vTihbQ0BIXTJPW0NIMl1bQ0gyXVtPSF0pW0NIMl1bQ0gyXU4zW0NAQEhdMltDSDJdW0NAQEhdKFtDQEBIXTM0KVtDQEBIXTRjNW5jKG9uNSlbTkhdW0NIM10=

>  <s_glide_docking_method>  (1) 
confgen

>  <s_i_glide_gridfile>  (1) 
gpcr_drd2_6luq_protein_autoprepared_prepared

>  <s_lp_Force_Field>  (1) 
S-OPLS

>  <s_lp_Variant>  (1) 
DiffSBDD_0-13

>  <s_m_source_file>  (1) 
generated_generic_title2_ligand_DiffSBDD_2026-06-23_prepared.sdf

>  <GenAI_Model>  (1) 
DiffSBDD

>  <Protein>  (1) 
generic_title2

$$$$
DiffSBDD_0
     RDKit          3D

  0  0  0  0  0  0  0  0  0  0999 V3000
M  V30 BEGIN CTAB
M  V30 COUNTS 70 74 0 0 1
M  V30 BEGIN ATOM
M  V30 1 C 10.092445 7.559674 -6.208906 0
M  V30 2 N 7.780340 5.350694 -14.569866 0
M  V30 3 C 8.338877 4.519155 -18.672057 0 CFG=1
M  V30 4 C 8.086590 7.250957 -13.068022 0
M  V30 5 F 9.775410 5.109238 -8.920006 0
M  V30 6 C 6.816248 6.012745 -15.450442 0
M  V30 7 C 10.718028 8.695901 -7.013145 0
M  V30 8 C 9.537023 7.050416 -11.160819 0
M  V30 9 C 11.010586 7.184162 -9.026859 0 CFG=1
M  V30 10 C 10.919442 4.964942 -18.737558 0
M  V30 11 C 8.192502 4.016557 -14.979695 0 CFG=2
M  V30 12 C 6.428524 1.009927 -14.138290 0
M  V30 13 C 9.713593 4.256462 -19.271059 0 CFG=1
M  V30 14 O 8.695874 7.846329 -11.985027 0
M  V30 15 C 10.395855 6.029180 -8.182918 0 CFG=1
M  V30 16 C 8.958893 3.161378 -18.529658 0 CFG=1
M  V30 17 N 8.301187 5.112315 -17.305836 0 CFG=2 CHG=1
M  V30 18 C 10.021826 7.901257 -9.979415 0
M  V30 19 C 6.688870 2.508923 -13.887665 0
M  V30 20 C 8.922463 4.156716 -16.341429 0 CFG=2
M  V30 21 O 5.874967 0.390226 -12.992954 0
M  V30 22 C 11.698132 8.183618 -8.075577 0
M  V30 23 N 11.005183 6.324963 -18.669162 0
M  V30 24 C 6.945245 5.589186 -16.930465 0
M  V30 25 N 11.981853 4.288387 -18.300078 0
M  V30 26 O 12.868772 5.290630 -17.875663 0
M  V30 27 C 12.211161 6.436812 -18.137256 0
M  V30 28 O 7.141558 3.105531 -15.102935 0
M  V30 29 N 12.896069 7.590228 -17.794019 0
M  V30 30 C 8.361812 5.990242 -13.477831 0
M  V30 31 C 9.419005 6.541691 -7.128112 0
M  V30 32 C 14.196063 7.781812 -17.187555 0
M  V30 33 C 9.156985 2.826689 -17.075362 0
M  V30 34 H 10.830141 7.078317 -5.566073 0
M  V30 35 H 9.321790 7.990231 -5.584478 0
M  V30 36 H 7.469118 4.666554 -19.310310 0
M  V30 37 H 7.375401 7.907877 -13.541770 0
M  V30 38 H 5.804017 5.833275 -15.086542 0
M  V30 39 H 6.970230 7.089815 -15.419441 0
M  V30 40 H 11.196708 9.422089 -6.355721 0
M  V30 41 H 9.890369 9.190227 -7.508930 0
M  V30 42 H 8.963654 6.195191 -10.807498 0
M  V30 43 H 10.397014 6.688518 -11.726585 0
M  V30 44 H 11.804354 6.790227 -9.653958 0
M  V30 45 H 8.891988 3.632358 -14.236192 0
M  V30 46 H 7.358958 0.504354 -14.399344 0
M  V30 47 H 5.747381 0.870726 -14.977198 0
M  V30 48 H 9.780401 4.169073 -20.353677 0
M  V30 49 H 11.191403 5.497647 -7.661537 0
M  V30 50 H 8.574818 2.350983 -19.146328 0
M  V30 51 H 10.515576 8.783048 -10.385034 0
M  V30 52 H 9.158986 8.280350 -9.435484 0
M  V30 53 H 5.777520 3.015419 -13.568272 0
M  V30 54 H 7.409678 2.614825 -13.074639 0
M  V30 55 H 9.898312 4.588332 -16.111715 0
M  V30 56 H 5.678895 -0.520786 -13.188916 0
M  V30 57 H 12.544664 7.702199 -7.585035 0
M  V30 58 H 12.112780 9.021193 -8.638015 0
M  V30 59 H 6.237072 4.790226 -17.130054 0
M  V30 60 H 6.651138 6.413634 -17.581224 0
M  V30 61 H 12.401429 8.457312 -17.985024 0
M  V30 62 H 9.083956 5.374437 -12.963432 0
M  V30 63 H 9.011882 5.717019 -6.546628 0
M  V30 64 H 8.575409 7.009740 -7.625610 0
M  V30 65 H 14.457853 8.839811 -17.185027 0
M  V30 66 H 14.175413 7.420097 -16.159447 0
M  V30 67 H 14.962477 7.235104 -17.737362 0
M  V30 68 H 8.439223 2.053549 -16.802778 0
M  V30 69 H 10.156924 2.427616 -16.903462 0
M  V30 70 H 8.894330 5.931631 -17.312233 0
M  V30 END ATOM
M  V30 BEGIN BOND
M  V30 1 1 6 2
M  V30 2 1 7 1
M  V30 3 1 11 2
M  V30 4 1 13 3
M  V30 5 1 13 10
M  V30 6 1 14 4
M  V30 7 1 14 8
M  V30 8 1 15 5
M  V30 9 1 15 9
M  V30 10 1 16 3
M  V30 11 1 16 13
M  V30 12 1 17 3
M  V30 13 1 18 8
M  V30 14 1 18 9
M  V30 15 1 19 12
M  V30 16 1 20 11
M  V30 17 1 20 17
M  V30 18 1 21 12
M  V30 19 1 22 7
M  V30 20 1 22 9
M  V30 21 1 23 10
M  V30 22 1 24 6
M  V30 23 1 24 17
M  V30 24 2 25 10
M  V30 25 1 26 25
M  V30 26 2 27 23
M  V30 27 1 27 26
M  V30 28 1 28 11
M  V30 29 1 28 19
M  V30 30 1 29 27
M  V30 31 1 30 2
M  V30 32 2 30 4
M  V30 33 1 31 1
M  V30 34 1 31 15
M  V30 35 1 32 29
M  V30 36 1 33 16
M  V30 37 1 33 20
M  V30 38 1 34 1
M  V30 39 1 35 1
M  V30 40 1 3 36 CFG=3
M  V30 41 1 37 4
M  V30 42 1 38 6
M  V30 43 1 39 6
M  V30 44 1 40 7
M  V30 45 1 41 7
M  V30 46 1 42 8
M  V30 47 1 43 8
M  V30 48 1 9 44 CFG=3
M  V30 49 1 11 45 CFG=1
M  V30 50 1 46 12
M  V30 51 1 47 12
M  V30 52 1 13 48 CFG=3
M  V30 53 1 15 49 CFG=1
M  V30 54 1 16 50 CFG=3
M  V30 55 1 51 18
M  V30 56 1 52 18
M  V30 57 1 53 19
M  V30 58 1 54 19
M  V30 59 1 20 55 CFG=1
M  V30 60 1 56 21
M  V30 61 1 57 22
M  V30 62 1 58 22
M  V30 63 1 59 24
M  V30 64 1 60 24
M  V30 65 1 61 29
M  V30 66 1 62 30
M  V30 67 1 63 31
M  V30 68 1 64 31
M  V30 69 1 65 32
M  V30 70 1 66 32
M  V30 71 1 67 32
M  V30 72 1 68 33
M  V30 73 1 69 33
M  V30 74 1 17 70 CFG=3
M  V30 END BOND
M  V30 END CTAB
M  END
>  <i_epik_Tot_Q>  (1) 
1

>  <i_epik_Tot_abs_Q>  (1) 
1

>  <i_i_glide_confnum>  (1) 
72

>  <i_i_glide_lignum>  (1) 
9

>  <i_i_glide_posenum>  (1) 
132

>  <i_i_glide_rotatable_bonds>  (1) 
11

>  <i_lp_mmshare_version>  (1) 
72125

>  <i_m_source_file_index>  (1) 
1

>  <i_f3d_flags>  (1) 
0

>  <num_sample>  (1) 
50

>  <b_lp_Chiralities_Consistent>  (1) 
1

>  <r_epik_Charging_Adjusted_Penalty>  (1) 
0.41344222577729461

>  <r_epik_Ionization_Penalty>  (1) 
0.0027644559619576371

>  <r_epik_Ionization_Penalty_Charging>  (1) 
0.0027623868246906495

>  <r_epik_Ionization_Penalty_Neutral>  (1) 
2.0691372669875143e-06

>  <r_epik_State_Penalty>  (1) 
0.41067983895260396

>  <r_glide_ring_energy>  (1) 
1.7903676985451424

>  <r_i_docking_score>  (1) 
-4.1829247284946254

>  <r_i_glide_ecoul>  (1) 
-3.7539516174322878

>  <r_i_glide_eff_state_penalty>  (1) 
0.41067983895260396

>  <r_i_glide_einternal>  (1) 
4.9867827911306026

>  <r_i_glide_emodel>  (1) 
-43.124315023001479

>  <r_i_glide_emodel_strain>  (1) 
0.92101969557548102

>  <r_i_glide_energy>  (1) 
-35.538011850745832

>  <r_i_glide_erotb>  (1) 
0.74142510397790429

>  <r_i_glide_esite>  (1) 
-0.0017829570069310598

>  <r_i_glide_evdw>  (1) 
-31.784060233313546

>  <r_i_glide_gscore>  (1) 
-4.5936045674472297

>  <r_i_glide_gscore_strain>  (1) 
0

>  <r_i_glide_hbond>  (1) 
-0.40930011272932959

>  <r_i_glide_ligand_efficiency>  (1) 
-0.12675529480286743

>  <r_i_glide_ligand_efficiency_ln>  (1) 
-0.93026080159207314

>  <r_i_glide_ligand_efficiency_sa>  (1) 
-0.40657195958893888

>  <r_i_glide_lipo>  (1) 
-1.6226307665478652

>  <r_i_glide_metal>  (1) 
-0

>  <r_i_glide_rewards>  (1) 
-1.1490200808604871

>  <r_lp_Energy>  (1) 
39.700505

>  <r_lp_tautomer_probability>  (1) 
0.5

>  <s_epik_Chemistry_Notes>  (1) 
This compound has an imine and may undergo hydrolysis. This compound contains an acetal/aminal-like group ( X-CH(R)-Y where X, Y are N, S, or O) that may be acid/base labile, releasing an aldehyde.

>  <s_epik_cmdline>  (1) 
J2VwaWtfcHl0aG9uJywgJy1waHQnLCAnMS4wJywgJy1waCcsICc3LjQnLCAnLXRuJywgJzgnLCAnLW1hJywgJzUwMCcsICctaW1hZScsICc8aW5maWxlLm1hZT4nLCAnLW9tYWUnLCAnPG91dGZpbGUubWFlPic=

>  <s_epik_input>  (1) 
W0NIMl0xW0NIMl1bQ0gyXVtDSDJdW0NASF0oRilbQ0BIXTFbQ0gyXVtDSDJdTy9bQ0hdPVtDSF0vTihbQ0BIXTJPW0NIMl1bQ0gyXVtPSF0pW0NIMl1bQ0gyXU4zW0NAQEhdMltDSDJdW0NAQEhdKFtDQEBIXTM0KVtDQEBIXTRjNW5jKG9uNSlbTkhdW0NIM10=

>  <s_glide_docking_method>  (1) 
confgen

>  <s_i_glide_gridfile>  (1) 
gpcr_drd2_6luq_protein_autoprepared_prepared

>  <s_lp_Force_Field>  (1) 
S-OPLS

>  <s_lp_Variant>  (1) 
DiffSBDD_0-9

>  <s_m_source_file>  (1) 
generated_generic_title2_ligand_DiffSBDD_2026-06-23_prepared.sdf

>  <GenAI_Model>  (1) 
DiffSBDD

>  <Protein>  (1) 
generic_title2

$$$$
DiffSBDD_39
     RDKit          3D

  0  0  0  0  0  0  0  0  0  0999 V3000
M  V30 BEGIN CTAB
M  V30 COUNTS 68 71 0 0 1
M  V30 BEGIN ATOM
M  V30 1 C 9.129530 7.448132 -11.408717 0
M  V30 2 F 12.010838 3.809928 -18.252159 0
M  V30 3 F 10.868751 5.192531 -19.463476 0
M  V30 4 C 12.160756 7.783894 -2.900473 0
M  V30 5 C 9.969295 7.831870 -8.966231 0
M  V30 6 C 10.029466 5.964245 -7.328294 0 CFG=1
M  V30 7 O 12.221001 8.700844 -1.825277 0
M  V30 8 C 11.031311 5.351969 -15.735044 0 CFG=2
M  V30 9 C 8.569812 4.654402 -10.748747 0
M  V30 10 C 11.052321 8.168022 -6.700056 0 CFG=2
M  V30 11 O 12.757830 6.790218 -14.632598 0
M  V30 12 C 8.015242 5.344903 -12.006032 0
M  V30 13 N 8.901474 6.434965 -12.483659 0 CFG=2 CHG=1
M  V30 14 C 12.583568 6.077643 -18.125311 0
M  V30 15 C 9.733824 6.826292 -10.125357 0 CFG=1
M  V30 16 C 10.138592 5.968361 -13.185039 0
M  V30 17 O 13.078265 6.076324 -16.784583 0
M  V30 18 C 9.611921 4.978920 -8.437262 0
M  V30 19 N 10.691781 7.204472 -7.807339 0 CFG=2 CHG=1
M  V30 20 C 11.812948 8.505167 -4.219081 0 CFG=1
M  V30 21 C 12.982977 9.365346 -4.699905 0
M  V30 22 C 9.874405 5.475005 -14.649122 0
M  V30 23 C 8.891694 5.641613 -9.620396 0 CFG=2
M  V30 24 C 12.125676 6.487567 -15.851756 0 CFG=1
M  V30 25 C 10.458269 5.165533 -17.147770 0
M  V30 26 C 12.664210 10.036133 -6.039341 0
M  V30 27 C 11.470200 5.027884 -18.284330 0
M  V30 28 O 9.245100 5.125354 -17.355977 0
M  V30 29 C 12.242490 9.038808 -7.130568 0
M  V30 30 O 8.939313 6.367600 -6.751780 0 CHG=-1
M  V30 31 C 11.375419 7.505685 -5.312060 0
M  V30 32 H 8.175381 7.921069 -11.185036 0
M  V30 33 H 9.771099 8.245472 -11.782733 0
M  V30 34 H 13.107580 7.248570 -2.982781 0
M  V30 35 H 11.400369 7.039597 -2.659334 0
M  V30 36 H 9.017889 8.239579 -8.619209 0
M  V30 37 H 10.537517 8.676532 -9.351076 0
M  V30 38 H 10.813394 5.446474 -6.785041 0
M  V30 39 H 12.897327 9.344196 -1.985960 0
M  V30 40 H 11.578221 4.425300 -15.585023 0
M  V30 41 H 7.794615 3.990227 -10.381298 0
M  V30 42 H 9.437860 4.041827 -10.989552 0
M  V30 43 H 10.187188 8.814435 -6.542227 0
M  V30 44 H 13.508350 7.330091 -14.829552 0
M  V30 45 H 7.041951 5.778892 -11.769846 0
M  V30 46 H 7.840383 4.612871 -12.794974 0
M  V30 47 H 13.404510 5.855370 -18.807498 0
M  V30 48 H 12.225914 7.073635 -18.398761 0
M  V30 49 H 10.701127 6.448609 -10.422348 0
M  V30 50 H 10.846920 6.790571 -13.173485 0
M  V30 51 H 10.575444 5.176142 -12.588128 0
M  V30 52 H 8.975609 4.205009 -8.003783 0
M  V30 53 H 10.495540 4.458786 -8.785024 0
M  V30 54 H 10.975437 9.179779 -4.036093 0
M  V30 55 H 13.214751 10.095852 -3.935326 0
M  V30 56 H 13.899661 8.792254 -4.785019 0
M  V30 57 H 9.479981 4.465093 -14.541774 0
M  V30 58 H 9.010580 5.990247 -15.060611 0
M  V30 59 H 7.933435 5.990224 -9.243068 0
M  V30 60 H 11.775355 7.438102 -16.235559 0
M  V30 61 H 11.876483 10.778259 -5.900168 0
M  V30 62 H 13.547543 10.569278 -6.385004 0
M  V30 63 H 11.988967 9.590226 -8.032378 0
M  V30 64 H 13.086555 8.406107 -7.402668 0
M  V30 65 H 12.123094 6.720022 -5.412572 0
M  V30 66 H 10.494922 7.001527 -4.915619 0
M  V30 67 H 8.373074 6.925342 -13.191661 0
M  V30 68 H 11.571126 6.877192 -8.173835 0
M  V30 END ATOM
M  V30 BEGIN BOND
M  V30 1 1 7 4
M  V30 2 1 12 9
M  V30 3 1 13 1
M  V30 4 1 13 12
M  V30 5 1 15 1
M  V30 6 1 15 5
M  V30 7 1 16 13
M  V30 8 1 17 14
M  V30 9 1 18 6
M  V30 10 1 19 5
M  V30 11 1 19 6
M  V30 12 1 19 10
M  V30 13 1 20 4
M  V30 14 1 21 20
M  V30 15 1 22 8
M  V30 16 1 22 16
M  V30 17 1 23 9
M  V30 18 1 23 15
M  V30 19 1 23 18
M  V30 20 1 24 8
M  V30 21 1 24 11
M  V30 22 1 24 17
M  V30 23 1 25 8
M  V30 24 1 26 21
M  V30 25 1 27 2
M  V30 26 1 27 3
M  V30 27 1 27 14
M  V30 28 1 27 25
M  V30 29 2 28 25
M  V30 30 1 29 10
M  V30 31 1 29 26
M  V30 32 1 30 6
M  V30 33 1 31 10
M  V30 34 1 31 20
M  V30 35 1 32 1
M  V30 36 1 33 1
M  V30 37 1 34 4
M  V30 38 1 35 4
M  V30 39 1 36 5
M  V30 40 1 37 5
M  V30 41 1 6 38 CFG=1
M  V30 42 1 39 7
M  V30 43 1 8 40 CFG=1
M  V30 44 1 41 9
M  V30 45 1 42 9
M  V30 46 1 10 43 CFG=1
M  V30 47 1 44 11
M  V30 48 1 45 12
M  V30 49 1 46 12
M  V30 50 1 47 14
M  V30 51 1 48 14
M  V30 52 1 15 49 CFG=3
M  V30 53 1 50 16
M  V30 54 1 51 16
M  V30 55 1 52 18
M  V30 56 1 53 18
M  V30 57 1 20 54 CFG=1
M  V30 58 1 55 21
M  V30 59 1 56 21
M  V30 60 1 57 22
M  V30 61 1 58 22
M  V30 62 1 23 59 CFG=1
M  V30 63 1 24 60 CFG=3
M  V30 64 1 61 26
M  V30 65 1 62 26
M  V30 66 1 63 29
M  V30 67 1 64 29
M  V30 68 1 65 31
M  V30 69 1 66 31
M  V30 70 1 13 67 CFG=3
M  V30 71 1 19 68 CFG=3
M  V30 END BOND
M  V30 END CTAB
M  END
>  <i_epik_Tot_Q>  (1) 
1

>  <i_epik_Tot_abs_Q>  (1) 
3

>  <i_i_glide_confnum>  (1) 
442

>  <i_i_glide_lignum>  (1) 
108

>  <i_i_glide_posenum>  (1) 
162

>  <i_i_glide_rotatable_bonds>  (1) 
7

>  <i_lp_mmshare_version>  (1) 
72125

>  <i_m_source_file_index>  (1) 
40

>  <i_f3d_flags>  (1) 
0

>  <num_sample>  (1) 
50

>  <b_lp_Chiralities_Consistent>  (1) 
1

>  <r_epik_Charging_Adjusted_Penalty>  (1) 
0.43569023002306473

>  <r_epik_Ionization_Penalty>  (1) 
0.17475065349743213

>  <r_epik_Ionization_Penalty_Charging>  (1) 
0.17468327186895813

>  <r_epik_Ionization_Penalty_Neutral>  (1) 
6.7381628474014066e-05

>  <r_epik_State_Penalty>  (1) 
0.26100695815410663

>  <r_glide_ring_energy>  (1) 
0

>  <r_i_docking_score>  (1) 
-4.1781469823257131

>  <r_i_glide_ecoul>  (1) 
-2.5176555061182695

>  <r_i_glide_eff_state_penalty>  (1) 
0.26100695815410663

>  <r_i_glide_einternal>  (1) 
11.496272694639018

>  <r_i_glide_emodel>  (1) 
-21.28634261668693

>  <r_i_glide_emodel_strain>  (1) 
5.049462999164561

>  <r_i_glide_energy>  (1) 
-24.651288170436192

>  <r_i_glide_erotb>  (1) 
0.49989103335302049

>  <r_i_glide_esite>  (1) 
0

>  <r_i_glide_evdw>  (1) 
-22.133632664317922

>  <r_i_glide_gscore>  (1) 
-4.4391539404798195

>  <r_i_glide_gscore_strain>  (1) 
0.26236574979114025

>  <r_i_glide_hbond>  (1) 
-0.14757227977451395

>  <r_i_glide_ligand_efficiency>  (1) 
-0.13477893491373269

>  <r_i_glide_ligand_efficiency_ln>  (1) 
-0.94230018934185444

>  <r_i_glide_ligand_efficiency_sa>  (1) 
-0.42339193848791873

>  <r_i_glide_lipo>  (1) 
-1.9940551620125555

>  <r_i_glide_metal>  (1) 
-0

>  <r_i_glide_rewards>  (1) 
-1.5754533227032743

>  <r_lp_Energy>  (1) 
51.063981999999996

>  <r_lp_tautomer_probability>  (1) 
0.99995000000000001

>  <s_epik_Chemistry_Notes>  (1) 
This compound contains an acetal/aminal-like group ( X-CH(R)-Y where X, Y are N, S, or O) that may be acid/base labile, releasing an aldehyde.

>  <s_epik_cmdline>  (1) 
J2VwaWtfcHl0aG9uJywgJy1waHQnLCAnMS4wJywgJy1waCcsICc3LjQnLCAnLXRuJywgJzgnLCAnLW1hJywgJzUwMCcsICctaW1hZScsICc8aW5maWxlLm1hZT4nLCAnLW9tYWUnLCAnPG91dGZpbGUubWFlPic=

>  <s_epik_input>  (1) 
RkMxKEYpW0NIMl1PW0NASF0oW09IXSlbQ0BIXShDMT1PKVtDSDJdW0NIMl1OKFtDSDJdMilbQ0gyXVtDSDJdW0NASF0oW0NAQEhdMjMpW0NIMl1bQ0BIXShbT0hdKU4oW0NIMl0zKVtDQEBIXTRbQ0gyXVtDSDJdW0NIMl1bQ0BASF0oW0NIMl00KVtDSDJdW09IXQ==

>  <s_glide_docking_method>  (1) 
confgen

>  <s_i_glide_gridfile>  (1) 
gpcr_drd2_6luq_protein_autoprepared_prepared

>  <s_lp_Force_Field>  (1) 
S-OPLS

>  <s_lp_Variant>  (1) 
DiffSBDD_39-4

>  <s_m_source_file>  (1) 
generated_generic_title2_ligand_DiffSBDD_2026-06-23_prepared.sdf

>  <GenAI_Model>  (1) 
DiffSBDD

>  <Protein>  (1) 
generic_title2

$$$$
DiffSBDD_44
     RDKit          3D

  0  0  0  0  0  0  0  0  0  0999 V3000
M  V30 BEGIN CTAB
M  V30 COUNTS 61 63 0 0 1
M  V30 BEGIN ATOM
M  V30 1 C 5.514214 0.724049 -19.459944 0
M  V30 2 C 7.772326 4.476899 -14.297301 0
M  V30 3 O 7.486628 0.542424 -21.854833 0
M  V30 4 O 4.504679 1.186979 -19.985019 0
M  V30 5 O 7.582309 1.721832 -13.713482 0
M  V30 6 C 6.903409 0.982001 -17.128530 0 CFG=2
M  V30 7 C 7.871204 0.540178 -20.495735 0
M  V30 8 C 8.707133 6.519249 -11.122264 0
M  V30 9 C 9.361238 3.404793 -17.203745 0
M  V30 10 C 6.433840 -0.459047 -17.404990 0
M  V30 11 C 7.068768 4.510977 -17.221958 0
M  V30 12 C 5.393642 4.937882 -20.513606 0
M  V30 13 O 7.521522 1.505696 -18.320608 0
M  V30 14 C 6.148687 4.041046 -19.515007 0 CFG=1
M  V30 15 C 5.463306 -0.548658 -18.598451 0 CFG=1
M  V30 16 N 7.775412 5.190244 -9.263139 0 CHG=1
M  V30 17 F 9.520915 8.420731 -9.957168 0
M  V30 18 C 7.712367 5.841678 -14.568161 0
M  V30 19 S 7.829228 4.235328 -12.539913 0
M  V30 20 O 4.175426 -0.771349 -18.089318 0
M  V30 21 C 8.975412 7.844398 -11.041757 0
M  V30 22 C 6.809164 2.841557 -20.265685 0 CFG=1
M  V30 23 C 8.015245 3.799567 -16.583968 0
M  V30 24 C 9.009455 5.564612 -9.969899 0
M  V30 25 C 8.113811 5.934172 -12.341342 0
M  V30 26 N 7.775427 6.631536 -13.415434 0
M  V30 27 C 7.133597 4.915697 -18.672059 0
M  V30 28 F 8.729749 8.722641 -12.029368 0
M  V30 29 C 7.775649 2.100801 -14.866807 0
M  V30 30 C 7.938668 1.031066 -15.982539 0
M  V30 31 O 8.091350 -0.782347 -20.053761 0
M  V30 32 F 8.000481 3.240260 -20.721106 0
M  V30 33 N 7.860483 3.442847 -15.225533 0
M  V30 34 C 6.893282 1.405138 -19.610980 0 CFG=2
M  V30 35 H 8.255537 0.385416 -22.381970 0
M  V30 36 H 6.035822 1.590367 -16.867773 0
M  V30 37 H 8.857033 1.005642 -20.453368 0
M  V30 38 H 9.312234 2.869590 -18.146003 0
M  V30 39 H 10.004224 2.867667 -16.512807 0
M  V30 40 H 9.899097 4.325963 -17.427707 0
M  V30 41 H 7.301809 -1.090432 -17.596167 0
M  V30 42 H 5.975289 -0.877103 -16.505945 0
M  V30 43 H 6.175431 4.790227 -16.692948 0
M  V30 44 H 6.074986 5.385884 -21.238343 0
M  V30 45 H 4.869031 5.744637 -20.000107 0
M  V30 46 H 4.642066 4.370608 -21.064318 0
M  V30 47 H 5.376239 3.637896 -18.858451 0
M  V30 48 H 5.710677 -1.406383 -19.222477 0
M  V30 49 H 7.978362 4.674490 -8.420145 0
M  V30 50 H 7.155869 4.660372 -9.858213 0
M  V30 51 H 7.677275 6.326086 -15.531281 0
M  V30 52 H 3.542997 -0.683215 -18.789446 0
M  V30 53 H 6.245228 2.702422 -21.189796 0
M  V30 54 H 9.548963 4.681200 -10.313305 0
M  V30 55 H 9.655438 6.057521 -9.243053 0
M  V30 56 H 8.152854 4.890431 -19.054364 0
M  V30 57 H 6.842478 5.965821 -18.705861 0
M  V30 58 H 7.867057 0.082957 -15.446660 0
M  V30 59 H 8.953756 0.993624 -16.369623 0
M  V30 60 H 7.309932 -1.288557 -20.212152 0
M  V30 61 H 7.325208 6.077488 -9.023194 0
M  V30 END ATOM
M  V30 BEGIN BOND
M  V30 1 2 4 1
M  V30 2 1 7 3
M  V30 3 1 10 6
M  V30 4 1 13 6
M  V30 5 1 14 12
M  V30 6 1 15 1
M  V30 7 1 15 10
M  V30 8 2 18 2
M  V30 9 1 19 2
M  V30 10 1 20 15
M  V30 11 2 21 8
M  V30 12 1 21 17
M  V30 13 1 22 14
M  V30 14 1 23 9
M  V30 15 2 23 11
M  V30 16 1 24 8
M  V30 17 1 24 16
M  V30 18 1 25 8
M  V30 19 1 25 19
M  V30 20 1 26 18
M  V30 21 2 26 25
M  V30 22 1 27 11
M  V30 23 1 27 14
M  V30 24 1 28 21
M  V30 25 2 29 5
M  V30 26 1 30 6
M  V30 27 1 30 29
M  V30 28 1 31 7
M  V30 29 1 32 22
M  V30 30 1 33 2
M  V30 31 1 33 23
M  V30 32 1 33 29
M  V30 33 1 34 1
M  V30 34 1 34 7 CFG=3
M  V30 35 1 34 13
M  V30 36 1 34 22
M  V30 37 1 35 3
M  V30 38 1 6 36 CFG=1
M  V30 39 1 37 7
M  V30 40 1 38 9
M  V30 41 1 39 9
M  V30 42 1 40 9
M  V30 43 1 41 10
M  V30 44 1 42 10
M  V30 45 1 43 11
M  V30 46 1 44 12
M  V30 47 1 45 12
M  V30 48 1 46 12
M  V30 49 1 14 47 CFG=1
M  V30 50 1 15 48 CFG=3
M  V30 51 1 49 16
M  V30 52 1 50 16
M  V30 53 1 51 18
M  V30 54 1 52 20
M  V30 55 1 22 53 CFG=3
M  V30 56 1 54 24
M  V30 57 1 55 24
M  V30 58 1 56 27
M  V30 59 1 57 27
M  V30 60 1 58 30
M  V30 61 1 59 30
M  V30 62 1 60 31
M  V30 63 1 61 16
M  V30 END BOND
M  V30 END CTAB
M  END
>  <i_epik_Tot_Q>  (1) 
1

>  <i_epik_Tot_abs_Q>  (1) 
1

>  <i_i_glide_confnum>  (1) 
4

>  <i_i_glide_lignum>  (1) 
121

>  <i_i_glide_posenum>  (1) 
271

>  <i_i_glide_rotatable_bonds>  (1) 
7

>  <i_lp_mmshare_version>  (1) 
72125

>  <i_m_source_file_index>  (1) 
45

>  <i_f3d_flags>  (1) 
0

>  <num_sample>  (1) 
50

>  <b_lp_Chiralities_Consistent>  (1) 
1

>  <r_epik_Charging_Adjusted_Penalty>  (1) 
1.7853739982533117

>  <r_epik_Ionization_Penalty>  (1) 
0.89286729103917917

>  <r_epik_Ionization_Penalty_Charging>  (1) 
0.89268699912665583

>  <r_epik_Ionization_Penalty_Neutral>  (1) 
0.00018029191252335439

>  <r_epik_State_Penalty>  (1) 
0.89268699912665583

>  <r_glide_ring_energy>  (1) 
0

>  <r_i_docking_score>  (1) 
-4.1776933727343577

>  <r_i_glide_ecoul>  (1) 
-5.6453324041062247

>  <r_i_glide_eff_state_penalty>  (1) 
0.89268699912665583

>  <r_i_glide_einternal>  (1) 
5.6133194911159183

>  <r_i_glide_emodel>  (1) 
-44.394286352499982

>  <r_i_glide_emodel_strain>  (1) 
4.9998592375844311

>  <r_i_glide_energy>  (1) 
-38.515346950525476

>  <r_i_glide_erotb>  (1) 
0.22329266705310716

>  <r_i_glide_esite>  (1) 
-0.25740131820758183

>  <r_i_glide_evdw>  (1) 
-32.870014546419249

>  <r_i_glide_gscore>  (1) 
-5.0703803718610132

>  <r_i_glide_gscore_strain>  (1) 
0.24996480939610777

>  <r_i_glide_hbond>  (1) 
-0.31441371373297616

>  <r_i_glide_ligand_efficiency>  (1) 
-0.12287333449218699

>  <r_i_glide_ligand_efficiency_ln>  (1) 
-0.92296964636696255

>  <r_i_glide_ligand_efficiency_sa>  (1) 
-0.39806190448320466

>  <r_i_glide_lipo>  (1) 
-1.2289670195441968

>  <r_i_glide_metal>  (1) 
-0

>  <r_i_glide_rewards>  (1) 
-1.252555208888577

>  <r_lp_Energy>  (1) 
47.678134

>  <s_epik_Chemistry_Notes>  (1) 
This compound contains an acetal/aminal-like group ( X-CH(R)-Y where X, Y are N, S, or O) that may be acid/base labile, releasing an aldehyde.

>  <s_epik_cmdline>  (1) 
J2VwaWtfcHl0aG9uJywgJy1waHQnLCAnMS4wJywgJy1waCcsICc3LjQnLCAnLXRuJywgJzgnLCAnLW1hJywgJzUwMCcsICctaW1hZScsICc8aW5maWxlLm1hZT4nLCAnLW9tYWUnLCAnPG91dGZpbGUubWFlPic=

>  <s_epik_input>  (1) 
W09IXVtDSF0oW09IXSlbQ0BAXTEyQyg9TylbQ0BIXShbT0hdKVtDSDJdW0NASF0oTzEpW0NIMl1DKD1PKU4oQyhcW0NIM10pPVtDSF1cW0NIMl1bQ0BASF0oW0NIM10pW0NASF0yRiljM1tjSF1uYyhzMylDKD1DKEYpRilbQ0gyXVtOSDJd

>  <s_glide_docking_method>  (1) 
confgen

>  <s_i_glide_gridfile>  (1) 
gpcr_drd2_6luq_protein_autoprepared_prepared

>  <s_lp_Force_Field>  (1) 
S-OPLS

>  <s_lp_Variant>  (1) 
DiffSBDD_44-2

>  <s_m_source_file>  (1) 
generated_generic_title2_ligand_DiffSBDD_2026-06-23_prepared.sdf

>  <GenAI_Model>  (1) 
DiffSBDD

>  <Protein>  (1) 
generic_title2

$$$$
DiffSBDD_0
     RDKit          3D

  0  0  0  0  0  0  0  0  0  0999 V3000
M  V30 BEGIN CTAB
M  V30 COUNTS 70 74 0 0 1
M  V30 BEGIN ATOM
M  V30 1 C 10.950697 7.726845 -5.991918 0
M  V30 2 N 7.817119 3.913282 -13.967087 0
M  V30 3 C 7.502248 5.001829 -18.046532 0 CFG=1
M  V30 4 C 9.546741 4.617336 -12.356378 0
M  V30 5 F 9.227514 5.706628 -7.185026 0
M  V30 6 C 7.222766 5.234337 -14.207491 0
M  V30 7 C 10.969076 8.713906 -7.164362 0
M  V30 8 C 9.906582 6.719438 -11.352785 0
M  V30 9 C 10.499037 6.817068 -8.804934 0 CFG=1
M  V30 10 C 10.105804 4.539816 -18.194418 0
M  V30 11 C 7.398952 2.886183 -14.927302 0 CFG=1
M  V30 12 C 6.140635 0.585097 -13.358443 0
M  V30 13 C 8.751739 4.602925 -18.836368 0 CFG=1
M  V30 14 O 9.206813 5.944428 -12.327661 0
M  V30 15 C 10.483042 5.849478 -7.609118 0 CFG=1
M  V30 16 C 7.623963 3.606042 -18.618966 0 CFG=1
M  V30 17 N 7.375391 4.712004 -16.594308 0 CFG=1 CHG=1
M  V30 18 C 9.606677 6.233620 -9.917578 0
M  V30 19 C 6.961256 0.565899 -14.657744 0
M  V30 20 C 7.942189 3.388455 -16.275247 0 CFG=2
M  V30 21 O 4.885499 -0.009772 -13.593352 0
M  V30 22 C 10.093515 8.233995 -8.343155 0
M  V30 23 N 10.897654 3.428452 -18.240099 0
M  V30 24 C 7.668731 5.758980 -15.590642 0
M  V30 25 N 10.610384 5.590223 -17.547483 0
M  V30 26 O 11.858603 5.139611 -17.090377 0
M  V30 27 C 11.931407 3.873936 -17.545176 0
M  V30 28 O 7.921661 1.613762 -14.683814 0
M  V30 29 N 13.095295 3.201697 -17.209752 0
M  V30 30 C 8.902852 3.697253 -13.104988 0
M  V30 31 C 11.368087 6.328168 -6.452272 0
M  V30 32 C 14.255881 3.618583 -16.444300 0
M  V30 33 C 7.610684 2.561832 -17.512571 0
M  V30 34 H 11.607203 8.074574 -5.193969 0
M  V30 35 H 9.944860 7.685419 -5.571907 0
M  V30 36 H 6.754290 5.675709 -18.459978 0
M  V30 37 H 10.385228 4.390227 -11.719262 0
M  V30 38 H 6.141208 5.093051 -14.224160 0
M  V30 39 H 7.359006 5.972573 -13.426965 0
M  V30 40 H 11.994276 8.866596 -7.504232 0
M  V30 41 H 10.617177 9.667923 -6.785025 0
M  V30 42 H 10.975384 6.690803 -11.569641 0
M  V30 43 H 9.600958 7.760768 -11.458380 0
M  V30 44 H 11.522508 6.860687 -9.177746 0
M  V30 45 H 6.309219 2.863941 -14.914416 0
M  V30 46 H 5.956116 1.604544 -13.020672 0
M  V30 47 H 6.665518 0.073568 -12.550980 0
M  V30 48 H 8.850986 5.019413 -19.836736 0
M  V30 49 H 10.810314 4.864742 -7.942229 0
M  V30 50 H 7.035159 3.356918 -19.499686 0
M  V30 51 H 8.560023 6.390227 -9.681676 0
M  V30 52 H 9.716694 5.152759 -9.870564 0
M  V30 53 H 7.477585 -0.390706 -14.747031 0
M  V30 54 H 6.316157 0.646369 -15.534462 0
M  V30 55 H 9.022388 3.463121 -16.163411 0
M  V30 56 H 4.975411 -0.970673 -13.585025 0
M  V30 57 H 10.167541 8.935230 -9.174803 0
M  V30 58 H 9.045578 8.234309 -8.036822 0
M  V30 59 H 7.125355 6.671807 -15.835977 0
M  V30 60 H 8.733700 5.990225 -15.585045 0
M  V30 61 H 13.143273 2.250533 -17.543263 0
M  V30 62 H 9.221000 2.666733 -13.080107 0
M  V30 63 H 12.403284 6.337478 -6.785025 0
M  V30 64 H 11.319880 5.630051 -5.617355 0
M  V30 65 H 14.802553 2.748287 -16.080523 0
M  V30 66 H 14.924125 4.217645 -17.063106 0
M  V30 67 H 13.953821 4.218055 -15.585039 0
M  V30 68 H 6.614655 2.121887 -17.448678 0
M  V30 69 H 8.335389 1.768365 -17.699157 0
M  V30 70 H 6.382245 4.568465 -16.487717 0
M  V30 END ATOM
M  V30 BEGIN BOND
M  V30 1 1 6 2
M  V30 2 1 7 1
M  V30 3 1 11 2
M  V30 4 1 13 3
M  V30 5 1 13 10
M  V30 6 1 14 4
M  V30 7 1 14 8
M  V30 8 1 15 5
M  V30 9 1 15 9
M  V30 10 1 16 3
M  V30 11 1 16 13
M  V30 12 1 17 3
M  V30 13 1 18 8
M  V30 14 1 18 9
M  V30 15 1 19 12
M  V30 16 1 20 11
M  V30 17 1 20 17
M  V30 18 1 21 12
M  V30 19 1 22 7
M  V30 20 1 22 9
M  V30 21 1 23 10
M  V30 22 1 24 6
M  V30 23 1 24 17
M  V30 24 2 25 10
M  V30 25 1 26 25
M  V30 26 2 27 23
M  V30 27 1 27 26
M  V30 28 1 28 11
M  V30 29 1 28 19
M  V30 30 1 29 27
M  V30 31 1 30 2
M  V30 32 2 30 4
M  V30 33 1 31 1
M  V30 34 1 31 15
M  V30 35 1 32 29
M  V30 36 1 33 16
M  V30 37 1 33 20
M  V30 38 1 34 1
M  V30 39 1 35 1
M  V30 40 1 3 36 CFG=3
M  V30 41 1 37 4
M  V30 42 1 38 6
M  V30 43 1 39 6
M  V30 44 1 40 7
M  V30 45 1 41 7
M  V30 46 1 42 8
M  V30 47 1 43 8
M  V30 48 1 9 44 CFG=3
M  V30 49 1 11 45 CFG=3
M  V30 50 1 46 12
M  V30 51 1 47 12
M  V30 52 1 13 48 CFG=3
M  V30 53 1 15 49 CFG=3
M  V30 54 1 16 50 CFG=3
M  V30 55 1 51 18
M  V30 56 1 52 18
M  V30 57 1 53 19
M  V30 58 1 54 19
M  V30 59 1 20 55 CFG=1
M  V30 60 1 56 21
M  V30 61 1 57 22
M  V30 62 1 58 22
M  V30 63 1 59 24
M  V30 64 1 60 24
M  V30 65 1 61 29
M  V30 66 1 62 30
M  V30 67 1 63 31
M  V30 68 1 64 31
M  V30 69 1 65 32
M  V30 70 1 66 32
M  V30 71 1 67 32
M  V30 72 1 68 33
M  V30 73 1 69 33
M  V30 74 1 17 70 CFG=3
M  V30 END BOND
M  V30 END CTAB
M  END
>  <i_epik_Tot_Q>  (1) 
1

>  <i_epik_Tot_abs_Q>  (1) 
1

>  <i_i_glide_confnum>  (1) 
761

>  <i_i_glide_lignum>  (1) 
16

>  <i_i_glide_posenum>  (1) 
137

>  <i_i_glide_rotatable_bonds>  (1) 
11

>  <i_lp_mmshare_version>  (1) 
72125

>  <i_m_source_file_index>  (1) 
1

>  <i_f3d_flags>  (1) 
0

>  <num_sample>  (1) 
50

>  <b_lp_Chiralities_Consistent>  (1) 
1

>  <r_epik_Charging_Adjusted_Penalty>  (1) 
0.41344222577729461

>  <r_epik_Ionization_Penalty>  (1) 
0.0027644559619576371

>  <r_epik_Ionization_Penalty_Charging>  (1) 
0.0027623868246906495

>  <r_epik_Ionization_Penalty_Neutral>  (1) 
2.0691372669875143e-06

>  <r_epik_State_Penalty>  (1) 
0.41067983895260396

>  <r_glide_ring_energy>  (1) 
0

>  <r_i_docking_score>  (1) 
-4.1714822535781586

>  <r_i_glide_ecoul>  (1) 
-4.1767766041963474

>  <r_i_glide_eff_state_penalty>  (1) 
0.41067983895260396

>  <r_i_glide_einternal>  (1) 
8.1430535671259658

>  <r_i_glide_emodel>  (1) 
-40.437554976381556

>  <r_i_glide_emodel_strain>  (1) 
1.4551425577269015

>  <r_i_glide_energy>  (1) 
-34.823070654505251

>  <r_i_glide_erotb>  (1) 
0.74142510397790429

>  <r_i_glide_esite>  (1) 
-0.043965106759872218

>  <r_i_glide_evdw>  (1) 
-30.646294050308907

>  <r_i_glide_gscore>  (1) 
-4.5821620925307629

>  <r_i_glide_gscore_strain>  (1) 
0

>  <r_i_glide_hbond>  (1) 
-0.16

>  <r_i_glide_ligand_efficiency>  (1) 
-0.12640855313873209

>  <r_i_glide_ligand_efficiency_ln>  (1) 
-0.9277160544166152

>  <r_i_glide_ligand_efficiency_sa>  (1) 
-0.40545977379758485

>  <r_i_glide_lipo>  (1) 
-1.9524165502424216

>  <r_i_glide_metal>  (1) 
-0

>  <r_i_glide_rewards>  (1) 
-1.0083743463614754

>  <r_lp_Energy>  (1) 
50.173428000000001

>  <r_lp_tautomer_probability>  (1) 
0.5

>  <s_epik_Chemistry_Notes>  (1) 
This compound has an imine and may undergo hydrolysis. This compound contains an acetal/aminal-like group ( X-CH(R)-Y where X, Y are N, S, or O) that may be acid/base labile, releasing an aldehyde.

>  <s_epik_cmdline>  (1) 
J2VwaWtfcHl0aG9uJywgJy1waHQnLCAnMS4wJywgJy1waCcsICc3LjQnLCAnLXRuJywgJzgnLCAnLW1hJywgJzUwMCcsICctaW1hZScsICc8aW5maWxlLm1hZT4nLCAnLW9tYWUnLCAnPG91dGZpbGUubWFlPic=

>  <s_epik_input>  (1) 
W0NIMl0xW0NIMl1bQ0gyXVtDSDJdW0NASF0oRilbQ0BIXTFbQ0gyXVtDSDJdTy9bQ0hdPVtDSF1cTihbQ0BIXTJPW0NIMl1bQ0gyXVtPSF0pW0NIMl1bQ0gyXU4zW0NAQEhdMltDSDJdW0NAQEhdKFtDQEBIXTM0KVtDQEBIXTRjNW5jKG9uNSlbTkhdW0NIM10=

>  <s_glide_docking_method>  (1) 
confgen

>  <s_i_glide_gridfile>  (1) 
gpcr_drd2_6luq_protein_autoprepared_prepared

>  <s_lp_Force_Field>  (1) 
S-OPLS

>  <s_lp_Variant>  (1) 
DiffSBDD_0-16

>  <s_m_source_file>  (1) 
generated_generic_title2_ligand_DiffSBDD_2026-06-23_prepared.sdf

>  <GenAI_Model>  (1) 
DiffSBDD

>  <Protein>  (1) 
generic_title2

$$$$
DiffSBDD_14
     RDKit          3D

  0  0  0  0  0  0  0  0  0  0999 V3000
M  V30 BEGIN CTAB
M  V30 COUNTS 71 74 0 0 1
M  V30 BEGIN ATOM
M  V30 1 C 5.445313 6.431052 -12.474504 0
M  V30 2 O 6.175981 7.201907 -16.263158 0
M  V30 3 C 6.147288 5.776123 -18.057830 0 CFG=2
M  V30 4 O 8.623162 5.413372 -16.559396 0
M  V30 5 C 10.427018 8.787204 -9.771996 0
M  V30 6 C 9.800812 6.389224 -9.137267 0
M  V30 7 N 8.236878 5.134999 -10.449369 0
M  V30 8 C 10.599203 7.638589 -8.773548 0 CFG=2
M  V30 9 C 11.616816 6.893195 -4.235743 0
M  V30 10 C 5.158355 7.748712 -17.088332 0
M  V30 11 C 12.276269 9.013440 -2.086375 0
M  V30 12 C 11.453418 7.974314 -4.942616 0
M  V30 13 C 11.687115 6.164401 -6.293837 0
M  V30 14 C 11.511315 7.732961 -6.410983 0 CFG=1
M  V30 15 C 7.447674 4.905368 -14.447692 0
M  V30 16 C 12.326229 7.689853 -1.952071 0
M  V30 17 C 8.641465 5.226250 -17.972862 0
M  V30 18 C 10.348252 8.134839 -7.311994 0 CFG=2
M  V30 19 C 6.199948 5.814306 -16.534241 0 CFG=1
M  V30 20 C 7.544333 6.074835 -18.639899 0
M  V30 21 O 6.652301 3.992286 -11.587483 0
M  V30 22 C 7.279048 5.037280 -11.407502 0
M  V30 23 O 11.775469 5.769185 -4.914893 0
M  V30 24 C 5.134256 6.876113 -18.352204 0
M  V30 25 C 11.243122 9.315671 -4.385496 0
M  V30 26 C 11.597773 6.712633 -2.771557 0
M  V30 27 C 8.974309 7.830588 -6.707076 0
M  V30 28 C 8.968140 6.300498 -10.180878 0
M  V30 29 C 7.695734 6.211396 -13.655121 0
M  V30 30 C 6.964998 6.281360 -12.290894 0 CFG=1
M  V30 31 C 11.583664 9.758066 -3.139771 0
M  V30 32 C 7.390793 5.004540 -15.978042 0 CFG=1
M  V30 33 H 4.973373 6.575758 -11.502057 0
M  V30 34 H 5.218051 7.310436 -13.077382 0
M  V30 35 H 4.975422 5.570606 -12.951457 0
M  V30 36 H 5.802438 4.802825 -18.410273 0
M  V30 37 H 10.654193 8.456248 -10.785411 0
M  V30 38 H 9.407535 9.177212 -9.752228 0
M  V30 39 H 11.112046 9.603937 -9.545320 0
M  V30 40 H 9.922512 5.534214 -8.495895 0
M  V30 41 H 8.418438 4.335611 -9.862152 0
M  V30 42 H 11.643550 7.337337 -8.867937 0
M  V30 43 H 5.375313 8.789203 -17.305967 0
M  V30 44 H 4.201240 7.703728 -16.566379 0
M  V30 45 H 12.804953 9.587369 -1.350542 0
M  V30 46 H 12.578482 5.809689 -6.785026 0
M  V30 47 H 10.844185 5.613348 -6.691976 0
M  V30 48 H 12.413305 8.206481 -6.799870 0
M  V30 49 H 8.207068 4.174712 -14.165391 0
M  V30 50 H 6.501484 4.459369 -14.146866 0
M  V30 51 H 12.901468 7.278262 -1.148075 0
M  V30 52 H 9.619940 5.522788 -18.350679 0
M  V30 53 H 8.519680 4.169597 -18.216507 0
M  V30 54 H 10.409089 9.211254 -7.321097 0
M  V30 55 H 5.278056 5.442759 -16.097458 0
M  V30 56 H 7.787276 7.124086 -18.484876 0
M  V30 57 H 7.546407 5.913040 -19.718128 0
M  V30 58 H 5.379746 7.441832 -19.251449 0
M  V30 59 H 4.138951 6.452514 -18.488849 0
M  V30 60 H 10.796775 10.045262 -5.045431 0
M  V30 61 H 10.585449 6.576151 -2.390649 0
M  V30 62 H 12.081566 5.755075 -2.576875 0
M  V30 63 H 8.697136 6.778082 -6.755398 0
M  V30 64 H 8.956894 8.118485 -5.662191 0
M  V30 65 H 8.199040 8.420263 -7.187449 0
M  V30 66 H 8.805182 7.107231 -10.860594 0
M  V30 67 H 7.411342 7.085085 -14.236022 0
M  V30 68 H 8.768128 6.323191 -13.496694 0
M  V30 69 H 7.179702 7.235831 -11.825628 0
M  V30 70 H 11.373962 10.789694 -2.925646 0
M  V30 71 H 7.230820 3.974689 -16.304378 0
M  V30 END ATOM
M  V30 BEGIN BOND
M  V30 1 1 8 5
M  V30 2 1 8 6
M  V30 3 1 10 2
M  V30 4 2 12 9
M  V30 5 1 14 12
M  V30 6 1 14 13
M  V30 7 2 16 11
M  V30 8 1 17 4
M  V30 9 1 18 8
M  V30 10 1 18 14
M  V30 11 1 19 2
M  V30 12 1 19 3
M  V30 13 1 20 3
M  V30 14 1 20 17
M  V30 15 1 22 7
M  V30 16 2 22 21
M  V30 17 1 23 9
M  V30 18 1 23 13
M  V30 19 1 24 3
M  V30 20 1 24 10
M  V30 21 1 25 12
M  V30 22 1 26 9
M  V30 23 1 26 16
M  V30 24 1 27 18
M  V30 25 2 28 6
M  V30 26 1 28 7
M  V30 27 1 29 15
M  V30 28 1 30 1
M  V30 29 1 30 22
M  V30 30 1 30 29
M  V30 31 1 31 11
M  V30 32 2 31 25
M  V30 33 1 32 4
M  V30 34 1 32 15
M  V30 35 1 32 19
M  V30 36 1 33 1
M  V30 37 1 34 1
M  V30 38 1 35 1
M  V30 39 1 3 36 CFG=1
M  V30 40 1 37 5
M  V30 41 1 38 5
M  V30 42 1 39 5
M  V30 43 1 40 6
M  V30 44 1 41 7
M  V30 45 1 8 42 CFG=1
M  V30 46 1 43 10
M  V30 47 1 44 10
M  V30 48 1 45 11
M  V30 49 1 46 13
M  V30 50 1 47 13
M  V30 51 1 14 48 CFG=3
M  V30 52 1 49 15
M  V30 53 1 50 15
M  V30 54 1 51 16
M  V30 55 1 52 17
M  V30 56 1 53 17
M  V30 57 1 18 54 CFG=3
M  V30 58 1 19 55 CFG=1
M  V30 59 1 56 20
M  V30 60 1 57 20
M  V30 61 1 58 24
M  V30 62 1 59 24
M  V30 63 1 60 25
M  V30 64 1 61 26
M  V30 65 1 62 26
M  V30 66 1 63 27
M  V30 67 1 64 27
M  V30 68 1 65 27
M  V30 69 1 66 28
M  V30 70 1 67 29
M  V30 71 1 68 29
M  V30 72 1 30 69 CFG=1
M  V30 73 1 70 31
M  V30 74 1 32 71 CFG=3
M  V30 END BOND
M  V30 END CTAB
M  END
>  <i_epik_Tot_Q>  (1) 
0

>  <i_epik_Tot_abs_Q>  (1) 
0

>  <i_i_glide_confnum>  (1) 
298

>  <i_i_glide_lignum>  (1) 
52

>  <i_i_glide_posenum>  (1) 
162

>  <i_i_glide_rotatable_bonds>  (1) 
9

>  <i_lp_mmshare_version>  (1) 
72125

>  <i_m_source_file_index>  (1) 
15

>  <i_f3d_flags>  (1) 
0

>  <num_sample>  (1) 
50

>  <b_lp_Chiralities_Consistent>  (1) 
1

>  <r_epik_Charging_Adjusted_Penalty>  (1) 
0

>  <r_epik_Ionization_Penalty>  (1) 
2.2973717276536928e-08

>  <r_epik_Ionization_Penalty_Charging>  (1) 
0

>  <r_epik_Ionization_Penalty_Neutral>  (1) 
2.2973717276536928e-08

>  <r_epik_State_Penalty>  (1) 
-0

>  <r_glide_ring_energy>  (1) 
0

>  <r_i_docking_score>  (1) 
-4.1656510039262598

>  <r_i_glide_ecoul>  (1) 
-0.50966416566429851

>  <r_i_glide_eff_state_penalty>  (1) 
-0

>  <r_i_glide_einternal>  (1) 
14.532460195722431

>  <r_i_glide_emodel>  (1) 
-25.813041437438006

>  <r_i_glide_emodel_strain>  (1) 
1.4251041559690236

>  <r_i_glide_energy>  (1) 
-28.469287299072416

>  <r_i_glide_erotb>  (1) 
0.7170138056727231

>  <r_i_glide_esite>  (1) 
-0.10341113170297966

>  <r_i_glide_evdw>  (1) 
-27.959623133408119

>  <r_i_glide_gscore>  (1) 
-4.1656510039262598

>  <r_i_glide_gscore_strain>  (1) 
0

>  <r_i_glide_hbond>  (1) 
0

>  <r_i_glide_ligand_efficiency>  (1) 
-0.13017659387269562

>  <r_i_glide_ligand_efficiency_ln>  (1) 
-0.93280281113683117

>  <r_i_glide_ligand_efficiency_sa>  (1) 
-0.41328492411030826

>  <r_i_glide_lipo>  (1) 
-3.4422131166322267

>  <r_i_glide_metal>  (1) 
-0

>  <r_i_glide_rewards>  (1) 
0.13739022025627445

>  <r_lp_Energy>  (1) 
21.48593

>  <r_lp_tautomer_probability>  (1) 
1

>  <s_epik_cmdline>  (1) 
J2VwaWtfcHl0aG9uJywgJy1waHQnLCAnMS4wJywgJy1waCcsICc3LjQnLCAnLXRuJywgJzgnLCAnLW1hJywgJzUwMCcsICctaW1hZScsICc8aW5maWxlLm1hZT4nLCAnLW9tYWUnLCAnPG91dGZpbGUubWFlPic=

>  <s_epik_input>  (1) 
W0NIMl0xW0NIMl1PW0NAQEhdKFtDQEBIXTEyKVtDQEBIXShPW0NIMl1bQ0gyXTIpW0NIMl1bQ0gyXVtDQEBIXShbQ0gzXSlDKD1PKVtOSF1cW0NIXT1bQ0hdXFtDQEBIXShbQ0gzXSlbQ0BASF0oW0NIM10pW0NASF0oW0NIMl1PMylDKD1DMzQpW0NIXT1bQ0hdW0NIXT1bQ0hdW0NIMl00

>  <s_glide_docking_method>  (1) 
confgen

>  <s_i_glide_gridfile>  (1) 
gpcr_drd2_6luq_protein_autoprepared_prepared

>  <s_lp_Force_Field>  (1) 
S-OPLS

>  <s_lp_Variant>  (1) 
DiffSBDD_14-1

>  <s_m_source_file>  (1) 
generated_generic_title2_ligand_DiffSBDD_2026-06-23_prepared.sdf

>  <GenAI_Model>  (1) 
DiffSBDD

>  <Protein>  (1) 
generic_title2

$$$$
DiffSBDD_39
     RDKit          3D

  0  0  0  0  0  0  0  0  0  0999 V3000
M  V30 BEGIN CTAB
M  V30 COUNTS 68 71 0 0 1
M  V30 BEGIN ATOM
M  V30 1 C 8.460449 2.711063 -13.235141 0
M  V30 2 F 6.732186 0.577424 -19.953116 0
M  V30 3 F 7.688642 1.906440 -18.539829 0
M  V30 4 C 11.192522 8.159636 -7.445494 0
M  V30 5 C 9.376511 4.939788 -12.405519 0
M  V30 6 C 7.883592 6.798709 -11.843914 0 CFG=1
M  V30 7 O 12.423081 8.402326 -8.092752 0
M  V30 8 C 7.483416 -0.408533 -16.441092 0 CFG=2
M  V30 9 C 5.778485 3.564837 -12.466297 0
M  V30 10 C 9.425870 5.847481 -10.095918 0 CFG=2
M  V30 11 O 8.575393 -2.386793 -17.346086 0
M  V30 12 C 6.020484 2.356876 -13.377560 0
M  V30 13 N 7.347274 1.729436 -13.176504 0 CFG=1 CHG=1
M  V30 14 C 8.791839 -0.098950 -19.039928 0
M  V30 15 C 8.217397 3.940382 -12.346471 0 CFG=1
M  V30 16 C 7.551743 0.520952 -14.023669 0
M  V30 17 O 9.481167 -0.278150 -17.798933 0
M  V30 18 C 6.630534 5.891945 -11.895808 0
M  V30 19 N 9.126293 6.081717 -11.523683 0
M  V30 20 C 10.516781 6.910468 -8.034793 0 CFG=1
M  V30 21 C 9.308739 6.488785 -7.185305 0
M  V30 22 C 7.765416 0.812995 -15.530484 0
M  V30 23 C 6.875924 4.605635 -12.700984 0 CFG=2
M  V30 24 C 8.808153 -1.082888 -16.872253 0 CFG=1
M  V30 25 C 6.675089 -0.013481 -17.678033 0
M  V30 26 C 8.673458 5.210111 -7.742340 0
M  V30 27 C 7.449564 0.626469 -18.829212 0
M  V30 28 O 5.458719 -0.191574 -17.735423 0
M  V30 29 C 8.272270 5.340108 -9.200212 0
M  V30 30 O 8.060180 7.357839 -13.122829 0
M  V30 31 C 10.074670 7.116796 -9.501537 0
M  V30 32 H 8.575407 3.055445 -14.262084 0
M  V30 33 H 9.374926 2.211516 -12.912696 0
M  V30 34 H 11.386461 8.019685 -6.381625 0
M  V30 35 H 10.548157 9.033382 -7.538839 0
M  V30 36 H 9.506807 5.294375 -13.427948 0
M  V30 37 H 10.314639 4.457884 -12.134292 0
M  V30 38 H 7.775234 7.651487 -11.185064 0
M  V30 39 H 12.967547 7.636637 -7.999498 0
M  V30 40 H 6.885590 -1.138231 -15.896670 0
M  V30 41 H 4.799162 3.994737 -12.676779 0
M  V30 42 H 5.775408 3.256211 -11.419307 0
M  V30 43 H 10.173008 5.062295 -10.051415 0
M  V30 44 H 8.220115 -2.882959 -16.612633 0
M  V30 45 H 5.995392 2.735687 -14.384999 0
M  V30 46 H 5.229699 1.614456 -13.269194 0
M  V30 47 H 8.640946 -1.058231 -19.538631 0
M  V30 48 H 9.425372 0.486269 -19.706754 0
M  V30 49 H 8.178730 3.590187 -11.329800 0
M  V30 50 H 8.424063 -0.009721 -13.642641 0
M  V30 51 H 6.700479 -0.147108 -13.881835 0
M  V30 52 H 5.798611 6.446993 -12.331104 0
M  V30 53 H 6.279738 5.631511 -10.902448 0
M  V30 54 H 11.235399 6.091537 -7.996869 0
M  V30 55 H 9.609766 6.320722 -6.150504 0
M  V30 56 H 8.575423 7.293878 -7.163106 0
M  V30 57 H 7.112840 1.629723 -15.835798 0
M  V30 58 H 8.772307 1.191799 -15.701466 0
M  V30 59 H 6.894234 4.884709 -13.756363 0
M  V30 60 H 9.457356 -1.209726 -16.008064 0
M  V30 61 H 9.375421 4.390195 -7.652552 0
M  V30 62 H 7.775442 4.952170 -7.185017 0
M  V30 63 H 7.873746 4.389067 -9.511318 0
M  V30 64 H 7.423324 5.990205 -9.218164 0
M  V30 65 H 7.972944 8.295301 -13.041046 0
M  V30 66 H 9.375506 7.951810 -9.553159 0
M  V30 67 H 10.934551 7.401657 -10.108670 0
M  V30 68 H 7.341249 1.388450 -12.225267 0
M  V30 END ATOM
M  V30 BEGIN BOND
M  V30 1 1 7 4
M  V30 2 1 12 9
M  V30 3 1 13 1
M  V30 4 1 13 12
M  V30 5 1 15 1
M  V30 6 1 15 5
M  V30 7 1 16 13
M  V30 8 1 17 14
M  V30 9 1 18 6
M  V30 10 1 19 5
M  V30 11 1 19 6
M  V30 12 1 19 10
M  V30 13 1 20 4
M  V30 14 1 21 20
M  V30 15 1 22 8
M  V30 16 1 22 16
M  V30 17 1 23 9
M  V30 18 1 23 15
M  V30 19 1 23 18
M  V30 20 1 24 8
M  V30 21 1 24 11
M  V30 22 1 24 17
M  V30 23 1 25 8
M  V30 24 1 26 21
M  V30 25 1 27 2
M  V30 26 1 27 3
M  V30 27 1 27 14
M  V30 28 1 27 25
M  V30 29 2 28 25
M  V30 30 1 29 10
M  V30 31 1 29 26
M  V30 32 1 30 6
M  V30 33 1 31 10
M  V30 34 1 31 20
M  V30 35 1 32 1
M  V30 36 1 33 1
M  V30 37 1 34 4
M  V30 38 1 35 4
M  V30 39 1 36 5
M  V30 40 1 37 5
M  V30 41 1 6 38 CFG=1
M  V30 42 1 39 7
M  V30 43 1 8 40 CFG=1
M  V30 44 1 41 9
M  V30 45 1 42 9
M  V30 46 1 10 43 CFG=3
M  V30 47 1 44 11
M  V30 48 1 45 12
M  V30 49 1 46 12
M  V30 50 1 47 14
M  V30 51 1 48 14
M  V30 52 1 15 49 CFG=1
M  V30 53 1 50 16
M  V30 54 1 51 16
M  V30 55 1 52 18
M  V30 56 1 53 18
M  V30 57 1 20 54 CFG=3
M  V30 58 1 55 21
M  V30 59 1 56 21
M  V30 60 1 57 22
M  V30 61 1 58 22
M  V30 62 1 23 59 CFG=3
M  V30 63 1 24 60 CFG=1
M  V30 64 1 61 26
M  V30 65 1 62 26
M  V30 66 1 63 29
M  V30 67 1 64 29
M  V30 68 1 65 30
M  V30 69 1 66 31
M  V30 70 1 67 31
M  V30 71 1 13 68 CFG=1
M  V30 END BOND
M  V30 END CTAB
M  END
>  <i_epik_Tot_Q>  (1) 
1

>  <i_epik_Tot_abs_Q>  (1) 
1

>  <i_i_glide_confnum>  (1) 
52

>  <i_i_glide_lignum>  (1) 
109

>  <i_i_glide_posenum>  (1) 
146

>  <i_i_glide_rotatable_bonds>  (1) 
8

>  <i_lp_mmshare_version>  (1) 
72125

>  <i_m_source_file_index>  (1) 
40

>  <i_f3d_flags>  (1) 
0

>  <num_sample>  (1) 
50

>  <b_lp_Chiralities_Consistent>  (1) 
1

>  <r_epik_Charging_Adjusted_Penalty>  (1) 
0.93182942678714009

>  <r_epik_Ionization_Penalty>  (1) 
0.32046720352224994

>  <r_epik_Ionization_Penalty_Charging>  (1) 
0.0037689991519664944

>  <r_epik_Ionization_Penalty_Neutral>  (1) 
0.31669820437028345

>  <r_epik_State_Penalty>  (1) 
0.9280604276351736

>  <r_glide_ring_energy>  (1) 
1.2534239858202201

>  <r_i_docking_score>  (1) 
-4.1636695023939208

>  <r_i_glide_ecoul>  (1) 
-8.3009628671760787

>  <r_i_glide_eff_state_penalty>  (1) 
0.9280604276351736

>  <r_i_glide_einternal>  (1) 
10.150853955260056

>  <r_i_glide_emodel>  (1) 
-36.187570609970336

>  <r_i_glide_emodel_strain>  (1) 
2.4824817697123294

>  <r_i_glide_energy>  (1) 
-33.523568448928927

>  <r_i_glide_erotb>  (1) 
0.49989103335302049

>  <r_i_glide_esite>  (1) 
-0.11917578340771309

>  <r_i_glide_evdw>  (1) 
-25.222605581752852

>  <r_i_glide_gscore>  (1) 
-5.0917299300290946

>  <r_i_glide_gscore_strain>  (1) 
0

>  <r_i_glide_hbond>  (1) 
-0.32000000000000001

>  <r_i_glide_ligand_efficiency>  (1) 
-0.13431191943206197

>  <r_i_glide_ligand_efficiency_ln>  (1) 
-0.93903507393575947

>  <r_i_glide_ligand_efficiency_sa>  (1) 
-0.42192486508943111

>  <r_i_glide_lipo>  (1) 
-1.4670081770355416

>  <r_i_glide_metal>  (1) 
-0

>  <r_i_glide_rewards>  (1) 
-1.1791622937748056

>  <r_lp_Energy>  (1) 
47.661428000000001

>  <s_epik_Chemistry_Notes>  (1) 
This compound contains an acetal/aminal-like group ( X-CH(R)-Y where X, Y are N, S, or O) that may be acid/base labile, releasing an aldehyde.

>  <s_epik_cmdline>  (1) 
J2VwaWtfcHl0aG9uJywgJy1waHQnLCAnMS4wJywgJy1waCcsICc3LjQnLCAnLXRuJywgJzgnLCAnLW1hJywgJzUwMCcsICctaW1hZScsICc8aW5maWxlLm1hZT4nLCAnLW9tYWUnLCAnPG91dGZpbGUubWFlPic=

>  <s_epik_input>  (1) 
RkMxKEYpW0NIMl1PW0NASF0oW09IXSlbQ0BIXShDMT1PKVtDSDJdW0NIMl1OKFtDSDJdMilbQ0gyXVtDSDJdW0NASF0oW0NAQEhdMjMpW0NIMl1bQ0BIXShbT0hdKU4oW0NIMl0zKVtDQEBIXTRbQ0gyXVtDSDJdW0NIMl1bQ0BASF0oW0NIMl00KVtDSDJdW09IXQ==

>  <s_glide_docking_method>  (1) 
confgen

>  <s_i_glide_gridfile>  (1) 
gpcr_drd2_6luq_protein_autoprepared_prepared

>  <s_lp_Force_Field>  (1) 
S-OPLS

>  <s_lp_Variant>  (1) 
DiffSBDD_39-5

>  <s_m_source_file>  (1) 
generated_generic_title2_ligand_DiffSBDD_2026-06-23_prepared.sdf

>  <GenAI_Model>  (1) 
DiffSBDD

>  <Protein>  (1) 
generic_title2

$$$$
DiffSBDD_39
     RDKit          3D

  0  0  0  0  0  0  0  0  0  0999 V3000
M  V30 BEGIN CTAB
M  V30 COUNTS 69 72 0 0 1
M  V30 BEGIN ATOM
M  V30 1 C 9.233022 4.564981 -11.839912 0
M  V30 2 F 6.575409 -1.007138 -12.998894 0
M  V30 3 F 5.299461 0.700297 -13.183880 0
M  V30 4 C 12.024129 10.027729 -5.596741 0
M  V30 5 C 9.769403 6.123096 -9.922787 0
M  V30 6 C 9.584363 8.535869 -10.043038 0 CFG=1
M  V30 7 O 10.975413 10.442504 -4.755518 0
M  V30 8 C 7.438506 2.104674 -14.834921 0 CFG=2
M  V30 9 C 8.144886 6.837199 -13.309020 0
M  V30 10 C 10.334728 7.373055 -7.922343 0 CFG=2
M  V30 11 O 7.931950 0.905148 -16.890145 0
M  V30 12 C 8.606510 5.550328 -14.021933 0
M  V30 13 N 8.504474 4.373858 -13.122209 0 CFG=2 CHG=1
M  V30 14 C 5.898058 -0.357188 -15.189460 0
M  V30 15 C 8.857223 5.885867 -11.124777 0 CFG=1
M  V30 16 C 7.121344 3.875643 -12.956065 0
M  V30 17 O 5.774882 0.790229 -16.029076 0
M  V30 18 C 8.796827 8.395700 -11.375481 0
M  V30 19 N 9.465386 7.343827 -9.144403 0 CFG=2 CHG=1
M  V30 20 C 11.683596 8.677159 -6.240250 0 CFG=1
M  V30 21 C 11.289223 7.633188 -5.186642 0
M  V30 22 C 6.575404 3.253809 -14.254319 0
M  V30 23 C 9.038902 7.063456 -12.088046 0 CFG=2
M  V30 24 C 6.911228 1.585469 -16.197547 0 CFG=1
M  V30 25 C 7.527400 0.945531 -13.858943 0
M  V30 26 C 10.975397 6.262209 -5.767964 0
M  V30 27 C 6.306159 0.045289 -13.760079 0
M  V30 28 O 8.533878 0.752793 -13.185034 0
M  V30 29 C 9.872602 6.389522 -6.830742 0
M  V30 30 O 10.996267 8.615919 -10.267475 0
M  V30 31 C 10.581202 8.768463 -7.297385 0
M  V30 32 H 10.299084 4.570842 -12.067950 0
M  V30 33 H 9.078318 3.705734 -11.185481 0
M  V30 34 H 12.206508 10.792842 -6.352830 0
M  V30 35 H 12.930990 9.940206 -4.997706 0
M  V30 36 H 10.747792 6.390225 -10.306231 0
M  V30 37 H 9.843129 5.222775 -9.315854 0
M  V30 38 H 9.237490 9.425450 -9.525571 0
M  V30 39 H 10.218425 10.638832 -5.284075 0
M  V30 40 H 8.440629 2.487089 -15.022309 0
M  V30 41 H 8.175389 7.687810 -13.984961 0
M  V30 42 H 7.099437 6.769527 -13.005368 0
M  V30 43 H 11.320740 7.031222 -8.245183 0
M  V30 44 H 7.594611 0.672581 -17.742857 0
M  V30 45 H 9.652354 5.611863 -14.324706 0
M  V30 46 H 8.049825 5.411859 -14.946819 0
M  V30 47 H 6.606767 -1.055555 -15.630193 0
M  V30 48 H 4.928173 -0.852357 -15.185032 0
M  V30 49 H 7.821670 5.831559 -10.783796 0
M  V30 50 H 7.095414 3.130492 -12.163678 0
M  V30 51 H 6.458518 4.670870 -12.615612 0
M  V30 52 H 9.048885 9.190240 -12.069168 0
M  V30 53 H 7.736463 8.528283 -11.185032 0
M  V30 54 H 12.575405 8.367700 -6.784984 0
M  V30 55 H 12.017469 7.566614 -4.377121 0
M  V30 56 H 10.348301 7.978716 -4.785029 0
M  V30 57 H 5.588800 2.898336 -13.985006 0
M  V30 58 H 6.406353 4.017693 -15.011669 0
M  V30 59 H 10.076008 7.076983 -12.428866 0
M  V30 60 H 6.619325 2.421058 -16.834737 0
M  V30 61 H 11.873975 5.813007 -6.194490 0
M  V30 62 H 10.650656 5.604303 -4.960604 0
M  V30 63 H 9.659650 5.397698 -7.221408 0
M  V30 64 H 8.941413 6.738756 -6.381029 0
M  V30 65 H 11.265391 9.523505 -10.283805 0
M  V30 66 H 9.658240 9.182264 -6.889803 0
M  V30 67 H 10.975430 9.466471 -8.026800 0
M  V30 68 H 8.997195 3.620179 -13.582405 0
M  V30 69 H 8.476006 7.325655 -8.881971 0
M  V30 END ATOM
M  V30 BEGIN BOND
M  V30 1 1 7 4
M  V30 2 1 12 9
M  V30 3 1 13 1
M  V30 4 1 13 12
M  V30 5 1 15 1
M  V30 6 1 15 5
M  V30 7 1 16 13
M  V30 8 1 17 14
M  V30 9 1 18 6
M  V30 10 1 19 5
M  V30 11 1 19 6
M  V30 12 1 19 10
M  V30 13 1 20 4
M  V30 14 1 21 20
M  V30 15 1 22 8
M  V30 16 1 22 16
M  V30 17 1 23 9
M  V30 18 1 23 15
M  V30 19 1 23 18
M  V30 20 1 24 8
M  V30 21 1 24 11
M  V30 22 1 24 17
M  V30 23 1 25 8
M  V30 24 1 26 21
M  V30 25 1 27 2
M  V30 26 1 27 3
M  V30 27 1 27 14
M  V30 28 1 27 25
M  V30 29 2 28 25
M  V30 30 1 29 10
M  V30 31 1 29 26
M  V30 32 1 30 6
M  V30 33 1 31 10
M  V30 34 1 31 20
M  V30 35 1 32 1
M  V30 36 1 33 1
M  V30 37 1 34 4
M  V30 38 1 35 4
M  V30 39 1 36 5
M  V30 40 1 37 5
M  V30 41 1 6 38 CFG=1
M  V30 42 1 39 7
M  V30 43 1 8 40 CFG=3
M  V30 44 1 41 9
M  V30 45 1 42 9
M  V30 46 1 10 43 CFG=3
M  V30 47 1 44 11
M  V30 48 1 45 12
M  V30 49 1 46 12
M  V30 50 1 47 14
M  V30 51 1 48 14
M  V30 52 1 15 49 CFG=1
M  V30 53 1 50 16
M  V30 54 1 51 16
M  V30 55 1 52 18
M  V30 56 1 53 18
M  V30 57 1 20 54 CFG=3
M  V30 58 1 55 21
M  V30 59 1 56 21
M  V30 60 1 57 22
M  V30 61 1 58 22
M  V30 62 1 23 59 CFG=3
M  V30 63 1 24 60 CFG=3
M  V30 64 1 61 26
M  V30 65 1 62 26
M  V30 66 1 63 29
M  V30 67 1 64 29
M  V30 68 1 65 30
M  V30 69 1 66 31
M  V30 70 1 67 31
M  V30 71 1 13 68 CFG=3
M  V30 72 1 19 69 CFG=1
M  V30 END BOND
M  V30 END CTAB
M  END
>  <i_epik_Tot_Q>  (1) 
2

>  <i_epik_Tot_abs_Q>  (1) 
2

>  <i_i_glide_confnum>  (1) 
138

>  <i_i_glide_lignum>  (1) 
114

>  <i_i_glide_posenum>  (1) 
293

>  <i_i_glide_rotatable_bonds>  (1) 
8

>  <i_lp_mmshare_version>  (1) 
72125

>  <i_m_source_file_index>  (1) 
40

>  <i_f3d_flags>  (1) 
0

>  <num_sample>  (1) 
50

>  <b_lp_Chiralities_Consistent>  (1) 
1

>  <r_epik_Charging_Adjusted_Penalty>  (1) 
1.743801429740254

>  <r_epik_Ionization_Penalty>  (1) 
1.6051069046209219

>  <r_epik_Ionization_Penalty_Charging>  (1) 
0.6098477401054202

>  <r_epik_Ionization_Penalty_Neutral>  (1) 
0.99525916451550167

>  <r_epik_State_Penalty>  (1) 
1.1339536896348337

>  <r_glide_ring_energy>  (1) 
1.2534239858201268

>  <r_i_docking_score>  (1) 
-4.160479250881556

>  <r_i_glide_ecoul>  (1) 
-5.5694854637920344

>  <r_i_glide_eff_state_penalty>  (1) 
1.1339536896348337

>  <r_i_glide_einternal>  (1) 
4.837021708902224

>  <r_i_glide_emodel>  (1) 
-37.481407279462118

>  <r_i_glide_emodel_strain>  (1) 
0.3472880155335929

>  <r_i_glide_energy>  (1) 
-27.377009116031502

>  <r_i_glide_erotb>  (1) 
0.49785121930328097

>  <r_i_glide_esite>  (1) 
-0.26015855541597593

>  <r_i_glide_evdw>  (1) 
-21.807523652239468

>  <r_i_glide_gscore>  (1) 
-5.2944329405163897

>  <r_i_glide_gscore_strain>  (1) 
0

>  <r_i_glide_hbond>  (1) 
-0.1709876699899037

>  <r_i_glide_ligand_efficiency>  (1) 
-0.13420900809295341

>  <r_i_glide_ligand_efficiency_ln>  (1) 
-0.93831557445025404

>  <r_i_glide_ligand_efficiency_sa>  (1) 
-0.42160158139984383

>  <r_i_glide_lipo>  (1) 
-1.8500247096409754

>  <r_i_glide_metal>  (1) 
-0

>  <r_i_glide_rewards>  (1) 
-1.5853142225920369

>  <r_lp_Energy>  (1) 
49.071247

>  <r_lp_tautomer_probability>  (1) 
0.99995000000000001

>  <s_epik_Chemistry_Notes>  (1) 
This compound contains an acetal/aminal-like group ( X-CH(R)-Y where X, Y are N, S, or O) that may be acid/base labile, releasing an aldehyde.

>  <s_epik_cmdline>  (1) 
J2VwaWtfcHl0aG9uJywgJy1waHQnLCAnMS4wJywgJy1waCcsICc3LjQnLCAnLXRuJywgJzgnLCAnLW1hJywgJzUwMCcsICctaW1hZScsICc8aW5maWxlLm1hZT4nLCAnLW9tYWUnLCAnPG91dGZpbGUubWFlPic=

>  <s_epik_input>  (1) 
RkMxKEYpW0NIMl1PW0NASF0oW09IXSlbQ0BIXShDMT1PKVtDSDJdW0NIMl1OKFtDSDJdMilbQ0gyXVtDSDJdW0NASF0oW0NAQEhdMjMpW0NIMl1bQ0BIXShbT0hdKU4oW0NIMl0zKVtDQEBIXTRbQ0gyXVtDSDJdW0NIMl1bQ0BASF0oW0NIMl00KVtDSDJdW09IXQ==

>  <s_glide_docking_method>  (1) 
confgen

>  <s_i_glide_gridfile>  (1) 
gpcr_drd2_6luq_protein_autoprepared_prepared

>  <s_lp_Force_Field>  (1) 
S-OPLS

>  <s_lp_Variant>  (1) 
DiffSBDD_39-10

>  <s_m_source_file>  (1) 
generated_generic_title2_ligand_DiffSBDD_2026-06-23_prepared.sdf

>  <GenAI_Model>  (1) 
DiffSBDD

>  <Protein>  (1) 
generic_title2

$$$$
DiffSBDD_0
     RDKit          3D

  0  0  0  0  0  0  0  0  0  0999 V3000
M  V30 BEGIN CTAB
M  V30 COUNTS 70 74 0 0 1
M  V30 BEGIN ATOM
M  V30 1 C 10.670867 8.980759 -6.368603 0
M  V30 2 N 7.469788 4.842615 -13.840750 0
M  V30 3 C 7.078464 4.376607 -18.040627 0 CFG=1
M  V30 4 C 9.112520 6.020934 -12.480376 0
M  V30 5 F 9.772329 6.241560 -6.584151 0
M  V30 6 C 6.989788 6.032816 -14.554858 0
M  V30 7 C 11.768169 8.932427 -7.445145 0
M  V30 8 C 10.686330 7.264760 -11.234882 0
M  V30 9 C 10.503936 7.043237 -8.658377 0 CFG=1
M  V30 10 C 9.669512 3.825851 -18.087158 0
M  V30 11 C 6.977040 3.573178 -14.381597 0 CFG=1
M  V30 12 C 6.809267 0.383671 -12.643925 0
M  V30 13 C 8.292752 3.689033 -18.665006 0 CFG=1
M  V30 14 O 10.146972 5.992698 -11.585028 0
M  V30 15 C 9.440603 7.099484 -7.545511 0 CFG=2
M  V30 16 C 7.161471 2.865435 -18.066395 0 CFG=1
M  V30 17 N 7.002573 4.647200 -16.581735 0 CFG=1 CHG=1
M  V30 18 C 10.049343 7.778958 -9.938024 0
M  V30 19 C 6.352689 1.810735 -12.949379 0
M  V30 20 C 7.536445 3.511995 -15.810037 0 CFG=2
M  V30 21 O 6.575409 -0.409767 -13.786517 0
M  V30 22 C 11.856581 7.553310 -8.110717 0
M  V30 23 N 10.233027 5.034238 -17.794625 0
M  V30 24 C 7.414787 5.951928 -16.040707 0
M  V30 25 N 10.427011 2.754864 -17.848252 0
M  V30 26 O 11.613759 3.290871 -17.322190 0
M  V30 27 C 11.398313 4.618313 -17.324491 0
M  V30 28 O 7.382943 2.432415 -13.706240 0
M  V30 29 N 12.444036 5.372857 -16.824375 0
M  V30 30 C 8.516581 4.898244 -12.918457 0
M  V30 31 C 9.318137 8.494079 -6.916498 0
M  V30 32 C 12.596972 6.805207 -16.662658 0
M  V30 33 C 7.170575 2.296476 -16.654931 0
M  V30 34 H 10.963755 8.353064 -5.525880 0
M  V30 35 H 10.575455 9.992154 -5.974959 0
M  V30 36 H 6.327435 4.873221 -18.651559 0
M  V30 37 H 8.846112 7.020962 -12.782560 0
M  V30 38 H 5.901476 6.054931 -14.482215 0
M  V30 39 H 7.325890 6.971376 -14.120859 0
M  V30 40 H 12.730895 9.190238 -7.003405 0
M  V30 41 H 11.582950 9.674243 -8.216287 0
M  V30 42 H 11.767581 7.190223 -11.122923 0
M  V30 43 H 10.528728 7.990221 -12.029565 0
M  V30 44 H 10.609770 5.990219 -8.919059 0
M  V30 45 H 5.888447 3.640441 -14.385882 0
M  V30 46 H 6.245551 -0.032141 -11.807567 0
M  V30 47 H 7.867140 0.358439 -12.385019 0
M  V30 48 H 8.359827 3.711700 -19.751130 0
M  V30 49 H 8.481517 6.754923 -7.926215 0
M  V30 50 H 6.541206 2.326380 -18.780141 0
M  V30 51 H 10.233808 8.845485 -9.838321 0
M  V30 52 H 8.975413 7.682915 -10.054214 0
M  V30 53 H 5.401854 1.775485 -13.485152 0
M  V30 54 H 6.183010 2.377599 -12.032833 0
M  V30 55 H 8.621448 3.581144 -15.732269 0
M  V30 56 H 5.925632 -1.082538 -13.585022 0
M  V30 57 H 12.206002 6.839410 -7.365059 0
M  V30 58 H 12.607339 7.590234 -8.899808 0
M  V30 59 H 6.975404 6.765057 -16.621360 0
M  V30 60 H 8.499830 5.990250 -16.110828 0
M  V30 61 H 13.238090 4.835931 -16.507234 0
M  V30 62 H 8.834451 3.926977 -12.568089 0
M  V30 63 H 8.575424 8.472061 -6.119066 0
M  V30 64 H 8.939971 9.190220 -7.663545 0
M  V30 65 H 13.578577 7.040415 -16.251272 0
M  V30 66 H 12.492374 7.313427 -17.621715 0
M  V30 67 H 11.837224 7.190141 -15.984791 0
M  V30 68 H 6.179106 1.914298 -16.410308 0
M  V30 69 H 7.889872 1.482570 -16.553799 0
M  V30 70 H 6.010791 4.618260 -16.399375 0
M  V30 END ATOM
M  V30 BEGIN BOND
M  V30 1 1 6 2
M  V30 2 1 7 1
M  V30 3 1 11 2
M  V30 4 1 13 3
M  V30 5 1 13 10
M  V30 6 1 14 4
M  V30 7 1 14 8
M  V30 8 1 15 5
M  V30 9 1 15 9
M  V30 10 1 16 3
M  V30 11 1 16 13
M  V30 12 1 17 3
M  V30 13 1 18 8
M  V30 14 1 18 9
M  V30 15 1 19 12
M  V30 16 1 20 11
M  V30 17 1 20 17
M  V30 18 1 21 12
M  V30 19 1 22 7
M  V30 20 1 22 9
M  V30 21 1 23 10
M  V30 22 1 24 6
M  V30 23 1 24 17
M  V30 24 2 25 10
M  V30 25 1 26 25
M  V30 26 2 27 23
M  V30 27 1 27 26
M  V30 28 1 28 11
M  V30 29 1 28 19
M  V30 30 1 29 27
M  V30 31 1 30 2
M  V30 32 2 30 4
M  V30 33 1 31 1
M  V30 34 1 31 15
M  V30 35 1 32 29
M  V30 36 1 33 16
M  V30 37 1 33 20
M  V30 38 1 34 1
M  V30 39 1 35 1
M  V30 40 1 3 36 CFG=3
M  V30 41 1 37 4
M  V30 42 1 38 6
M  V30 43 1 39 6
M  V30 44 1 40 7
M  V30 45 1 41 7
M  V30 46 1 42 8
M  V30 47 1 43 8
M  V30 48 1 9 44 CFG=3
M  V30 49 1 11 45 CFG=3
M  V30 50 1 46 12
M  V30 51 1 47 12
M  V30 52 1 13 48 CFG=3
M  V30 53 1 15 49 CFG=3
M  V30 54 1 16 50 CFG=3
M  V30 55 1 51 18
M  V30 56 1 52 18
M  V30 57 1 53 19
M  V30 58 1 54 19
M  V30 59 1 20 55 CFG=1
M  V30 60 1 56 21
M  V30 61 1 57 22
M  V30 62 1 58 22
M  V30 63 1 59 24
M  V30 64 1 60 24
M  V30 65 1 61 29
M  V30 66 1 62 30
M  V30 67 1 63 31
M  V30 68 1 64 31
M  V30 69 1 65 32
M  V30 70 1 66 32
M  V30 71 1 67 32
M  V30 72 1 68 33
M  V30 73 1 69 33
M  V30 74 1 17 70 CFG=1
M  V30 END BOND
M  V30 END CTAB
M  END
>  <i_epik_Tot_Q>  (1) 
1

>  <i_epik_Tot_abs_Q>  (1) 
1

>  <i_i_glide_confnum>  (1) 
344

>  <i_i_glide_lignum>  (1) 
6

>  <i_i_glide_posenum>  (1) 
280

>  <i_i_glide_rotatable_bonds>  (1) 
11

>  <i_lp_mmshare_version>  (1) 
72125

>  <i_m_source_file_index>  (1) 
1

>  <i_f3d_flags>  (1) 
0

>  <num_sample>  (1) 
50

>  <b_lp_Chiralities_Consistent>  (1) 
1

>  <r_epik_Charging_Adjusted_Penalty>  (1) 
0.41344222577729461

>  <r_epik_Ionization_Penalty>  (1) 
0.0027644559619576371

>  <r_epik_Ionization_Penalty_Charging>  (1) 
0.0027623868246906495

>  <r_epik_Ionization_Penalty_Neutral>  (1) 
2.0691372669875143e-06

>  <r_epik_State_Penalty>  (1) 
0.41067983895260396

>  <r_glide_ring_energy>  (1) 
1.2880141380397496

>  <r_i_docking_score>  (1) 
-4.1531119178045497

>  <r_i_glide_ecoul>  (1) 
-2.080148089514898

>  <r_i_glide_eff_state_penalty>  (1) 
0.41067983895260396

>  <r_i_glide_einternal>  (1) 
8.2265729016946132

>  <r_i_glide_emodel>  (1) 
-39.549459240945936

>  <r_i_glide_emodel_strain>  (1) 
2.0748377931612652

>  <r_i_glide_energy>  (1) 
-35.32048973905718

>  <r_i_glide_erotb>  (1) 
0.74142510397790429

>  <r_i_glide_esite>  (1) 
0

>  <r_i_glide_evdw>  (1) 
-33.24034164954228

>  <r_i_glide_gscore>  (1) 
-4.563791756757154

>  <r_i_glide_gscore_strain>  (1) 
0

>  <r_i_glide_hbond>  (1) 
-0.16

>  <r_i_glide_ligand_efficiency>  (1) 
-0.12585187629710756

>  <r_i_glide_ligand_efficiency_ln>  (1) 
-0.92363058685707267

>  <r_i_glide_ligand_efficiency_sa>  (1) 
-0.40367421371736056

>  <r_i_glide_lipo>  (1) 
-1.9678567061370764

>  <r_i_glide_metal>  (1) 
-0

>  <r_i_glide_rewards>  (1) 
-1.2033208586936339

>  <r_lp_Energy>  (1) 
52.420753999999995

>  <r_lp_tautomer_probability>  (1) 
0.5

>  <s_epik_Chemistry_Notes>  (1) 
This compound has an imine and may undergo hydrolysis. This compound contains an acetal/aminal-like group ( X-CH(R)-Y where X, Y are N, S, or O) that may be acid/base labile, releasing an aldehyde.

>  <s_epik_cmdline>  (1) 
J2VwaWtfcHl0aG9uJywgJy1waHQnLCAnMS4wJywgJy1waCcsICc3LjQnLCAnLXRuJywgJzgnLCAnLW1hJywgJzUwMCcsICctaW1hZScsICc8aW5maWxlLm1hZT4nLCAnLW9tYWUnLCAnPG91dGZpbGUubWFlPic=

>  <s_epik_input>  (1) 
W0NIMl0xW0NIMl1bQ0gyXVtDSDJdW0NASF0oRilbQ0BIXTFbQ0gyXVtDSDJdTy9bQ0hdPVtDSF0vTihbQ0BIXTJPW0NIMl1bQ0gyXVtPSF0pW0NIMl1bQ0gyXU4zW0NAQEhdMltDSDJdW0NAQEhdKFtDQEBIXTM0KVtDQEBIXTRjNW5jKG9uNSlbTkhdW0NIM10=

>  <s_glide_docking_method>  (1) 
confgen

>  <s_i_glide_gridfile>  (1) 
gpcr_drd2_6luq_protein_autoprepared_prepared

>  <s_lp_Force_Field>  (1) 
S-OPLS

>  <s_lp_Variant>  (1) 
DiffSBDD_0-6

>  <s_m_source_file>  (1) 
generated_generic_title2_ligand_DiffSBDD_2026-06-23_prepared.sdf

>  <GenAI_Model>  (1) 
DiffSBDD

>  <Protein>  (1) 
generic_title2

$$$$
DiffSBDD_0
     RDKit          3D

  0  0  0  0  0  0  0  0  0  0999 V3000
M  V30 BEGIN CTAB
M  V30 COUNTS 70 74 0 0 1
M  V30 BEGIN ATOM
M  V30 1 C 11.545351 7.140612 -5.996203 0
M  V30 2 N 7.748708 3.889355 -13.964348 0
M  V30 3 C 7.563214 3.794507 -18.234489 0 CFG=1
M  V30 4 C 8.479225 5.237776 -12.067899 0
M  V30 5 F 11.471973 8.584933 -9.405986 0
M  V30 6 C 6.912119 4.925960 -14.597758 0
M  V30 7 C 10.069915 6.790242 -5.860664 0
M  V30 8 C 9.365331 6.665930 -10.404210 0
M  V30 9 C 9.579733 7.911650 -8.108408 0 CFG=1
M  V30 10 C 10.164976 4.294898 -18.239794 0
M  V30 11 C 7.839691 2.619279 -14.689453 0 CFG=2
M  V30 12 C 6.927852 0.286126 -13.026142 0
M  V30 13 C 8.947940 3.704236 -18.885954 0 CFG=1
M  V30 14 O 9.203232 5.348219 -10.914128 0
M  V30 15 C 11.051415 8.363996 -8.161686 0 CFG=1
M  V30 16 C 8.234802 2.449501 -18.412545 0 CFG=1
M  V30 17 N 7.402065 3.862547 -16.756512 0 CFG=1 CHG=1
M  V30 18 C 9.270652 6.586950 -8.872590 0
M  V30 19 C 6.083897 1.434537 -13.596954 0
M  V30 20 C 8.344860 2.955290 -16.096733 0 CFG=2
M  V30 21 O 6.174880 -0.409781 -12.063168 0
M  V30 22 C 9.199576 7.800230 -6.615483 0
M  V30 23 N 11.272562 3.558586 -17.930939 0
M  V30 24 C 7.303962 5.169711 -16.075918 0
M  V30 25 N 10.220568 5.590227 -17.932421 0
M  V30 26 O 11.470402 5.737807 -17.310536 0
M  V30 27 C 12.003164 4.501800 -17.359416 0
M  V30 28 O 6.624518 1.952239 -14.808134 0
M  V30 29 N 13.257738 4.386866 -16.785026 0
M  V30 30 C 8.455575 4.099420 -12.781261 0
M  V30 31 C 11.933224 7.330602 -7.471349 0
M  V30 32 C 14.101395 5.365474 -16.123665 0
M  V30 33 C 8.499727 1.789983 -17.070040 0
M  V30 34 H 11.760060 8.051854 -5.435950 0
M  V30 35 H 12.139055 6.343325 -5.546484 0
M  V30 36 H 6.672057 4.020988 -18.816900 0
M  V30 37 H 7.949590 6.142547 -12.321084 0
M  V30 38 H 5.876772 4.586798 -14.545712 0
M  V30 39 H 6.933935 5.875648 -14.069866 0
M  V30 40 H 9.791618 6.746803 -4.808822 0
M  V30 41 H 9.894298 5.792929 -6.258522 0
M  V30 42 H 10.344674 7.007606 -10.731056 0
M  V30 43 H 8.635611 7.381875 -10.785023 0
M  V30 44 H 8.975410 8.703838 -8.549631 0
M  V30 45 H 8.562424 1.976108 -14.186517 0
M  V30 46 H 7.839784 0.657650 -12.559343 0
M  V30 47 H 7.216420 -0.409778 -13.814945 0
M  V30 48 H 8.996067 3.866611 -19.961097 0
M  V30 49 H 11.170863 9.315556 -7.647539 0
M  V30 50 H 7.866450 1.787147 -19.194176 0
M  V30 51 H 8.259415 6.268786 -8.619546 0
M  V30 52 H 9.884187 5.757738 -8.531311 0
M  V30 53 H 5.088279 1.060465 -13.837928 0
M  V30 54 H 5.944181 2.223138 -12.856127 0
M  V30 55 H 9.298041 3.469538 -15.985023 0
M  V30 56 H 5.634778 -1.050225 -12.520742 0
M  V30 57 H 9.271199 8.778338 -6.139593 0
M  V30 58 H 8.175409 7.486989 -6.503298 0
M  V30 59 H 6.562396 5.798903 -16.569063 0
M  V30 60 H 8.258846 5.691550 -16.125314 0
M  V30 61 H 13.649476 3.457385 -16.811138 0
M  V30 62 H 9.016461 3.232507 -12.459153 0
M  V30 63 H 12.980027 7.602122 -7.585045 0
M  V30 64 H 11.775410 6.390225 -7.980459 0
M  V30 65 H 15.042543 4.911637 -15.813588 0
M  V30 66 H 14.318847 6.196833 -16.794700 0
M  V30 67 H 13.601607 5.758461 -15.237594 0
M  V30 68 H 7.753785 1.012146 -16.902201 0
M  V30 69 H 9.491372 1.337709 -17.034775 0
M  V30 70 H 6.511227 3.418021 -16.582314 0
M  V30 END ATOM
M  V30 BEGIN BOND
M  V30 1 1 6 2
M  V30 2 1 7 1
M  V30 3 1 11 2
M  V30 4 1 13 3
M  V30 5 1 13 10
M  V30 6 1 14 4
M  V30 7 1 14 8
M  V30 8 1 15 5
M  V30 9 1 15 9
M  V30 10 1 16 3
M  V30 11 1 16 13
M  V30 12 1 17 3
M  V30 13 1 18 8
M  V30 14 1 18 9
M  V30 15 1 19 12
M  V30 16 1 20 11
M  V30 17 1 20 17
M  V30 18 1 21 12
M  V30 19 1 22 7
M  V30 20 1 22 9
M  V30 21 1 23 10
M  V30 22 1 24 6
M  V30 23 1 24 17
M  V30 24 2 25 10
M  V30 25 1 26 25
M  V30 26 2 27 23
M  V30 27 1 27 26
M  V30 28 1 28 11
M  V30 29 1 28 19
M  V30 30 1 29 27
M  V30 31 1 30 2
M  V30 32 2 30 4
M  V30 33 1 31 1
M  V30 34 1 31 15
M  V30 35 1 32 29
M  V30 36 1 33 16
M  V30 37 1 33 20
M  V30 38 1 34 1
M  V30 39 1 35 1
M  V30 40 1 3 36 CFG=3
M  V30 41 1 37 4
M  V30 42 1 38 6
M  V30 43 1 39 6
M  V30 44 1 40 7
M  V30 45 1 41 7
M  V30 46 1 42 8
M  V30 47 1 43 8
M  V30 48 1 9 44 CFG=3
M  V30 49 1 11 45 CFG=1
M  V30 50 1 46 12
M  V30 51 1 47 12
M  V30 52 1 13 48 CFG=3
M  V30 53 1 15 49 CFG=1
M  V30 54 1 16 50 CFG=3
M  V30 55 1 51 18
M  V30 56 1 52 18
M  V30 57 1 53 19
M  V30 58 1 54 19
M  V30 59 1 20 55 CFG=1
M  V30 60 1 56 21
M  V30 61 1 57 22
M  V30 62 1 58 22
M  V30 63 1 59 24
M  V30 64 1 60 24
M  V30 65 1 61 29
M  V30 66 1 62 30
M  V30 67 1 63 31
M  V30 68 1 64 31
M  V30 69 1 65 32
M  V30 70 1 66 32
M  V30 71 1 67 32
M  V30 72 1 68 33
M  V30 73 1 69 33
M  V30 74 1 17 70 CFG=3
M  V30 END BOND
M  V30 END CTAB
M  END
>  <i_epik_Tot_Q>  (1) 
1

>  <i_epik_Tot_abs_Q>  (1) 
1

>  <i_i_glide_confnum>  (1) 
73

>  <i_i_glide_lignum>  (1) 
10

>  <i_i_glide_posenum>  (1) 
343

>  <i_i_glide_rotatable_bonds>  (1) 
11

>  <i_lp_mmshare_version>  (1) 
72125

>  <i_m_source_file_index>  (1) 
1

>  <i_f3d_flags>  (1) 
0

>  <num_sample>  (1) 
50

>  <b_lp_Chiralities_Consistent>  (1) 
1

>  <r_epik_Charging_Adjusted_Penalty>  (1) 
0.41344222577729461

>  <r_epik_Ionization_Penalty>  (1) 
0.0027644559619576371

>  <r_epik_Ionization_Penalty_Charging>  (1) 
0.0027623868246906495

>  <r_epik_Ionization_Penalty_Neutral>  (1) 
2.0691372669875143e-06

>  <r_epik_State_Penalty>  (1) 
0.41067983895260396

>  <r_glide_ring_energy>  (1) 
1.7272227408313714

>  <r_i_docking_score>  (1) 
-4.1527832009723724

>  <r_i_glide_ecoul>  (1) 
-2.7550945825266426

>  <r_i_glide_eff_state_penalty>  (1) 
0.41067983895260396

>  <r_i_glide_einternal>  (1) 
9.0474016771874979

>  <r_i_glide_emodel>  (1) 
-39.051377449794678

>  <r_i_glide_emodel_strain>  (1) 
0.32159312563793208

>  <r_i_glide_energy>  (1) 
-34.102519160060496

>  <r_i_glide_erotb>  (1) 
0.74142510397790429

>  <r_i_glide_esite>  (1) 
-0.0053277910554733405

>  <r_i_glide_evdw>  (1) 
-31.347424577533854

>  <r_i_glide_gscore>  (1) 
-4.5634630399249767

>  <r_i_glide_gscore_strain>  (1) 
0

>  <r_i_glide_hbond>  (1) 
-0.16

>  <r_i_glide_ligand_efficiency>  (1) 
-0.12584191518098098

>  <r_i_glide_ligand_efficiency_ln>  (1) 
-0.92355748193560117

>  <r_i_glide_ligand_efficiency_sa>  (1) 
-0.40364226309541951

>  <r_i_glide_lipo>  (1) 
-1.777247802496414

>  <r_i_glide_metal>  (1) 
-0

>  <r_i_glide_rewards>  (1) 
-1.381677134095304

>  <r_lp_Energy>  (1) 
42.684458999999997

>  <r_lp_tautomer_probability>  (1) 
0.5

>  <s_epik_Chemistry_Notes>  (1) 
This compound has an imine and may undergo hydrolysis. This compound contains an acetal/aminal-like group ( X-CH(R)-Y where X, Y are N, S, or O) that may be acid/base labile, releasing an aldehyde.

>  <s_epik_cmdline>  (1) 
J2VwaWtfcHl0aG9uJywgJy1waHQnLCAnMS4wJywgJy1waCcsICc3LjQnLCAnLXRuJywgJzgnLCAnLW1hJywgJzUwMCcsICctaW1hZScsICc8aW5maWxlLm1hZT4nLCAnLW9tYWUnLCAnPG91dGZpbGUubWFlPic=

>  <s_epik_input>  (1) 
W0NIMl0xW0NIMl1bQ0gyXVtDSDJdW0NASF0oRilbQ0BIXTFbQ0gyXVtDSDJdTy9bQ0hdPVtDSF0vTihbQ0BIXTJPW0NIMl1bQ0gyXVtPSF0pW0NIMl1bQ0gyXU4zW0NAQEhdMltDSDJdW0NAQEhdKFtDQEBIXTM0KVtDQEBIXTRjNW5jKG9uNSlbTkhdW0NIM10=

>  <s_glide_docking_method>  (1) 
confgen

>  <s_i_glide_gridfile>  (1) 
gpcr_drd2_6luq_protein_autoprepared_prepared

>  <s_lp_Force_Field>  (1) 
S-OPLS

>  <s_lp_Variant>  (1) 
DiffSBDD_0-10

>  <s_m_source_file>  (1) 
generated_generic_title2_ligand_DiffSBDD_2026-06-23_prepared.sdf

>  <GenAI_Model>  (1) 
DiffSBDD

>  <Protein>  (1) 
generic_title2

$$$$
DiffSBDD_11
     RDKit          3D

  0  0  0  0  0  0  0  0  0  0999 V3000
M  V30 BEGIN CTAB
M  V30 COUNTS 45 46 0 0 1
M  V30 BEGIN ATOM
M  V30 1 N 7.969790 5.920338 -11.774044 0
M  V30 2 O 10.299745 9.182978 -6.437851 0
M  V30 3 C 6.605720 4.954312 -13.034414 0
M  V30 4 C 12.669200 9.293216 -4.784124 0
M  V30 5 O 9.551645 7.181150 -10.641060 0
M  V30 6 N 7.311957 4.752148 -11.940684 0
M  V30 7 C 6.140634 6.791420 -14.761316 0
M  V30 8 N 5.784455 3.975636 -13.578644 0
M  V30 9 C 7.632318 6.862506 -12.749246 0
M  V30 10 C 8.911434 6.129658 -10.687388 0
M  V30 11 C 6.753217 6.253224 -13.601891 0
M  V30 12 C 11.529840 9.609002 -3.839565 0
M  V30 13 C 10.492387 8.021126 -5.663931 0 CFG=1
M  V30 14 C 10.800925 6.865823 -6.626047 0
M  V30 15 C 12.795471 7.045549 -2.751035 0
M  V30 16 C 9.062046 5.030113 -9.643619 0
M  V30 17 C 9.582459 6.447872 -7.480073 0
M  V30 18 C 8.175429 8.258181 -12.764002 0
M  V30 19 N 11.775048 7.056129 -3.792699 0
M  V30 20 N 5.643989 7.230965 -15.709568 0
M  V30 21 C 11.551467 8.283163 -4.583522 0
M  V30 22 C 9.996706 5.357225 -8.472996 0
M  V30 23 H 9.661298 8.983999 -7.107418 0
M  V30 24 H 13.645175 9.115982 -4.344661 0
M  V30 25 H 12.701214 9.842458 -5.723777 0
M  V30 26 H 5.270788 4.131898 -14.433659 0
M  V30 27 H 5.719511 3.057779 -13.164605 0
M  V30 28 H 10.822727 10.370766 -4.164526 0
M  V30 29 H 11.751410 9.628497 -2.776045 0
M  V30 30 H 9.550021 7.782674 -5.186250 0
M  V30 31 H 11.640837 7.146465 -7.263147 0
M  V30 32 H 11.124899 5.985409 -6.074613 0
M  V30 33 H 12.797776 6.087009 -2.232149 0
M  V30 34 H 13.783583 7.188722 -3.172915 0
M  V30 35 H 12.625909 7.813189 -1.997964 0
M  V30 36 H 9.431151 4.145596 -10.161317 0
M  V30 37 H 8.071543 4.788183 -9.257065 0
M  V30 38 H 8.765787 6.091287 -6.850698 0
M  V30 39 H 9.195480 7.310825 -8.019881 0
M  V30 40 H 7.776745 8.801088 -13.619258 0
M  V30 41 H 7.849978 8.798927 -11.872981 0
M  V30 42 H 9.262527 8.275137 -12.786705 0
M  V30 43 H 11.865892 6.251842 -4.406133 0
M  V30 44 H 10.975304 5.641333 -8.813790 0
M  V30 45 H 10.143869 4.412648 -7.985077 0
M  V30 END ATOM
M  V30 BEGIN BOND
M  V30 1 1 6 1
M  V30 2 2 6 3
M  V30 3 1 8 3
M  V30 4 1 9 1
M  V30 5 1 10 1
M  V30 6 2 10 5
M  V30 7 1 11 3
M  V30 8 1 11 7
M  V30 9 2 11 9
M  V30 10 1 12 4
M  V30 11 1 13 2
M  V30 12 1 14 13
M  V30 13 1 16 10
M  V30 14 1 17 14
M  V30 15 1 18 9
M  V30 16 1 19 15
M  V30 17 3 20 7
M  V30 18 1 21 4
M  V30 19 1 21 12
M  V30 20 1 21 13
M  V30 21 1 21 19
M  V30 22 1 22 16
M  V30 23 1 22 17
M  V30 24 1 23 2
M  V30 25 1 24 4
M  V30 26 1 25 4
M  V30 27 1 26 8
M  V30 28 1 27 8
M  V30 29 1 28 12
M  V30 30 1 29 12
M  V30 31 1 13 30 CFG=1
M  V30 32 1 31 14
M  V30 33 1 32 14
M  V30 34 1 33 15
M  V30 35 1 34 15
M  V30 36 1 35 15
M  V30 37 1 36 16
M  V30 38 1 37 16
M  V30 39 1 38 17
M  V30 40 1 39 17
M  V30 41 1 40 18
M  V30 42 1 41 18
M  V30 43 1 42 18
M  V30 44 1 43 19
M  V30 45 1 44 22
M  V30 46 1 45 22
M  V30 END BOND
M  V30 END CTAB
M  END
>  <i_epik_Tot_Q>  (1) 
0

>  <i_epik_Tot_abs_Q>  (1) 
0

>  <i_i_glide_confnum>  (1) 
1

>  <i_i_glide_lignum>  (1) 
47

>  <i_i_glide_posenum>  (1) 
184

>  <i_i_glide_rotatable_bonds>  (1) 
9

>  <i_lp_mmshare_version>  (1) 
72125

>  <i_m_source_file_index>  (1) 
12

>  <i_f3d_flags>  (1) 
0

>  <num_sample>  (1) 
50

>  <b_lp_Chiralities_Consistent>  (1) 
1

>  <r_epik_Charging_Adjusted_Penalty>  (1) 
0.42979424815249201

>  <r_epik_Ionization_Penalty>  (1) 
0.43485796908512792

>  <r_epik_Ionization_Penalty_Charging>  (1) 
0

>  <r_epik_Ionization_Penalty_Neutral>  (1) 
0.43485796908512792

>  <r_epik_State_Penalty>  (1) 
0.42979424815249201

>  <r_glide_ring_energy>  (1) 
0

>  <r_i_docking_score>  (1) 
-4.1524876688421042

>  <r_i_glide_ecoul>  (1) 
-2.446038402966344

>  <r_i_glide_eff_state_penalty>  (1) 
0.42979424815249201

>  <r_i_glide_einternal>  (1) 
4.0584380910177362

>  <r_i_glide_emodel>  (1) 
-40.076659076871543

>  <r_i_glide_emodel_strain>  (1) 
0.12144887598346799

>  <r_i_glide_energy>  (1) 
-32.445350010353721

>  <r_i_glide_erotb>  (1) 
1.3853326947408005

>  <r_i_glide_esite>  (1) 
-0.13030258461682689

>  <r_i_glide_evdw>  (1) 
-29.99931160738738

>  <r_i_glide_gscore>  (1) 
-4.5822819169945959

>  <r_i_glide_gscore_strain>  (1) 
0

>  <r_i_glide_hbond>  (1) 
0

>  <r_i_glide_ligand_efficiency>  (1) 
-0.18874943949282291

>  <r_i_glide_ligand_efficiency_ln>  (1) 
-1.0150194519329292

>  <r_i_glide_ligand_efficiency_sa>  (1) 
-0.52888335309804912

>  <r_i_glide_lipo>  (1) 
-1.7016091089051961

>  <r_i_glide_metal>  (1) 
-0

>  <r_i_glide_rewards>  (1) 
-2.2688315773990526

>  <r_lp_Energy>  (1) 
19.305067999999999

>  <s_epik_cmdline>  (1) 
J2VwaWtfcHl0aG9uJywgJy1waHQnLCAnMS4wJywgJy1waCcsICc3LjQnLCAnLXRuJywgJzgnLCAnLW1hJywgJzUwMCcsICctaW1hZScsICc8aW5maWxlLm1hZT4nLCAnLW9tYWUnLCAnPG91dGZpbGUubWFlPic=

>  <s_epik_input>  (1) 
W0NIM11jMWMoQyNOKWMoW05IMl0pbm4xQyg9TylbQ0gyXVtDSDJdW0NIMl1bQ0gyXVtDQEhdKFtPSF0pQzIoW0NIMl1bQ0gyXTIpW05IXVtDSDNd

>  <s_glide_docking_method>  (1) 
confgen

>  <s_i_glide_gridfile>  (1) 
gpcr_drd2_6luq_protein_autoprepared_prepared

>  <s_lp_Force_Field>  (1) 
S-OPLS

>  <s_lp_Variant>  (1) 
DiffSBDD_11-2

>  <s_m_source_file>  (1) 
generated_generic_title2_ligand_DiffSBDD_2026-06-23_prepared.sdf

>  <GenAI_Model>  (1) 
DiffSBDD

>  <Protein>  (1) 
generic_title2

$$$$
DiffSBDD_11
     RDKit          3D

  0  0  0  0  0  0  0  0  0  0999 V3000
M  V30 BEGIN CTAB
M  V30 COUNTS 45 46 0 0 1
M  V30 BEGIN ATOM
M  V30 1 N 8.244935 5.738161 -11.464408 0
M  V30 2 O 10.975424 10.202420 -5.563547 0
M  V30 3 C 6.970751 4.817687 -12.862023 0
M  V30 4 C 12.975407 9.279368 -3.522726 0
M  V30 5 O 9.375345 4.843493 -9.654426 0
M  V30 6 N 7.695137 4.548554 -11.799945 0
M  V30 7 C 6.351365 6.790232 -14.371510 0
M  V30 8 N 6.230387 3.842687 -13.525700 0
M  V30 9 C 7.841856 6.764262 -12.349569 0
M  V30 10 C 9.145173 5.865214 -10.305264 0
M  V30 11 C 7.009707 6.180931 -13.273633 0
M  V30 12 C 11.607977 9.453448 -2.913836 0
M  V30 13 C 11.096475 8.805289 -5.394567 0 CFG=1
M  V30 14 C 11.768282 8.278305 -6.677237 0
M  V30 15 C 12.524024 6.531786 -2.643754 0
M  V30 16 C 9.775388 7.221803 -9.929202 0
M  V30 17 C 10.878199 8.435027 -7.931961 0
M  V30 18 C 8.281884 8.199452 -12.238973 0
M  V30 19 N 11.775410 7.035151 -3.794432 0
M  V30 20 N 5.815715 7.285786 -15.269746 0
M  V30 21 C 11.810795 8.481697 -4.066558 0
M  V30 22 C 10.714262 7.120456 -8.704582 0
M  V30 23 H 11.841548 10.577020 -5.593655 0
M  V30 24 H 13.672301 8.893333 -2.785171 0
M  V30 25 H 13.396900 9.990223 -4.218857 0
M  V30 26 H 5.687479 4.059173 -14.348438 0
M  V30 27 H 6.230099 2.882105 -13.214207 0
M  V30 28 H 11.091080 10.390246 -3.098067 0
M  V30 29 H 11.444796 9.047024 -1.919167 0
M  V30 30 H 10.093484 8.383779 -5.336469 0
M  V30 31 H 12.718912 8.790235 -6.839573 0
M  V30 32 H 11.990712 7.219754 -6.551799 0
M  V30 33 H 12.340934 5.471056 -2.507598 0
M  V30 34 H 13.594491 6.665351 -2.785031 0
M  V30 35 H 12.233531 7.023317 -1.716497 0
M  V30 36 H 8.976391 7.912738 -9.676414 0
M  V30 37 H 10.371511 7.619001 -10.744805 0
M  V30 38 H 9.886346 8.790149 -7.646346 0
M  V30 39 H 11.296148 9.197314 -8.588935 0
M  V30 40 H 7.819581 8.783733 -13.032924 0
M  V30 41 H 7.948000 8.678729 -11.322106 0
M  V30 42 H 9.351073 8.326313 -12.385205 0
M  V30 43 H 11.982027 6.500752 -4.632855 0
M  V30 44 H 11.696122 6.790206 -9.040339 0
M  V30 45 H 10.351216 6.372699 -7.997599 0
M  V30 END ATOM
M  V30 BEGIN BOND
M  V30 1 1 6 1
M  V30 2 2 6 3
M  V30 3 1 8 3
M  V30 4 1 9 1
M  V30 5 1 10 1
M  V30 6 2 10 5
M  V30 7 1 11 3
M  V30 8 1 11 7
M  V30 9 2 11 9
M  V30 10 1 12 4
M  V30 11 1 13 2
M  V30 12 1 14 13
M  V30 13 1 16 10
M  V30 14 1 17 14
M  V30 15 1 18 9
M  V30 16 1 19 15
M  V30 17 3 20 7
M  V30 18 1 21 4
M  V30 19 1 21 12
M  V30 20 1 21 13
M  V30 21 1 21 19
M  V30 22 1 22 16
M  V30 23 1 22 17
M  V30 24 1 23 2
M  V30 25 1 24 4
M  V30 26 1 25 4
M  V30 27 1 26 8
M  V30 28 1 27 8
M  V30 29 1 28 12
M  V30 30 1 29 12
M  V30 31 1 13 30 CFG=1
M  V30 32 1 31 14
M  V30 33 1 32 14
M  V30 34 1 33 15
M  V30 35 1 34 15
M  V30 36 1 35 15
M  V30 37 1 36 16
M  V30 38 1 37 16
M  V30 39 1 38 17
M  V30 40 1 39 17
M  V30 41 1 40 18
M  V30 42 1 41 18
M  V30 43 1 42 18
M  V30 44 1 43 19
M  V30 45 1 44 22
M  V30 46 1 45 22
M  V30 END BOND
M  V30 END CTAB
M  END
>  <i_epik_Tot_Q>  (1) 
0

>  <i_epik_Tot_abs_Q>  (1) 
0

>  <i_i_glide_confnum>  (1) 
27

>  <i_i_glide_lignum>  (1) 
47

>  <i_i_glide_posenum>  (1) 
323

>  <i_i_glide_rotatable_bonds>  (1) 
9

>  <i_lp_mmshare_version>  (1) 
72125

>  <i_m_source_file_index>  (1) 
12

>  <i_f3d_flags>  (1) 
0

>  <num_sample>  (1) 
50

>  <b_lp_Chiralities_Consistent>  (1) 
1

>  <r_epik_Charging_Adjusted_Penalty>  (1) 
0.42979424815249201

>  <r_epik_Ionization_Penalty>  (1) 
0.43485796908512792

>  <r_epik_Ionization_Penalty_Charging>  (1) 
0

>  <r_epik_Ionization_Penalty_Neutral>  (1) 
0.43485796908512792

>  <r_epik_State_Penalty>  (1) 
0.42979424815249201

>  <r_glide_ring_energy>  (1) 
0

>  <r_i_docking_score>  (1) 
-4.1515311472313021

>  <r_i_glide_ecoul>  (1) 
-1.0538909473822768

>  <r_i_glide_eff_state_penalty>  (1) 
0.42979424815249201

>  <r_i_glide_einternal>  (1) 
8.4112629241663814

>  <r_i_glide_emodel>  (1) 
-39.530603840651615

>  <r_i_glide_emodel_strain>  (1) 
1.1781224765207412

>  <r_i_glide_energy>  (1) 
-35.134422715455834

>  <r_i_glide_erotb>  (1) 
1.3853326947408005

>  <r_i_glide_esite>  (1) 
-0.11898776392193128

>  <r_i_glide_evdw>  (1) 
-34.080531768073556

>  <r_i_glide_gscore>  (1) 
-4.5813253953837938

>  <r_i_glide_gscore_strain>  (1) 
0

>  <r_i_glide_hbond>  (1) 
0

>  <r_i_glide_ligand_efficiency>  (1) 
-0.18870596123778646

>  <r_i_glide_ligand_efficiency_ln>  (1) 
-1.0147856431612756

>  <r_i_glide_ligand_efficiency_sa>  (1) 
-0.52876152531740861

>  <r_i_glide_lipo>  (1) 
-1.7798871063314889

>  <r_i_glide_metal>  (1) 
-0

>  <r_i_glide_rewards>  (1) 
-2.205672989360155

>  <r_lp_Energy>  (1) 
19.305067999999999

>  <s_epik_cmdline>  (1) 
J2VwaWtfcHl0aG9uJywgJy1waHQnLCAnMS4wJywgJy1waCcsICc3LjQnLCAnLXRuJywgJzgnLCAnLW1hJywgJzUwMCcsICctaW1hZScsICc8aW5maWxlLm1hZT4nLCAnLW9tYWUnLCAnPG91dGZpbGUubWFlPic=

>  <s_epik_input>  (1) 
W0NIM11jMWMoQyNOKWMoW05IMl0pbm4xQyg9TylbQ0gyXVtDSDJdW0NIMl1bQ0gyXVtDQEhdKFtPSF0pQzIoW0NIMl1bQ0gyXTIpW05IXVtDSDNd

>  <s_glide_docking_method>  (1) 
confgen

>  <s_i_glide_gridfile>  (1) 
gpcr_drd2_6luq_protein_autoprepared_prepared

>  <s_lp_Force_Field>  (1) 
S-OPLS

>  <s_lp_Variant>  (1) 
DiffSBDD_11-2

>  <s_m_source_file>  (1) 
generated_generic_title2_ligand_DiffSBDD_2026-06-23_prepared.sdf

>  <GenAI_Model>  (1) 
DiffSBDD

>  <Protein>  (1) 
generic_title2

$$$$
DiffSBDD_0
     RDKit          3D

  0  0  0  0  0  0  0  0  0  0999 V3000
M  V30 BEGIN CTAB
M  V30 COUNTS 70 74 0 0 1
M  V30 BEGIN ATOM
M  V30 1 C 10.113514 6.917108 -5.842287 0
M  V30 2 N 7.686482 4.495333 -13.989677 0
M  V30 3 C 7.556317 4.426183 -18.236997 0 CFG=1
M  V30 4 C 8.871750 5.833915 -12.321902 0
M  V30 5 F 12.163461 8.887140 -6.610148 0
M  V30 6 C 7.006512 5.626447 -14.632330 0
M  V30 7 C 9.072544 7.297985 -6.898793 0
M  V30 8 C 9.936624 7.199501 -10.713260 0
M  V30 9 C 10.921678 8.142809 -8.454710 0 CFG=1
M  V30 10 C 10.219541 4.342191 -18.205958 0
M  V30 11 C 7.516256 3.201514 -14.678301 0 CFG=1
M  V30 12 C 6.583410 0.377468 -13.530717 0
M  V30 13 C 8.901309 4.055747 -18.864257 0 CFG=1
M  V30 14 O 9.775399 5.912138 -11.302068 0
M  V30 15 C 11.953402 7.802909 -7.358742 0 CFG=2
M  V30 16 C 7.925997 2.972623 -18.423647 0 CFG=1
M  V30 17 N 7.375910 4.498875 -16.765909 0 CFG=1 CHG=1
M  V30 18 C 10.846278 7.000692 -9.494364 0
M  V30 19 C 7.494708 1.497507 -13.019099 0
M  V30 20 C 8.097956 3.409482 -16.091218 0 CFG=2
M  V30 21 O 6.163487 -0.409578 -12.438802 0
M  V30 22 C 9.578160 8.456971 -7.768030 0
M  V30 23 N 11.163008 3.379221 -17.988892 0
M  V30 24 C 7.531014 5.784723 -16.072274 0
M  V30 25 N 10.543207 5.577048 -17.814473 0
M  V30 26 O 11.827611 5.430346 -17.262427 0
M  V30 27 C 12.100847 4.120998 -17.421145 0
M  V30 28 O 8.175574 2.125846 -14.096657 0
M  V30 29 N 13.343433 3.729318 -16.954962 0
M  V30 30 C 8.591527 4.667627 -12.936086 0
M  V30 31 C 11.477175 6.627471 -6.466200 0
M  V30 32 C 13.987583 2.429370 -16.931906 0
M  V30 33 C 7.988113 2.254618 -17.080362 0
M  V30 34 H 10.224388 7.745924 -5.146512 0
M  V30 35 H 9.775419 6.064182 -5.255562 0
M  V30 36 H 6.743151 4.842366 -18.829571 0
M  V30 37 H 8.430129 6.788253 -12.562747 0
M  V30 38 H 5.934104 5.426881 -14.645358 0
M  V30 39 H 7.125127 6.568252 -14.101401 0
M  V30 40 H 8.175218 7.620847 -6.385459 0
M  V30 41 H 8.792083 6.441234 -7.512030 0
M  V30 42 H 10.374509 7.908860 -11.417695 0
M  V30 43 H 8.975399 7.592074 -10.400100 0
M  V30 44 H 11.258792 9.042287 -8.970670 0
M  V30 45 H 6.448071 2.986872 -14.722031 0
M  V30 46 H 7.127016 -0.264784 -14.223997 0
M  V30 47 H 5.720025 0.778769 -14.063523 0
M  V30 48 H 8.991195 4.241304 -19.932947 0
M  V30 49 H 12.921939 7.590222 -7.807242 0
M  V30 50 H 7.443861 2.416704 -19.225298 0
M  V30 51 H 10.522930 6.082974 -9.005580 0
M  V30 52 H 11.854949 6.808341 -9.854699 0
M  V30 53 H 6.955136 2.206352 -12.386717 0
M  V30 54 H 8.258846 1.052702 -12.385954 0
M  V30 55 H 9.147328 3.677508 -15.972437 0
M  V30 56 H 5.684738 -1.162107 -12.785008 0
M  V30 57 H 9.719539 9.300240 -7.099098 0
M  V30 58 H 8.831839 8.785106 -8.487756 0
M  V30 59 H 6.985474 6.575978 -16.594261 0
M  V30 60 H 8.601164 5.990245 -16.043019 0
M  V30 61 H 13.893329 4.470359 -16.544868 0
M  V30 62 H 9.079322 3.752023 -12.633392 0
M  V30 63 H 12.175371 6.400938 -5.665120 0
M  V30 64 H 11.421589 5.710085 -7.046031 0
M  V30 65 H 14.804042 2.412680 -16.210057 0
M  V30 66 H 13.268026 1.661407 -16.648017 0
M  V30 67 H 14.386028 2.179604 -17.916028 0
M  V30 68 H 7.070231 1.683885 -16.932119 0
M  V30 69 H 8.840839 1.576013 -17.031688 0
M  V30 70 H 6.399867 4.268009 -16.643354 0
M  V30 END ATOM
M  V30 BEGIN BOND
M  V30 1 1 6 2
M  V30 2 1 7 1
M  V30 3 1 11 2
M  V30 4 1 13 3
M  V30 5 1 13 10
M  V30 6 1 14 4
M  V30 7 1 14 8
M  V30 8 1 15 5
M  V30 9 1 15 9
M  V30 10 1 16 3
M  V30 11 1 16 13
M  V30 12 1 17 3
M  V30 13 1 18 8
M  V30 14 1 18 9
M  V30 15 1 19 12
M  V30 16 1 20 11
M  V30 17 1 20 17
M  V30 18 1 21 12
M  V30 19 1 22 7
M  V30 20 1 22 9
M  V30 21 1 23 10
M  V30 22 1 24 6
M  V30 23 1 24 17
M  V30 24 2 25 10
M  V30 25 1 26 25
M  V30 26 2 27 23
M  V30 27 1 27 26
M  V30 28 1 28 11
M  V30 29 1 28 19
M  V30 30 1 29 27
M  V30 31 1 30 2
M  V30 32 2 30 4
M  V30 33 1 31 1
M  V30 34 1 31 15
M  V30 35 1 32 29
M  V30 36 1 33 16
M  V30 37 1 33 20
M  V30 38 1 34 1
M  V30 39 1 35 1
M  V30 40 1 3 36 CFG=3
M  V30 41 1 37 4
M  V30 42 1 38 6
M  V30 43 1 39 6
M  V30 44 1 40 7
M  V30 45 1 41 7
M  V30 46 1 42 8
M  V30 47 1 43 8
M  V30 48 1 9 44 CFG=3
M  V30 49 1 11 45 CFG=3
M  V30 50 1 46 12
M  V30 51 1 47 12
M  V30 52 1 13 48 CFG=3
M  V30 53 1 15 49 CFG=3
M  V30 54 1 16 50 CFG=3
M  V30 55 1 51 18
M  V30 56 1 52 18
M  V30 57 1 53 19
M  V30 58 1 54 19
M  V30 59 1 20 55 CFG=1
M  V30 60 1 56 21
M  V30 61 1 57 22
M  V30 62 1 58 22
M  V30 63 1 59 24
M  V30 64 1 60 24
M  V30 65 1 61 29
M  V30 66 1 62 30
M  V30 67 1 63 31
M  V30 68 1 64 31
M  V30 69 1 65 32
M  V30 70 1 66 32
M  V30 71 1 67 32
M  V30 72 1 68 33
M  V30 73 1 69 33
M  V30 74 1 17 70 CFG=3
M  V30 END BOND
M  V30 END CTAB
M  END
>  <i_epik_Tot_Q>  (1) 
1

>  <i_epik_Tot_abs_Q>  (1) 
1

>  <i_i_glide_confnum>  (1) 
692

>  <i_i_glide_lignum>  (1) 
6

>  <i_i_glide_posenum>  (1) 
291

>  <i_i_glide_rotatable_bonds>  (1) 
11

>  <i_lp_mmshare_version>  (1) 
72125

>  <i_m_source_file_index>  (1) 
1

>  <i_f3d_flags>  (1) 
0

>  <num_sample>  (1) 
50

>  <b_lp_Chiralities_Consistent>  (1) 
1

>  <r_epik_Charging_Adjusted_Penalty>  (1) 
0.41344222577729461

>  <r_epik_Ionization_Penalty>  (1) 
0.0027644559619576371

>  <r_epik_Ionization_Penalty_Charging>  (1) 
0.0027623868246906495

>  <r_epik_Ionization_Penalty_Neutral>  (1) 
2.0691372669875143e-06

>  <r_epik_State_Penalty>  (1) 
0.41067983895260396

>  <r_glide_ring_energy>  (1) 
1.2880141380397496

>  <r_i_docking_score>  (1) 
-4.1512236650153884

>  <r_i_glide_ecoul>  (1) 
-3.274888453804059

>  <r_i_glide_eff_state_penalty>  (1) 
0.41067983895260396

>  <r_i_glide_einternal>  (1) 
8.2826535682051823

>  <r_i_glide_emodel>  (1) 
-41.351020743745067

>  <r_i_glide_emodel_strain>  (1) 
0

>  <r_i_glide_energy>  (1) 
-35.079563817852275

>  <r_i_glide_erotb>  (1) 
0.74142510397790429

>  <r_i_glide_esite>  (1) 
0

>  <r_i_glide_evdw>  (1) 
-31.804675364048215

>  <r_i_glide_gscore>  (1) 
-4.5619035039679927

>  <r_i_glide_gscore_strain>  (1) 
0

>  <r_i_glide_hbond>  (1) 
-0.16

>  <r_i_glide_ligand_efficiency>  (1) 
-0.12579465651561783

>  <r_i_glide_ligand_efficiency_ln>  (1) 
-0.92321064921361295

>  <r_i_glide_ligand_efficiency_sa>  (1) 
-0.40349067930387739

>  <r_i_glide_lipo>  (1) 
-1.7321622048943692

>  <r_i_glide_metal>  (1) 
-0

>  <r_i_glide_rewards>  (1) 
-1.3296993667785078

>  <r_lp_Energy>  (1) 
52.420753999999995

>  <r_lp_tautomer_probability>  (1) 
0.5

>  <s_epik_Chemistry_Notes>  (1) 
This compound has an imine and may undergo hydrolysis. This compound contains an acetal/aminal-like group ( X-CH(R)-Y where X, Y are N, S, or O) that may be acid/base labile, releasing an aldehyde.

>  <s_epik_cmdline>  (1) 
J2VwaWtfcHl0aG9uJywgJy1waHQnLCAnMS4wJywgJy1waCcsICc3LjQnLCAnLXRuJywgJzgnLCAnLW1hJywgJzUwMCcsICctaW1hZScsICc8aW5maWxlLm1hZT4nLCAnLW9tYWUnLCAnPG91dGZpbGUubWFlPic=

>  <s_epik_input>  (1) 
W0NIMl0xW0NIMl1bQ0gyXVtDSDJdW0NASF0oRilbQ0BIXTFbQ0gyXVtDSDJdTy9bQ0hdPVtDSF0vTihbQ0BIXTJPW0NIMl1bQ0gyXVtPSF0pW0NIMl1bQ0gyXU4zW0NAQEhdMltDSDJdW0NAQEhdKFtDQEBIXTM0KVtDQEBIXTRjNW5jKG9uNSlbTkhdW0NIM10=

>  <s_glide_docking_method>  (1) 
confgen

>  <s_i_glide_gridfile>  (1) 
gpcr_drd2_6luq_protein_autoprepared_prepared

>  <s_lp_Force_Field>  (1) 
S-OPLS

>  <s_lp_Variant>  (1) 
DiffSBDD_0-6

>  <s_m_source_file>  (1) 
generated_generic_title2_ligand_DiffSBDD_2026-06-23_prepared.sdf

>  <GenAI_Model>  (1) 
DiffSBDD

>  <Protein>  (1) 
generic_title2

$$$$
DiffSBDD_4
     RDKit          3D

  0  0  0  0  0  0  0  0  0  0999 V3000
M  V30 BEGIN CTAB
M  V30 COUNTS 69 73 0 0 1
M  V30 BEGIN ATOM
M  V30 1 O 6.578415 2.795444 -13.585104 0
M  V30 2 C 10.556105 5.918645 -22.020777 0
M  V30 3 C 8.104995 2.820100 -19.404650 0
M  V30 4 C 8.198214 5.430678 -13.086134 0
M  V30 5 C 8.885558 4.296929 -16.815091 0
M  V30 6 C 7.208720 3.940817 -18.829695 0 CFG=2
M  V30 7 C 9.243583 3.530921 -20.169081 0
M  V30 8 C 8.575347 5.575821 -10.282144 0
M  V30 9 C 5.050540 7.665225 -15.788926 0
M  V30 10 C 7.330391 4.704664 -12.200214 0
M  V30 11 O 8.176305 9.990228 -23.512091 0
M  V30 12 F 7.263364 7.788261 -23.886312 0
M  V30 13 C 6.072279 7.014369 -14.839604 0
M  V30 14 C 8.696123 4.894922 -20.556045 0 CFG=2
M  V30 15 C 9.066713 8.305720 -21.437448 0
M  V30 16 C 9.850147 6.634589 -23.183814 0 CFG=2
M  V30 17 C 7.359958 4.992264 -21.265102 0
M  V30 18 C 6.649421 5.647959 -15.300395 0 CFG=1
M  V30 19 C 9.766753 5.984242 -20.702996 0 CFG=2
M  V30 20 C 6.743434 5.537919 -16.840271 0
M  V30 21 C 9.244676 6.205970 -12.535202 0
M  V30 22 C 8.037526 5.382445 -14.631227 0 CFG=2
M  V30 23 C 8.893974 4.275101 -15.277381 0
M  V30 24 C 7.532881 4.792168 -10.803679 0
M  V30 25 F 10.683067 6.592660 -24.215692 0
M  V30 26 N 8.467626 8.597231 -23.829856 0
M  V30 27 C 9.193349 7.368295 -20.478157 0
M  V30 28 C 9.427040 6.279160 -11.144081 0
M  V30 29 C 9.487025 8.113707 -22.886533 0 CFG=1
M  V30 30 C 7.439391 5.115033 -19.757878 0 CFG=1
M  V30 31 C 6.191197 3.838804 -12.720361 0
M  V30 32 C 7.433300 4.241770 -17.315246 0 CFG=2
M  V30 33 H 7.210562 2.255829 -13.134138 0
M  V30 34 H 10.771687 4.883064 -22.285478 0
M  V30 35 H 11.524833 6.396001 -21.864783 0
M  V30 36 H 7.520566 2.234461 -20.115733 0
M  V30 37 H 8.464426 2.115054 -18.655218 0
M  V30 38 H 9.385503 5.190342 -17.191759 0
M  V30 39 H 9.467943 3.447145 -17.165870 0
M  V30 40 H 6.164318 3.644246 -18.941336 0
M  V30 41 H 10.111706 3.646966 -19.519664 0
M  V30 42 H 9.556566 2.973380 -21.052105 0
M  V30 43 H 8.718102 5.638644 -9.213176 0
M  V30 44 H 4.561152 8.509175 -15.305761 0
M  V30 45 H 4.281108 6.962901 -16.105421 0
M  V30 46 H 5.531534 8.050535 -16.688634 0
M  V30 47 H 8.774374 10.492144 -24.071441 0
M  V30 48 H 6.880481 7.733929 -14.700424 0
M  V30 49 H 5.621821 6.890994 -13.853873 0
M  V30 50 H 8.646025 9.266179 -21.184869 0
M  V30 51 H 8.968118 6.060805 -23.469575 0
M  V30 52 H 7.136254 5.899766 -21.821569 0
M  V30 53 H 6.933638 4.082589 -21.683036 0
M  V30 54 H 5.939185 4.871558 -15.048906 0
M  V30 55 H 10.482028 5.840839 -19.892011 0
M  V30 56 H 5.747114 5.588719 -17.279241 0
M  V30 57 H 7.293091 6.397562 -17.219361 0
M  V30 58 H 9.911875 6.744833 -13.185022 0
M  V30 59 H 8.575296 6.272192 -14.949304 0
M  V30 60 H 9.923673 4.390357 -14.939032 0
M  V30 61 H 8.575345 3.294013 -14.938016 0
M  V30 62 H 6.881522 4.255088 -10.129069 0
M  V30 63 H 8.869992 7.590226 -19.473145 0
M  V30 64 H 10.226931 6.878729 -10.737024 0
M  V30 65 H 10.379902 8.725656 -23.021721 0
M  V30 66 H 7.154190 6.096413 -19.391977 0
M  V30 67 H 5.758826 3.336363 -11.856294 0
M  V30 68 H 5.377581 4.445286 -13.112214 0
M  V30 69 H 6.975393 3.400427 -16.794461 0
M  V30 END ATOM
M  V30 BEGIN BOND
M  V30 1 1 6 3
M  V30 2 1 7 3
M  V30 3 1 10 4
M  V30 4 1 13 9
M  V30 5 1 14 7 CFG=1
M  V30 6 1 16 2
M  V30 7 1 17 14
M  V30 8 1 18 13
M  V30 9 1 19 2
M  V30 10 1 19 14
M  V30 11 1 20 18
M  V30 12 2 21 4
M  V30 13 1 22 4
M  V30 14 1 22 18
M  V30 15 1 23 5
M  V30 16 1 23 22
M  V30 17 1 24 8
M  V30 18 2 24 10
M  V30 19 1 25 16
M  V30 20 1 26 11
M  V30 21 1 26 12
M  V30 22 2 27 15
M  V30 23 1 27 19
M  V30 24 2 28 8
M  V30 25 1 28 21
M  V30 26 1 29 15
M  V30 27 1 29 16
M  V30 28 1 29 26
M  V30 29 1 30 6
M  V30 30 1 30 14
M  V30 31 1 30 17
M  V30 32 1 31 1
M  V30 33 1 31 10
M  V30 34 1 32 5
M  V30 35 1 32 6
M  V30 36 1 32 20
M  V30 37 1 33 1
M  V30 38 1 34 2
M  V30 39 1 35 2
M  V30 40 1 36 3
M  V30 41 1 37 3
M  V30 42 1 38 5
M  V30 43 1 39 5
M  V30 44 1 6 40 CFG=1
M  V30 45 1 41 7
M  V30 46 1 42 7
M  V30 47 1 43 8
M  V30 48 1 44 9
M  V30 49 1 45 9
M  V30 50 1 46 9
M  V30 51 1 47 11
M  V30 52 1 48 13
M  V30 53 1 49 13
M  V30 54 1 50 15
M  V30 55 1 16 51 CFG=3
M  V30 56 1 52 17
M  V30 57 1 53 17
M  V30 58 1 18 54 CFG=1
M  V30 59 1 19 55 CFG=1
M  V30 60 1 56 20
M  V30 61 1 57 20
M  V30 62 1 58 21
M  V30 63 1 22 59 CFG=3
M  V30 64 1 60 23
M  V30 65 1 61 23
M  V30 66 1 62 24
M  V30 67 1 63 27
M  V30 68 1 64 28
M  V30 69 1 29 65 CFG=1
M  V30 70 1 30 66 CFG=1
M  V30 71 1 67 31
M  V30 72 1 68 31
M  V30 73 1 32 69 CFG=1
M  V30 END BOND
M  V30 END CTAB
M  END
>  <i_epik_Tot_Q>  (1) 
0

>  <i_epik_Tot_abs_Q>  (1) 
0

>  <i_i_glide_confnum>  (1) 
172

>  <i_i_glide_lignum>  (1) 
27

>  <i_i_glide_posenum>  (1) 
277

>  <i_i_glide_rotatable_bonds>  (1) 
8

>  <i_lp_mmshare_version>  (1) 
72125

>  <i_m_source_file_index>  (1) 
5

>  <i_f3d_flags>  (1) 
0

>  <num_sample>  (1) 
50

>  <b_lp_Chiralities_Consistent>  (1) 
1

>  <r_epik_Charging_Adjusted_Penalty>  (1) 
0

>  <r_epik_Ionization_Penalty>  (1) 
0.0023293269725234308

>  <r_epik_Ionization_Penalty_Charging>  (1) 
0

>  <r_epik_Ionization_Penalty_Neutral>  (1) 
0.0023293269725234308

>  <r_epik_State_Penalty>  (1) 
-0

>  <r_glide_ring_energy>  (1) 
0

>  <r_i_docking_score>  (1) 
-4.1483097525298547

>  <r_i_glide_ecoul>  (1) 
-5.1953490766481867

>  <r_i_glide_eff_state_penalty>  (1) 
-0

>  <r_i_glide_einternal>  (1) 
9.5658881136524343

>  <r_i_glide_emodel>  (1) 
-22.531731345430178

>  <r_i_glide_emodel_strain>  (1) 
3.4961916854005466

>  <r_i_glide_energy>  (1) 
-25.829521733586759

>  <r_i_glide_erotb>  (1) 
0.50387134536734435

>  <r_i_glide_esite>  (1) 
-0.11709809517392987

>  <r_i_glide_evdw>  (1) 
-20.634172656938571

>  <r_i_glide_gscore>  (1) 
-4.1483097525298547

>  <r_i_glide_gscore_strain>  (1) 
0

>  <r_i_glide_hbond>  (1) 
-0.16

>  <r_i_glide_ligand_efficiency>  (1) 
-0.12963467976655796

>  <r_i_glide_ligand_efficiency_ln>  (1) 
-0.92891963224451612

>  <r_i_glide_ligand_efficiency_sa>  (1) 
-0.41156445406598957

>  <r_i_glide_lipo>  (1) 
-1.72501803133654

>  <r_i_glide_metal>  (1) 
-0

>  <r_i_glide_rewards>  (1) 
-0.83905397704257234

>  <r_lp_Energy>  (1) 
42.803042999999995

>  <r_lp_tautomer_probability>  (1) 
1

>  <s_epik_Chemistry_Notes>  (1) 
This compound has a N-S or N-O group and may undergo hydrolysis at high or low pH.

>  <s_epik_cmdline>  (1) 
J2VwaWtfcHl0aG9uJywgJy1waHQnLCAnMS4wJywgJy1waCcsICc3LjQnLCAnLXRuJywgJzgnLCAnLW1hJywgJzUwMCcsICctaW1hZScsICc8aW5maWxlLm1hZT4nLCAnLW9tYWUnLCAnPG91dGZpbGUubWFlPic=

>  <s_epik_input>  (1) 
W2NIXTFbY0hdW2NIXVtjSF1jKFtDSDJdW09IXSljMVtDQEhdMltDSDJdW0NIMl1bQ0BASF0oW0NIMl1bQ0BASF0yW0NIMl1bQ0gzXSlbQ0BIXShbQ0gyXVtDSDJdMylbQ0hdKFtDSDJdNClbQ0BdMzRbQ0BIXShbQ0gyXVtDQEBIXTVGKVtDSF09W0NIXVtDQEBIXTVOKEYpW09IXQ==

>  <s_glide_docking_method>  (1) 
confgen

>  <s_i_glide_gridfile>  (1) 
gpcr_drd2_6luq_protein_autoprepared_prepared

>  <s_lp_Force_Field>  (1) 
S-OPLS

>  <s_lp_Variant>  (1) 
DiffSBDD_4-1

>  <s_m_source_file>  (1) 
generated_generic_title2_ligand_DiffSBDD_2026-06-23_prepared.sdf

>  <GenAI_Model>  (1) 
DiffSBDD

>  <Protein>  (1) 
generic_title2

$$$$
DiffSBDD_36
     RDKit          3D

  0  0  0  0  0  0  0  0  0  0999 V3000
M  V30 BEGIN CTAB
M  V30 COUNTS 34 34 0 0 1
M  V30 BEGIN ATOM
M  V30 1 C 5.419437 7.576164 -12.080242 0
M  V30 2 O 9.775420 5.184304 -11.791851 0
M  V30 3 C 8.816866 4.913697 -10.801516 0 CFG=1
M  V30 4 C 5.716399 6.983048 -16.346440 0
M  V30 5 O 7.042273 4.036033 -13.040949 0
M  V30 6 C 5.522978 6.390227 -17.728553 0 CFG=1
M  V30 7 O 5.775411 7.249776 -18.680050 0 CHG=-1
M  V30 8 C 6.597742 6.423917 -15.522424 0
M  V30 9 C 9.307760 5.336278 -9.411714 0
M  V30 10 S 6.423205 5.001231 -12.120049 0
M  V30 11 C 4.882469 8.205308 -15.985023 0
M  V30 12 N 7.670872 5.707135 -11.185012 0
M  V30 13 O 6.860631 4.589520 -18.707557 0
M  V30 14 C 6.900747 6.908585 -14.110732 0
M  V30 15 C 6.616436 5.279060 -17.716636 0
M  V30 16 S 7.491385 5.064747 -16.120254 0
M  V30 17 C 5.843900 6.467876 -13.067980 0 CFG=2
M  V30 18 O 5.375418 4.572234 -11.185012 0
M  V30 19 H 4.792456 8.331678 -12.550662 0
M  V30 20 H 4.845072 7.169507 -11.247607 0
M  V30 21 H 6.285637 8.081131 -11.652328 0
M  V30 22 H 9.887949 4.412930 -12.328918 0
M  V30 23 H 8.567650 3.854242 -10.810230 0
M  V30 24 H 4.575369 5.861291 -17.677177 0
M  V30 25 H 8.529439 5.183401 -8.662751 0
M  V30 26 H 10.175208 4.755127 -9.100970 0
M  V30 27 H 9.583156 6.391414 -9.389775 0
M  V30 28 H 5.375396 9.091708 -16.385005 0
M  V30 29 H 3.866950 8.151954 -16.383188 0
M  V30 30 H 4.797054 8.353099 -14.912304 0
M  V30 31 H 7.310173 6.282140 -10.413138 0
M  V30 32 H 6.976574 7.990222 -14.145033 0
M  V30 33 H 7.895216 6.571405 -13.816884 0
M  V30 34 H 4.964935 6.121530 -13.600127 0
M  V30 END ATOM
M  V30 BEGIN BOND
M  V30 1 1 3 2
M  V30 2 1 6 4
M  V30 3 1 7 6
M  V30 4 2 8 4
M  V30 5 1 9 3
M  V30 6 2 10 5
M  V30 7 1 11 4
M  V30 8 1 12 3
M  V30 9 1 12 10
M  V30 10 1 14 8
M  V30 11 1 15 6
M  V30 12 2 15 13
M  V30 13 1 16 8
M  V30 14 1 16 15
M  V30 15 1 17 1
M  V30 16 1 17 10
M  V30 17 1 17 14
M  V30 18 2 18 10
M  V30 19 1 19 1
M  V30 20 1 20 1
M  V30 21 1 21 1
M  V30 22 1 22 2
M  V30 23 1 3 23 CFG=1
M  V30 24 1 6 24 CFG=1
M  V30 25 1 25 9
M  V30 26 1 26 9
M  V30 27 1 27 9
M  V30 28 1 28 11
M  V30 29 1 29 11
M  V30 30 1 30 11
M  V30 31 1 31 12
M  V30 32 1 32 14
M  V30 33 1 33 14
M  V30 34 1 17 34 CFG=3
M  V30 END BOND
M  V30 END CTAB
M  END
>  <i_epik_Tot_Q>  (1) 
-1

>  <i_epik_Tot_abs_Q>  (1) 
1

>  <i_i_glide_confnum>  (1) 
113

>  <i_i_glide_lignum>  (1) 
99

>  <i_i_glide_posenum>  (1) 
395

>  <i_i_glide_rotatable_bonds>  (1) 
6

>  <i_lp_mmshare_version>  (1) 
72125

>  <i_m_source_file_index>  (1) 
37

>  <i_f3d_flags>  (1) 
0

>  <num_sample>  (1) 
50

>  <b_lp_Chiralities_Consistent>  (1) 
1

>  <r_epik_Charging_Adjusted_Penalty>  (1) 
0.051395495470861363

>  <r_epik_Ionization_Penalty>  (1) 
0.025821951155603234

>  <r_epik_Ionization_Penalty_Charging>  (1) 
0.025697747735430668

>  <r_epik_Ionization_Penalty_Neutral>  (1) 
0.00012420342017256702

>  <r_epik_State_Penalty>  (1) 
0.025697747735430692

>  <r_glide_ring_energy>  (1) 
0

>  <r_i_docking_score>  (1) 
-4.1461703224337558

>  <r_i_glide_ecoul>  (1) 
-3.6640435840943697

>  <r_i_glide_eff_state_penalty>  (1) 
0.025697747735430692

>  <r_i_glide_einternal>  (1) 
6.0097727579709206

>  <r_i_glide_emodel>  (1) 
-35.899024057492582

>  <r_i_glide_emodel_strain>  (1) 
0.76834920549959307

>  <r_i_glide_energy>  (1) 
-31.1992791206874

>  <r_i_glide_erotb>  (1) 
1.0552049389146296

>  <r_i_glide_esite>  (1) 
-0.11313455536092319

>  <r_i_glide_evdw>  (1) 
-27.535235536593031

>  <r_i_glide_gscore>  (1) 
-4.1718680701691868

>  <r_i_glide_gscore_strain>  (1) 
0

>  <r_i_glide_hbond>  (1) 
-0.16

>  <r_i_glide_ligand_efficiency>  (1) 
-0.23034279569076421

>  <r_i_glide_ligand_efficiency_ln>  (1) 
-1.0657517020111009

>  <r_i_glide_ligand_efficiency_sa>  (1) 
-0.60366889952458846

>  <r_i_glide_lipo>  (1) 
-1.1067986332728241

>  <r_i_glide_metal>  (1) 
-0

>  <r_i_glide_rewards>  (1) 
-1.9207715060062622

>  <r_lp_Energy>  (1) 
-5.848738

>  <s_epik_Chemistry_Notes>  (1) 
This compound contains an acetal/aminal-like group ( X-CH(R)-Y where X, Y are N, S, or O) that may be acid/base labile, releasing an aldehyde.

>  <s_epik_cmdline>  (1) 
J2VwaWtfcHl0aG9uJywgJy1waHQnLCAnMS4wJywgJy1waCcsICc3LjQnLCAnLXRuJywgJzgnLCAnLW1hJywgJzUwMCcsICctaW1hZScsICc8aW5maWxlLm1hZT4nLCAnLW9tYWUnLCAnPG91dGZpbGUubWFlPic=

>  <s_epik_input>  (1) 
W09IXVtDQEBIXShbQ0gzXSlbTkhdUyg9TykoPU8pW0NAQEhdKFtDSDNdKVtDSDJdQyg9QzFbQ0gzXSlTQyg9TylbQ0BASF0xW09IXQ==

>  <s_glide_docking_method>  (1) 
confgen

>  <s_i_glide_gridfile>  (1) 
gpcr_drd2_6luq_protein_autoprepared_prepared

>  <s_lp_Force_Field>  (1) 
S-OPLS

>  <s_lp_Variant>  (1) 
DiffSBDD_36-1

>  <s_m_source_file>  (1) 
generated_generic_title2_ligand_DiffSBDD_2026-06-23_prepared.sdf

>  <GenAI_Model>  (1) 
DiffSBDD

>  <Protein>  (1) 
generic_title2

$$$$
DiffSBDD_28
     RDKit          3D

  0  0  0  0  0  0  0  0  0  0999 V3000
M  V30 BEGIN CTAB
M  V30 COUNTS 79 86 0 0 1
M  V30 BEGIN ATOM
M  V30 1 F 7.905525 -1.344725 -18.292319 0
M  V30 2 C 9.813164 6.784636 -8.604898 0 CFG=1
M  V30 3 C 8.767698 6.375598 -12.212820 0 CFG=2
M  V30 4 C 9.663396 8.496257 -6.408044 0 CFG=2
M  V30 5 C 8.478845 3.851303 -16.077184 0 CFG=1
M  V30 6 C 9.280512 5.661622 -7.717887 0
M  V30 7 C 7.734874 5.680174 -14.319960 0 CFG=2
M  V30 8 C 6.855002 2.332918 -18.698130 0 CFG=1
M  V30 9 C 8.588306 7.875486 -11.995284 0
M  V30 10 C 7.221203 4.034533 -16.891254 0 CFG=1
M  V30 11 C 11.419660 8.324826 -8.418893 0 CFG=1
M  V30 12 C 7.274416 4.607288 -12.112998 0
M  V30 13 C 10.050394 8.084106 -7.811228 0 CFG=1
M  V30 14 O 12.533470 8.533842 -7.585115 0
M  V30 15 C 7.102639 -0.219792 -18.254846 0 CFG=1
M  V30 16 C 8.695237 4.587545 -14.774514 0 CFG=1
M  V30 17 O 8.175407 3.259593 -14.802123 0
M  V30 18 N 7.602541 5.809116 -12.865421 0
M  V30 19 O 11.597384 8.516786 -5.014684 0
M  V30 20 C 5.962969 -0.408806 -17.320793 0
M  V30 21 O 9.042717 9.061795 -7.585049 0
M  V30 22 C 6.577297 5.413838 -16.581345 0
M  V30 23 C 11.298352 6.900934 -8.937170 0
M  V30 24 N 9.007406 6.918174 -9.869427 0 CFG=1 CHG=1
M  V30 25 C 10.629487 9.373562 -5.598616 0
M  V30 26 N 6.665435 2.367438 -20.167827 0 CHG=1
M  V30 27 C 6.386532 5.595576 -15.060886 0
M  V30 28 C 6.815644 3.760002 -20.627607 0
M  V30 29 C 6.890391 4.599795 -19.355495 0
M  V30 30 O 5.775891 0.388935 -16.401927 0
M  V30 31 C 7.591298 4.967881 -10.659072 0
M  V30 32 C 7.763728 1.160227 -18.249147 0
M  V30 33 O 5.677201 -0.333759 -18.602619 0
M  V30 34 N 7.408933 3.667597 -18.331990 0 CFG=2 CHG=1
M  V30 35 C 9.304838 8.114733 -10.696925 0
M  V30 36 C 12.510125 9.199400 -4.171764 0
M  V30 37 C 8.893667 5.771948 -10.800315 0 CFG=1
M  V30 38 H 9.687327 6.174585 -12.763417 0
M  V30 39 H 9.025923 7.820671 -5.847594 0
M  V30 40 H 9.339734 3.405212 -16.572368 0
M  V30 41 H 9.852695 5.590226 -6.792918 0
M  V30 42 H 8.239047 5.831667 -7.440246 0
M  V30 43 H 9.339927 4.692294 -8.212068 0
M  V30 44 H 8.175392 6.612337 -14.674222 0
M  V30 45 H 5.854029 2.261398 -18.267761 0
M  V30 46 H 7.534112 8.133436 -11.880789 0
M  V30 47 H 8.995818 8.490734 -12.785007 0
M  V30 48 H 6.575411 3.271409 -16.470858 0
M  V30 49 H 11.434767 9.037596 -9.242350 0
M  V30 50 H 6.234736 4.309184 -12.254553 0
M  V30 51 H 7.908393 3.771139 -12.407113 0
M  V30 52 H 12.252068 8.355392 -6.694061 0
M  V30 53 H 9.719318 4.662050 -14.413838 0
M  V30 54 H 5.603263 5.532326 -17.054196 0
M  V30 55 H 7.201191 6.219576 -16.970038 0
M  V30 56 H 11.631836 6.790230 -9.964961 0
M  V30 57 H 11.775410 6.248706 -8.225176 0
M  V30 58 H 11.105690 10.098096 -6.259314 0
M  V30 59 H 10.175414 9.985079 -4.827634 0
M  V30 60 H 5.744355 2.015860 -20.398613 0
M  V30 61 H 5.781880 4.779849 -14.663374 0
M  V30 62 H 5.822032 6.509560 -14.873195 0
M  V30 63 H 5.993265 4.059575 -21.279363 0
M  V30 64 H 7.744116 3.843705 -21.193632 0
M  V30 65 H 5.876720 4.921039 -19.114930 0
M  V30 66 H 7.515576 5.486858 -19.467209 0
M  V30 67 H 6.788798 5.589680 -10.257888 0
M  V30 68 H 7.689968 4.097478 -10.013609 0
M  V30 69 H 8.658181 1.116698 -18.871775 0
M  V30 70 H 8.128105 1.328778 -17.235529 0
M  V30 71 H 8.975427 9.037191 -10.217746 0
M  V30 72 H 10.357195 8.212847 -10.949049 0
M  V30 73 H 13.229022 8.491509 -3.760037 0
M  V30 74 H 13.063698 9.959000 -4.725018 0
M  V30 75 H 11.995445 9.674992 -3.335767 0
M  V30 76 H 9.767159 5.120540 -10.752100 0
M  V30 77 H 8.034496 7.163356 -9.585025 0
M  V30 78 H 7.353418 1.789653 -20.630854 0
M  V30 79 H 8.407245 3.624155 -18.486440 0
M  V30 END ATOM
M  V30 BEGIN BOND
M  V30 1 1 2 6 CFG=1
M  V30 2 1 9 3
M  V30 3 1 10 5
M  V30 4 1 13 2
M  V30 5 1 13 4
M  V30 6 1 13 11
M  V30 7 1 14 11
M  V30 8 1 15 1 CFG=3
M  V30 9 1 16 5
M  V30 10 1 16 7
M  V30 11 1 17 5
M  V30 12 1 17 16
M  V30 13 1 18 3
M  V30 14 1 18 7
M  V30 15 1 18 12
M  V30 16 1 20 15
M  V30 17 1 21 4
M  V30 18 1 13 21 CFG=3
M  V30 19 1 22 10
M  V30 20 1 23 2
M  V30 21 1 23 11
M  V30 22 1 24 2
M  V30 23 1 25 4
M  V30 24 1 25 19
M  V30 25 1 26 8
M  V30 26 1 27 7
M  V30 27 1 27 22
M  V30 28 1 28 26
M  V30 29 1 29 28
M  V30 30 2 30 20
M  V30 31 1 31 12
M  V30 32 1 32 8
M  V30 33 1 32 15
M  V30 34 1 33 15
M  V30 35 1 33 20
M  V30 36 1 34 8
M  V30 37 1 34 10
M  V30 38 1 34 29
M  V30 39 1 35 9
M  V30 40 1 35 24
M  V30 41 1 36 19
M  V30 42 1 37 3
M  V30 43 1 37 24
M  V30 44 1 37 31
M  V30 45 1 3 38 CFG=3
M  V30 46 1 4 39 CFG=1
M  V30 47 1 5 40 CFG=3
M  V30 48 1 41 6
M  V30 49 1 42 6
M  V30 50 1 43 6
M  V30 51 1 7 44 CFG=3
M  V30 52 1 8 45 CFG=1
M  V30 53 1 46 9
M  V30 54 1 47 9
M  V30 55 1 10 48 CFG=1
M  V30 56 1 11 49 CFG=3
M  V30 57 1 50 12
M  V30 58 1 51 12
M  V30 59 1 52 14
M  V30 60 1 16 53 CFG=1
M  V30 61 1 54 22
M  V30 62 1 55 22
M  V30 63 1 56 23
M  V30 64 1 57 23
M  V30 65 1 58 25
M  V30 66 1 59 25
M  V30 67 1 60 26
M  V30 68 1 61 27
M  V30 69 1 62 27
M  V30 70 1 63 28
M  V30 71 1 64 28
M  V30 72 1 65 29
M  V30 73 1 66 29
M  V30 74 1 67 31
M  V30 75 1 68 31
M  V30 76 1 69 32
M  V30 77 1 70 32
M  V30 78 1 71 35
M  V30 79 1 72 35
M  V30 80 1 73 36
M  V30 81 1 74 36
M  V30 82 1 75 36
M  V30 83 1 37 76 CFG=3
M  V30 84 1 24 77 CFG=1
M  V30 85 1 78 26
M  V30 86 1 34 79 CFG=3
M  V30 END BOND
M  V30 END CTAB
M  END
>  <i_epik_Tot_Q>  (1) 
3

>  <i_epik_Tot_abs_Q>  (1) 
3

>  <i_i_glide_confnum>  (1) 
237

>  <i_i_glide_lignum>  (1) 
84

>  <i_i_glide_posenum>  (1) 
254

>  <i_i_glide_rotatable_bonds>  (1) 
8

>  <i_lp_mmshare_version>  (1) 
72125

>  <i_m_source_file_index>  (1) 
29

>  <i_f3d_flags>  (1) 
0

>  <num_sample>  (1) 
50

>  <b_lp_Chiralities_Consistent>  (1) 
1

>  <r_epik_Charging_Adjusted_Penalty>  (1) 
2.5479580004866769

>  <r_epik_Ionization_Penalty>  (1) 
1.853674345886815

>  <r_epik_Ionization_Penalty_Charging>  (1) 
1.8530809818743854

>  <r_epik_Ionization_Penalty_Neutral>  (1) 
0.00059336401242958479

>  <r_epik_State_Penalty>  (1) 
0.69487701861229134

>  <r_glide_ring_energy>  (1) 
0.81914574756083292

>  <r_i_docking_score>  (1) 
-4.1316258697089943

>  <r_i_glide_ecoul>  (1) 
-11.292116977924586

>  <r_i_glide_eff_state_penalty>  (1) 
0.69487701861229134

>  <r_i_glide_einternal>  (1) 
17.034935309986338

>  <r_i_glide_emodel>  (1) 
-32.423971575016374

>  <r_i_glide_emodel_strain>  (1) 
4.3458187867534548

>  <r_i_glide_energy>  (1) 
-36.299498800942132

>  <r_i_glide_erotb>  (1) 
0.44698704239028575

>  <r_i_glide_esite>  (1) 
-0.10713647353555536

>  <r_i_glide_evdw>  (1) 
-25.00738182301755

>  <r_i_glide_gscore>  (1) 
-4.8265028883212855

>  <r_i_glide_gscore_strain>  (1) 
0.086454696688363697

>  <r_i_glide_hbond>  (1) 
-0.088663835303721295

>  <r_i_glide_ligand_efficiency>  (1) 
-0.11166556404618903

>  <r_i_glide_ligand_efficiency_ln>  (1) 
-0.89605279208703803

>  <r_i_glide_ligand_efficiency_sa>  (1) 
-0.37209443259108188

>  <r_i_glide_lipo>  (1) 
-1.5081656422971736

>  <r_i_glide_metal>  (1) 
-0

>  <r_i_glide_rewards>  (1) 
-0.71179203842391914

>  <r_lp_Energy>  (1) 
62.908856

>  <s_epik_Chemistry_Notes>  (1) 
This compound has an ester and may undergo hydrolysis at high or low pH. This compound contains an acetal/aminal-like group ( X-CH(R)-Y where X, Y are N, S, or O) that may be acid/base labile, releasing an aldehyde.

>  <s_epik_cmdline>  (1) 
J2VwaWtfcHl0aG9uJywgJy1waHQnLCAnMS4wJywgJy1waCcsICc3LjQnLCAnLXRuJywgJzgnLCAnLW1hJywgJzUwMCcsICctaW1hZScsICc8aW5maWxlLm1hZT4nLCAnLW9tYWUnLCAnPG91dGZpbGUubWFlPic=

>  <s_epik_input>  (1) 
Tz1DKE8xKUMxKEYpW0NIMl1bQ0BASF0yW05IXVtDSDJdW0NIMl1OMltDQEBIXTNbQ0gyXVtDSDJdW0NASF0oW0NAQEhdKE80KVtDQEhdMzQpTjVbQ0gyXVtDSDJdW0NAQEhdKFtDQEhdNTYpTihbQ0gyXVtDSDJdNilbQ0BAXShbQ0gzXSkoW0NIMl1bQ0BASF03W09IXSlbQ0BAXTc4W0NASF0oTzgpW0NIMl1PW0NIM10=

>  <s_glide_docking_method>  (1) 
confgen

>  <s_i_glide_gridfile>  (1) 
gpcr_drd2_6luq_protein_autoprepared_prepared

>  <s_lp_Force_Field>  (1) 
S-OPLS

>  <s_lp_Variant>  (1) 
DiffSBDD_28-7

>  <s_m_source_file>  (1) 
generated_generic_title2_ligand_DiffSBDD_2026-06-23_prepared.sdf

>  <GenAI_Model>  (1) 
DiffSBDD

>  <Protein>  (1) 
generic_title2

$$$$
DiffSBDD_28
     RDKit          3D

  0  0  0  0  0  0  0  0  0  0999 V3000
M  V30 BEGIN CTAB
M  V30 COUNTS 79 86 0 0 1
M  V30 BEGIN ATOM
M  V30 1 F 6.358777 1.010176 -21.539208 0
M  V30 2 C 10.425927 7.274615 -9.425188 0 CFG=1
M  V30 3 C 8.197307 5.252592 -11.825528 0 CFG=2
M  V30 4 C 11.384817 6.510891 -6.809456 0 CFG=2
M  V30 5 C 7.239926 2.726451 -16.173628 0 CFG=1
M  V30 6 C 11.803480 7.599693 -10.021563 0
M  V30 7 C 7.669121 3.605766 -13.701251 0 CFG=2
M  V30 8 C 6.530544 -0.084950 -17.818290 0 CFG=1
M  V30 9 C 8.141312 4.423502 -10.560568 0
M  V30 10 C 7.122793 1.262942 -15.732367 0 CFG=1
M  V30 11 C 9.558393 8.301164 -7.675124 0 CFG=1
M  V30 12 C 9.525063 5.363563 -13.741563 0
M  V30 13 C 10.496549 7.163489 -7.872121 0 CFG=1
M  V30 14 O 10.171762 9.189740 -6.784722 0
M  V30 15 C 6.767238 0.348938 -20.395459 0 CFG=1
M  V30 16 C 7.564941 3.855785 -15.204660 0 CFG=1
M  V30 17 O 8.564394 3.270177 -16.035326 0
M  V30 18 N 8.681827 4.443477 -12.972347 0 CFG=1 CHG=1
M  V30 19 O 11.181662 8.007609 -4.785468 0
M  V30 20 C 8.169969 -0.100353 -20.507157 0
M  V30 21 O 10.178824 5.916452 -7.270601 0
M  V30 22 C 6.912059 1.202781 -14.199005 0
M  V30 23 C 9.632730 8.578704 -9.179955 0
M  V30 24 N 9.775136 6.108779 -10.148506 0
M  V30 25 C 11.347593 6.685753 -5.290525 0
M  V30 26 N 5.754048 -1.343306 -17.967392 0 CHG=1
M  V30 27 C 7.889096 2.103024 -13.429015 0
M  V30 28 C 4.741713 -1.396135 -16.910562 0
M  V30 29 C 5.342787 -0.548559 -15.806444 0
M  V30 30 O 9.087551 -0.078525 -19.687829 0
M  V30 31 C 10.264885 6.178739 -12.661691 0
M  V30 32 C 6.301370 0.859923 -19.031281 0
M  V30 33 O 7.253064 -1.040606 -20.500537 0
M  V30 34 N 6.080033 0.518966 -16.522625 0 CFG=2 CHG=1
M  V30 35 C 8.691804 5.356174 -9.499114 0
M  V30 36 C 12.344663 8.785900 -4.524161 0
M  V30 37 C 9.257104 6.343788 -11.513479 0 CFG=1
M  V30 38 H 7.238330 5.725355 -12.037530 0
M  V30 39 H 12.291715 6.078520 -7.183559 0
M  V30 40 H 6.766480 3.002169 -17.110970 0
M  V30 41 H 12.272579 8.449957 -9.524155 0
M  V30 42 H 12.515114 6.790426 -9.960460 0
M  V30 43 H 11.726843 7.866588 -11.070537 0
M  V30 44 H 6.687132 3.860274 -13.300787 0
M  V30 45 H 7.579981 -0.369954 -17.725682 0
M  V30 46 H 8.840334 3.591347 -10.668170 0
M  V30 47 H 7.147287 4.039409 -10.329409 0
M  V30 48 H 8.089946 0.790709 -15.919312 0
M  V30 49 H 8.575138 7.999584 -7.332928 0
M  V30 50 H 8.879901 5.990147 -14.346641 0
M  V30 51 H 10.176314 4.812536 -14.414926 0
M  V30 52 H 10.501147 8.678261 -6.048960 0
M  V30 53 H 7.246824 4.852295 -15.503590 0
M  V30 54 H 7.045079 0.183029 -13.833005 0
M  V30 55 H 5.890044 1.490981 -13.944071 0
M  V30 56 H 8.731456 8.756488 -9.754749 0
M  V30 57 H 10.261867 9.454507 -9.345494 0
M  V30 58 H 10.473398 6.134036 -4.946787 0
M  V30 59 H 12.175222 6.165661 -4.824967 0
M  V30 60 H 6.389731 -2.121627 -17.838444 0
M  V30 61 H 8.915627 1.796933 -13.618514 0
M  V30 62 H 7.733433 1.906013 -12.384789 0
M  V30 63 H 4.540646 -2.420934 -16.607024 0
M  V30 64 H 3.812106 -0.956573 -17.277349 0
M  V30 65 H 6.035328 -1.172596 -15.239936 0
M  V30 66 H 4.582239 -0.162984 -15.126287 0
M  V30 67 H 10.674974 7.128201 -12.997328 0
M  V30 68 H 11.110482 5.589928 -12.324972 0
M  V30 69 H 5.240902 1.099239 -19.112688 0
M  V30 70 H 6.805552 1.811047 -18.876735 0
M  V30 71 H 9.042935 4.718646 -8.693364 0
M  V30 72 H 7.904419 5.990189 -9.104931 0
M  V30 73 H 12.069806 9.629061 -3.891788 0
M  V30 74 H 13.098031 8.207408 -3.984961 0
M  V30 75 H 12.777691 9.190146 -5.440621 0
M  V30 76 H 8.760961 7.313645 -11.570178 0
M  V30 77 H 9.345699 3.794151 -12.573204 0
M  V30 78 H 5.326319 -1.420138 -18.880575 0
M  V30 79 H 5.373030 1.201535 -16.756884 0
M  V30 END ATOM
M  V30 BEGIN BOND
M  V30 1 1 2 6 CFG=3
M  V30 2 1 9 3
M  V30 3 1 10 5
M  V30 4 1 13 2
M  V30 5 1 13 4
M  V30 6 1 13 11
M  V30 7 1 14 11
M  V30 8 1 15 1 CFG=3
M  V30 9 1 16 5
M  V30 10 1 16 7
M  V30 11 1 17 5
M  V30 12 1 17 16
M  V30 13 1 18 3
M  V30 14 1 18 7
M  V30 15 1 18 12
M  V30 16 1 20 15
M  V30 17 1 21 4
M  V30 18 1 13 21 CFG=3
M  V30 19 1 22 10
M  V30 20 1 23 2
M  V30 21 1 23 11
M  V30 22 1 24 2
M  V30 23 1 25 4
M  V30 24 1 25 19
M  V30 25 1 26 8
M  V30 26 1 27 7
M  V30 27 1 27 22
M  V30 28 1 28 26
M  V30 29 1 29 28
M  V30 30 2 30 20
M  V30 31 1 31 12
M  V30 32 1 32 8
M  V30 33 1 32 15
M  V30 34 1 33 15
M  V30 35 1 33 20
M  V30 36 1 34 8
M  V30 37 1 34 10
M  V30 38 1 34 29
M  V30 39 1 35 9
M  V30 40 1 35 24
M  V30 41 1 36 19
M  V30 42 1 37 3
M  V30 43 1 37 24
M  V30 44 1 37 31
M  V30 45 1 3 38 CFG=3
M  V30 46 1 4 39 CFG=3
M  V30 47 1 5 40 CFG=3
M  V30 48 1 41 6
M  V30 49 1 42 6
M  V30 50 1 43 6
M  V30 51 1 7 44 CFG=1
M  V30 52 1 8 45 CFG=1
M  V30 53 1 46 9
M  V30 54 1 47 9
M  V30 55 1 10 48 CFG=1
M  V30 56 1 11 49 CFG=1
M  V30 57 1 50 12
M  V30 58 1 51 12
M  V30 59 1 52 14
M  V30 60 1 16 53 CFG=1
M  V30 61 1 54 22
M  V30 62 1 55 22
M  V30 63 1 56 23
M  V30 64 1 57 23
M  V30 65 1 58 25
M  V30 66 1 59 25
M  V30 67 1 60 26
M  V30 68 1 61 27
M  V30 69 1 62 27
M  V30 70 1 63 28
M  V30 71 1 64 28
M  V30 72 1 65 29
M  V30 73 1 66 29
M  V30 74 1 67 31
M  V30 75 1 68 31
M  V30 76 1 69 32
M  V30 77 1 70 32
M  V30 78 1 71 35
M  V30 79 1 72 35
M  V30 80 1 73 36
M  V30 81 1 74 36
M  V30 82 1 75 36
M  V30 83 1 37 76 CFG=1
M  V30 84 1 18 77 CFG=1
M  V30 85 1 78 26
M  V30 86 1 34 79 CFG=3
M  V30 END BOND
M  V30 END CTAB
M  END
>  <i_epik_Tot_Q>  (1) 
3

>  <i_epik_Tot_abs_Q>  (1) 
3

>  <i_i_glide_confnum>  (1) 
513

>  <i_i_glide_lignum>  (1) 
80

>  <i_i_glide_posenum>  (1) 
249

>  <i_i_glide_rotatable_bonds>  (1) 
8

>  <i_lp_mmshare_version>  (1) 
72125

>  <i_m_source_file_index>  (1) 
29

>  <i_f3d_flags>  (1) 
0

>  <num_sample>  (1) 
50

>  <b_lp_Chiralities_Consistent>  (1) 
1

>  <r_epik_Charging_Adjusted_Penalty>  (1) 
2.5241965566360229

>  <r_epik_Ionization_Penalty>  (1) 
2.0480993089750741

>  <r_epik_Ionization_Penalty_Charging>  (1) 
2.0477503768466887

>  <r_epik_Ionization_Penalty_Neutral>  (1) 
0.00034893212838530931

>  <r_epik_State_Penalty>  (1) 
0.4764461797893344

>  <r_glide_ring_energy>  (1) 
0.8191457475608499

>  <r_i_docking_score>  (1) 
-4.1303175143915869

>  <r_i_glide_ecoul>  (1) 
-8.1421372037754018

>  <r_i_glide_eff_state_penalty>  (1) 
0.4764461797893344

>  <r_i_glide_einternal>  (1) 
19.929115421470357

>  <r_i_glide_emodel>  (1) 
-24.885658516058342

>  <r_i_glide_emodel_strain>  (1) 
4.8531747539225876

>  <r_i_glide_energy>  (1) 
-33.121104233977263

>  <r_i_glide_erotb>  (1) 
0.44698704239028575

>  <r_i_glide_esite>  (1) 
-0.014512729077820455

>  <r_i_glide_evdw>  (1) 
-24.978967030201858

>  <r_i_glide_gscore>  (1) 
-4.6067636941809216

>  <r_i_glide_gscore_strain>  (1) 
0.21329368848064689

>  <r_i_glide_hbond>  (1) 
0

>  <r_i_glide_ligand_efficiency>  (1) 
-0.11163020309166451

>  <r_i_glide_ligand_efficiency_ln>  (1) 
-0.89576904049089279

>  <r_i_glide_ligand_efficiency_sa>  (1) 
-0.37197660204572019

>  <r_i_glide_lipo>  (1) 
-2.1047055789466582

>  <r_i_glide_metal>  (1) 
-0

>  <r_i_glide_rewards>  (1) 
-0.67755718495097217

>  <r_lp_Energy>  (1) 
68.604765999999998

>  <s_epik_Chemistry_Notes>  (1) 
This compound has an ester and may undergo hydrolysis at high or low pH. This compound contains an acetal/aminal-like group ( X-CH(R)-Y where X, Y are N, S, or O) that may be acid/base labile, releasing an aldehyde.

>  <s_epik_cmdline>  (1) 
J2VwaWtfcHl0aG9uJywgJy1waHQnLCAnMS4wJywgJy1waCcsICc3LjQnLCAnLXRuJywgJzgnLCAnLW1hJywgJzUwMCcsICctaW1hZScsICc8aW5maWxlLm1hZT4nLCAnLW9tYWUnLCAnPG91dGZpbGUubWFlPic=

>  <s_epik_input>  (1) 
Tz1DKE8xKUMxKEYpW0NIMl1bQ0BASF0yW05IXVtDSDJdW0NIMl1OMltDQEBIXTNbQ0gyXVtDSDJdW0NASF0oW0NAQEhdKE80KVtDQEhdMzQpTjVbQ0gyXVtDSDJdW0NAQEhdKFtDQEhdNTYpTihbQ0gyXVtDSDJdNilbQ0BAXShbQ0gzXSkoW0NIMl1bQ0BASF03W09IXSlbQ0BAXTc4W0NASF0oTzgpW0NIMl1PW0NIM10=

>  <s_glide_docking_method>  (1) 
confgen

>  <s_i_glide_gridfile>  (1) 
gpcr_drd2_6luq_protein_autoprepared_prepared

>  <s_lp_Force_Field>  (1) 
S-OPLS

>  <s_lp_Variant>  (1) 
DiffSBDD_28-3

>  <s_m_source_file>  (1) 
generated_generic_title2_ligand_DiffSBDD_2026-06-23_prepared.sdf

>  <GenAI_Model>  (1) 
DiffSBDD

>  <Protein>  (1) 
generic_title2

$$$$
DiffSBDD_39
     RDKit          3D

  0  0  0  0  0  0  0  0  0  0999 V3000
M  V30 BEGIN CTAB
M  V30 COUNTS 69 72 0 0 1
M  V30 BEGIN ATOM
M  V30 1 C 9.366575 4.962004 -15.551909 0
M  V30 2 F 4.320311 0.790266 -19.185015 0
M  V30 3 F 5.375589 2.664842 -19.382007 0
M  V30 4 C 11.317743 8.521614 -9.133408 0
M  V30 5 C 9.191090 5.425873 -13.023060 0
M  V30 6 C 6.967200 5.975844 -11.959532 0 CFG=1
M  V30 7 O 12.119645 8.651443 -7.978177 0
M  V30 8 C 7.978904 1.089650 -18.532257 0 CFG=2
M  V30 9 C 6.484054 5.224151 -15.765747 0
M  V30 10 C 9.074258 5.604768 -10.529592 0 CFG=2
M  V30 11 O 8.245171 -0.811277 -20.039838 0
M  V30 12 C 7.398121 5.267010 -17.001620 0
M  V30 13 N 8.656488 4.503902 -16.779695 0 CFG=2 CHG=1
M  V30 14 C 6.062949 0.883483 -20.743307 0
M  V30 15 C 8.475653 4.900155 -14.283662 0 CFG=1
M  V30 16 C 8.488362 3.027415 -16.883809 0
M  V30 17 O 7.444194 1.222756 -20.884314 0
M  V30 18 C 6.272898 5.553362 -13.264640 0
M  V30 19 N 8.328104 5.355625 -11.806905 0 CFG=2 CHG=1
M  V30 20 C 10.607016 7.156526 -9.151180 0 CFG=1
M  V30 21 C 9.690728 6.938408 -7.934304 0
M  V30 22 C 8.460759 2.549524 -18.353195 0
M  V30 23 C 7.184231 5.707105 -14.496437 0 CFG=2
M  V30 24 C 8.295069 0.598367 -19.966533 0 CFG=1
M  V30 25 C 6.478250 0.940632 -18.251250 0
M  V30 26 C 9.035092 5.551345 -7.985035 0
M  V30 27 C 5.520184 1.338850 -19.377746 0
M  V30 28 O 6.066204 0.536109 -17.165011 0
M  V30 29 C 8.230972 5.335475 -9.270399 0
M  V30 30 O 7.212238 7.363970 -11.985024 0
M  V30 31 C 9.802301 6.978139 -10.451515 0
M  V30 32 H 9.682843 5.990041 -15.727897 0
M  V30 33 H 10.284952 4.390316 -15.417101 0
M  V30 34 H 10.594150 9.334541 -9.184682 0
M  V30 35 H 11.965769 8.624700 -10.004682 0
M  V30 36 H 9.501405 6.454733 -13.184370 0
M  V30 37 H 10.099885 4.846952 -12.852680 0
M  V30 38 H 6.311744 5.738780 -11.121481 0
M  V30 39 H 11.558932 8.611721 -7.217974 0
M  V30 40 H 8.529943 0.451991 -17.840024 0
M  V30 41 H 5.579237 5.806069 -15.947175 0
M  V30 42 H 6.175417 4.200891 -15.584990 0
M  V30 43 H 9.840259 4.833415 -10.518676 0
M  V30 44 H 9.038304 -1.158547 -19.660566 0
M  V30 45 H 7.644082 6.301232 -17.239935 0
M  V30 46 H 6.860051 4.884989 -17.868940 0
M  V30 47 H 5.911345 -0.187982 -20.883890 0
M  V30 48 H 5.503094 1.370036 -21.542218 0
M  V30 49 H 8.215345 3.854537 -14.108508 0
M  V30 50 H 9.320508 2.524997 -16.390708 0
M  V30 51 H 7.597221 2.709035 -16.344752 0
M  V30 52 H 5.362619 6.139268 -13.398757 0
M  V30 53 H 5.951261 4.515027 -13.173389 0
M  V30 54 H 11.375502 6.390222 -9.119458 0
M  V30 55 H 10.256467 7.022421 -7.006167 0
M  V30 56 H 8.927043 7.715023 -7.899059 0
M  V30 57 H 7.835925 3.202364 -18.962325 0
M  V30 58 H 9.465631 2.657207 -18.763378 0
M  V30 59 H 7.434031 6.762686 -14.623114 0
M  V30 60 H 9.310098 0.876047 -20.255046 0
M  V30 61 H 9.808288 4.790227 -7.914616 0
M  V30 62 H 8.374862 5.431618 -7.128504 0
M  V30 63 H 7.807769 4.336421 -9.290682 0
M  V30 64 H 7.376112 5.990216 -9.231022 0
M  V30 65 H 7.029798 7.680491 -11.090206 0
M  V30 66 H 9.092370 7.801267 -10.503402 0
M  V30 67 H 10.481678 7.102601 -11.293636 0
M  V30 68 H 9.270899 4.746158 -17.544956 0
M  V30 69 H 8.106604 4.372824 -11.737222 0
M  V30 END ATOM
M  V30 BEGIN BOND
M  V30 1 1 7 4
M  V30 2 1 12 9
M  V30 3 1 13 1
M  V30 4 1 13 12
M  V30 5 1 15 1
M  V30 6 1 15 5
M  V30 7 1 16 13
M  V30 8 1 17 14
M  V30 9 1 18 6
M  V30 10 1 19 5
M  V30 11 1 19 6
M  V30 12 1 19 10
M  V30 13 1 20 4
M  V30 14 1 21 20
M  V30 15 1 22 8
M  V30 16 1 22 16
M  V30 17 1 23 9
M  V30 18 1 23 15
M  V30 19 1 23 18
M  V30 20 1 24 8
M  V30 21 1 24 11
M  V30 22 1 24 17
M  V30 23 1 25 8
M  V30 24 1 26 21
M  V30 25 1 27 2
M  V30 26 1 27 3
M  V30 27 1 27 14
M  V30 28 1 27 25
M  V30 29 2 28 25
M  V30 30 1 29 10
M  V30 31 1 29 26
M  V30 32 1 30 6
M  V30 33 1 31 10
M  V30 34 1 31 20
M  V30 35 1 32 1
M  V30 36 1 33 1
M  V30 37 1 34 4
M  V30 38 1 35 4
M  V30 39 1 36 5
M  V30 40 1 37 5
M  V30 41 1 6 38 CFG=1
M  V30 42 1 39 7
M  V30 43 1 8 40 CFG=1
M  V30 44 1 41 9
M  V30 45 1 42 9
M  V30 46 1 10 43 CFG=1
M  V30 47 1 44 11
M  V30 48 1 45 12
M  V30 49 1 46 12
M  V30 50 1 47 14
M  V30 51 1 48 14
M  V30 52 1 15 49 CFG=1
M  V30 53 1 50 16
M  V30 54 1 51 16
M  V30 55 1 52 18
M  V30 56 1 53 18
M  V30 57 1 20 54 CFG=3
M  V30 58 1 55 21
M  V30 59 1 56 21
M  V30 60 1 57 22
M  V30 61 1 58 22
M  V30 62 1 23 59 CFG=3
M  V30 63 1 24 60 CFG=3
M  V30 64 1 61 26
M  V30 65 1 62 26
M  V30 66 1 63 29
M  V30 67 1 64 29
M  V30 68 1 65 30
M  V30 69 1 66 31
M  V30 70 1 67 31
M  V30 71 1 13 68 CFG=3
M  V30 72 1 19 69 CFG=1
M  V30 END BOND
M  V30 END CTAB
M  END
>  <i_epik_Tot_Q>  (1) 
2

>  <i_epik_Tot_abs_Q>  (1) 
2

>  <i_i_glide_confnum>  (1) 
62

>  <i_i_glide_lignum>  (1) 
114

>  <i_i_glide_posenum>  (1) 
399

>  <i_i_glide_rotatable_bonds>  (1) 
8

>  <i_lp_mmshare_version>  (1) 
72125

>  <i_m_source_file_index>  (1) 
40

>  <i_f3d_flags>  (1) 
0

>  <num_sample>  (1) 
50

>  <b_lp_Chiralities_Consistent>  (1) 
1

>  <r_epik_Charging_Adjusted_Penalty>  (1) 
1.743801429740254

>  <r_epik_Ionization_Penalty>  (1) 
1.6051069046209219

>  <r_epik_Ionization_Penalty_Charging>  (1) 
0.6098477401054202

>  <r_epik_Ionization_Penalty_Neutral>  (1) 
0.99525916451550167

>  <r_epik_State_Penalty>  (1) 
1.1339536896348337

>  <r_glide_ring_energy>  (1) 
1.2534239858201268

>  <r_i_docking_score>  (1) 
-4.1261885711443993

>  <r_i_glide_ecoul>  (1) 
-9.5337086401418158

>  <r_i_glide_eff_state_penalty>  (1) 
1.1339536896348337

>  <r_i_glide_einternal>  (1) 
3.0905334089696925

>  <r_i_glide_emodel>  (1) 
-44.561666648270702

>  <r_i_glide_emodel_strain>  (1) 
0.58134741982070182

>  <r_i_glide_energy>  (1) 
-33.90144069345336

>  <r_i_glide_erotb>  (1) 
0.49785121930328097

>  <r_i_glide_esite>  (1) 
-0.075152265692773501

>  <r_i_glide_evdw>  (1) 
-24.367732053311542

>  <r_i_glide_gscore>  (1) 
-5.260142260779233

>  <r_i_glide_gscore_strain>  (1) 
0

>  <r_i_glide_hbond>  (1) 
-0.16

>  <r_i_glide_ligand_efficiency>  (1) 
-0.1331028571336903

>  <r_i_glide_ligand_efficiency_ln>  (1) 
-0.93058197528639752

>  <r_i_glide_ligand_efficiency_sa>  (1) 
-0.4181267401777905

>  <r_i_glide_lipo>  (1) 
-1.1997372721038559

>  <r_i_glide_metal>  (1) 
-0

>  <r_i_glide_rewards>  (1) 
-1.6746610435990352

>  <r_lp_Energy>  (1) 
49.071247

>  <r_lp_tautomer_probability>  (1) 
0.99995000000000001

>  <s_epik_Chemistry_Notes>  (1) 
This compound contains an acetal/aminal-like group ( X-CH(R)-Y where X, Y are N, S, or O) that may be acid/base labile, releasing an aldehyde.

>  <s_epik_cmdline>  (1) 
J2VwaWtfcHl0aG9uJywgJy1waHQnLCAnMS4wJywgJy1waCcsICc3LjQnLCAnLXRuJywgJzgnLCAnLW1hJywgJzUwMCcsICctaW1hZScsICc8aW5maWxlLm1hZT4nLCAnLW9tYWUnLCAnPG91dGZpbGUubWFlPic=

>  <s_epik_input>  (1) 
RkMxKEYpW0NIMl1PW0NASF0oW09IXSlbQ0BIXShDMT1PKVtDSDJdW0NIMl1OKFtDSDJdMilbQ0gyXVtDSDJdW0NASF0oW0NAQEhdMjMpW0NIMl1bQ0BIXShbT0hdKU4oW0NIMl0zKVtDQEBIXTRbQ0gyXVtDSDJdW0NIMl1bQ0BASF0oW0NIMl00KVtDSDJdW09IXQ==

>  <s_glide_docking_method>  (1) 
confgen

>  <s_i_glide_gridfile>  (1) 
gpcr_drd2_6luq_protein_autoprepared_prepared

>  <s_lp_Force_Field>  (1) 
S-OPLS

>  <s_lp_Variant>  (1) 
DiffSBDD_39-10

>  <s_m_source_file>  (1) 
generated_generic_title2_ligand_DiffSBDD_2026-06-23_prepared.sdf

>  <GenAI_Model>  (1) 
DiffSBDD

>  <Protein>  (1) 
generic_title2

$$$$
DiffSBDD_9
     RDKit          3D

  0  0  0  0  0  0  0  0  0  0999 V3000
M  V30 BEGIN CTAB
M  V30 COUNTS 77 78 0 0 1
M  V30 BEGIN ATOM
M  V30 1 C 9.989634 8.790536 -6.923113 0
M  V30 2 F 8.552394 0.863738 -18.625757 0
M  V30 3 C 7.656834 3.939299 -13.808601 0 CFG=2
M  V30 4 O 8.868701 1.079665 -16.385481 0
M  V30 5 F 6.899241 7.590231 -13.093771 0
M  V30 6 C 7.442932 5.477639 -11.553648 0 CFG=2
M  V30 7 O 12.925935 8.390125 -2.260941 0
M  V30 8 C 9.813711 6.585080 -9.771663 0
M  V30 9 C 8.328099 4.649410 -10.637417 0 CFG=2
M  V30 10 F 9.326156 2.777531 -17.823623 0
M  V30 11 O 10.465542 7.136226 -10.662165 0
M  V30 12 C 11.936079 7.714405 -1.985125 0
M  V30 13 C 7.425761 0.916556 -14.393108 0
M  V30 14 C 7.970188 3.861816 -15.333363 0
M  V30 15 O 6.976102 -0.868149 -16.832565 0
M  V30 16 F 11.138644 1.130960 -19.088319 0
M  V30 17 C 10.908465 7.728399 -6.329251 0
M  V30 18 C 9.690679 8.610192 -8.413993 0
M  V30 19 F 6.187935 0.957119 -17.906144 0
M  V30 20 O 11.775410 7.175961 -7.003010 0
M  V30 21 C 9.288828 1.433479 -17.644908 0
M  V30 22 N 9.383955 7.220428 -8.684540 0
M  V30 23 C 6.489698 0.442558 -16.689729 0
M  V30 24 C 5.984731 5.297738 -11.061732 0
M  V30 25 O 7.302303 6.790542 -15.098172 0
M  V30 26 F 5.317078 0.390318 -16.013340 0
M  V30 27 C 7.525749 1.319794 -15.903317 0 CFG=2
M  V30 28 C 7.760226 5.367116 -13.109623 0 CFG=2
M  V30 29 C 8.534684 2.865512 -13.185074 0
M  V30 30 O 8.179532 4.946973 -9.235878 0
M  V30 31 C 6.888732 6.448148 -13.813690 0 CFG=1
M  V30 32 C 5.011567 6.470265 -11.197062 0
M  V30 33 C 5.375603 3.949705 -11.400088 0
M  V30 34 C 11.658784 6.395676 -2.704395 0
M  V30 35 C 9.468015 5.143873 -9.806590 0 CFG=2
M  V30 36 C 8.430880 1.543283 -13.442061 0
M  V30 37 C 10.717193 0.905096 -17.842654 0
M  V30 38 C 11.785600 6.552209 -4.218450 0
M  V30 39 C 7.141082 2.798151 -16.045713 0
M  V30 40 C 10.693928 7.384094 -4.871017 0
M  V30 41 H 10.446328 9.757856 -6.733921 0
M  V30 42 H 9.048599 8.764301 -6.372706 0
M  V30 43 H 6.625287 3.629854 -13.672902 0
M  V30 44 H 7.676364 6.502516 -11.275279 0
M  V30 45 H 8.283644 3.590322 -10.797754 0
M  V30 46 H 11.206742 7.996087 -1.228403 0
M  V30 47 H 6.431729 1.132212 -13.995611 0
M  V30 48 H 7.548214 -0.163432 -14.297366 0
M  V30 49 H 7.687964 4.736000 -15.888028 0
M  V30 50 H 9.030913 3.764203 -15.540572 0
M  V30 51 H 7.771300 -0.948373 -16.327376 0
M  V30 52 H 10.528858 8.983974 -9.003122 0
M  V30 53 H 8.816420 9.190080 -8.696569 0
M  V30 54 H 8.822771 6.717497 -8.010394 0
M  V30 55 H 6.055453 5.277616 -9.985021 0
M  V30 56 H 8.241045 6.897077 -15.084651 0
M  V30 57 H 8.798335 5.685353 -13.212613 0
M  V30 58 H 9.308084 3.205338 -12.516023 0
M  V30 59 H 5.866815 6.090471 -13.915590 0
M  V30 60 H 4.750911 6.690648 -12.220637 0
M  V30 61 H 4.122392 6.236413 -10.623742 0
M  V30 62 H 5.375381 7.401725 -10.785112 0
M  V30 63 H 4.702486 3.994599 -12.259005 0
M  V30 64 H 6.126999 3.188062 -11.590147 0
M  V30 65 H 4.847460 3.590235 -10.521295 0
M  V30 66 H 10.671336 6.020037 -2.434512 0
M  V30 67 H 12.387358 5.661605 -2.357226 0
M  V30 68 H 10.175417 4.428457 -9.417589 0
M  V30 69 H 9.115480 0.861329 -12.960364 0
M  V30 70 H 11.429088 1.398738 -17.184936 0
M  V30 71 H 10.765891 -0.171820 -17.675963 0
M  V30 72 H 11.827426 5.590081 -4.709949 0
M  V30 73 H 12.730850 7.033087 -4.384975 0
M  V30 74 H 7.021316 3.072978 -17.094727 0
M  V30 75 H 6.175419 2.882251 -15.592561 0
M  V30 76 H 10.582730 8.346361 -4.385031 0
M  V30 77 H 9.766279 6.837097 -4.783998 0
M  V30 END ATOM
M  V30 BEGIN BOND
M  V30 1 1 9 6
M  V30 2 2 11 8
M  V30 3 2 12 7
M  V30 4 1 14 3
M  V30 5 1 17 1
M  V30 6 1 18 1
M  V30 7 2 20 17
M  V30 8 1 21 2
M  V30 9 1 21 4
M  V30 10 1 21 10
M  V30 11 1 22 8
M  V30 12 1 22 18
M  V30 13 1 23 15
M  V30 14 1 23 19
M  V30 15 1 24 6
M  V30 16 1 26 23
M  V30 17 1 27 4 CFG=3
M  V30 18 1 27 13
M  V30 19 1 27 23
M  V30 20 1 28 3
M  V30 21 1 28 6
M  V30 22 1 29 3
M  V30 23 1 30 9
M  V30 24 1 31 5
M  V30 25 1 31 25
M  V30 26 1 31 28
M  V30 27 1 32 24
M  V30 28 1 33 24
M  V30 29 1 34 12
M  V30 30 1 35 8
M  V30 31 1 35 9
M  V30 32 1 35 30
M  V30 33 1 36 13
M  V30 34 2 36 29
M  V30 35 1 37 16
M  V30 36 1 37 21
M  V30 37 1 38 34
M  V30 38 1 39 14
M  V30 39 1 39 27
M  V30 40 1 40 17
M  V30 41 1 40 38
M  V30 42 1 41 1
M  V30 43 1 42 1
M  V30 44 1 3 43 CFG=3
M  V30 45 1 6 44 CFG=1
M  V30 46 1 9 45 CFG=1
M  V30 47 1 46 12
M  V30 48 1 47 13
M  V30 49 1 48 13
M  V30 50 1 49 14
M  V30 51 1 50 14
M  V30 52 1 51 15
M  V30 53 1 52 18
M  V30 54 1 53 18
M  V30 55 1 54 22
M  V30 56 1 55 24
M  V30 57 1 56 25
M  V30 58 1 28 57 CFG=1
M  V30 59 1 58 29
M  V30 60 1 31 59 CFG=3
M  V30 61 1 60 32
M  V30 62 1 61 32
M  V30 63 1 62 32
M  V30 64 1 63 33
M  V30 65 1 64 33
M  V30 66 1 65 33
M  V30 67 1 66 34
M  V30 68 1 67 34
M  V30 69 1 35 68 CFG=1
M  V30 70 1 69 36
M  V30 71 1 70 37
M  V30 72 1 71 37
M  V30 73 1 72 38
M  V30 74 1 73 38
M  V30 75 1 74 39
M  V30 76 1 75 39
M  V30 77 1 76 40
M  V30 78 1 77 40
M  V30 END BOND
M  V30 END CTAB
M  END
>  <i_epik_Tot_Q>  (1) 
0

>  <i_epik_Tot_abs_Q>  (1) 
0

>  <i_i_glide_confnum>  (1) 
4486

>  <i_i_glide_lignum>  (1) 
44

>  <i_i_glide_posenum>  (1) 
200

>  <i_i_glide_rotatable_bonds>  (1) 
20

>  <i_lp_mmshare_version>  (1) 
72125

>  <i_m_source_file_index>  (1) 
10

>  <i_f3d_flags>  (1) 
0

>  <num_sample>  (1) 
50

>  <b_lp_Chiralities_Consistent>  (1) 
1

>  <r_epik_Charging_Adjusted_Penalty>  (1) 
0.024791601223723252

>  <r_epik_Ionization_Penalty>  (1) 
0.024829857689501161

>  <r_epik_Ionization_Penalty_Charging>  (1) 
0

>  <r_epik_Ionization_Penalty_Neutral>  (1) 
0.024829857689501161

>  <r_epik_State_Penalty>  (1) 
0.024791601223723252

>  <r_glide_ring_energy>  (1) 
0

>  <r_i_docking_score>  (1) 
-4.1218135596452017

>  <r_i_glide_ecoul>  (1) 
-2.4331527924575376

>  <r_i_glide_eff_state_penalty>  (1) 
0.024791601223723252

>  <r_i_glide_einternal>  (1) 
9.8914869629818938

>  <r_i_glide_emodel>  (1) 
-23.420898027538275

>  <r_i_glide_emodel_strain>  (1) 
4.9823254937934252

>  <r_i_glide_energy>  (1) 
-22.14334666710964

>  <r_i_glide_erotb>  (1) 
0.79596426883134463

>  <r_i_glide_esite>  (1) 
-0.19269705437033499

>  <r_i_glide_evdw>  (1) 
-19.710193874652102

>  <r_i_glide_gscore>  (1) 
-4.1466051608689245

>  <r_i_glide_gscore_strain>  (1) 
0.24558137344835629

>  <r_i_glide_hbond>  (1) 
0

>  <r_i_glide_ligand_efficiency>  (1) 
-0.10304533899113004

>  <r_i_glide_ligand_efficiency_ln>  (1) 
-0.87906153271413257

>  <r_i_glide_ligand_efficiency_sa>  (1) 
-0.35241010218395757

>  <r_i_glide_lipo>  (1) 
-2.0461384634720168

>  <r_i_glide_metal>  (1) 
-0

>  <r_i_glide_rewards>  (1) 
-1.5988326727050379

>  <r_lp_Energy>  (1) 
20.029204999999997

>  <r_lp_tautomer_probability>  (1) 
0.99989996500775002

>  <s_epik_cmdline>  (1) 
J2VwaWtfcHl0aG9uJywgJy1waHQnLCAnMS4wJywgJy1waCcsICc3LjQnLCAnLXRuJywgJzgnLCAnLW1hJywgJzUwMCcsICctaW1hZScsICc8aW5maWxlLm1hZT4nLCAnLW9tYWUnLCAnPG91dGZpbGUubWFlPic=

>  <s_epik_input>  (1) 
Tz1bQ0hdW0NIMl1bQ0gyXVtDSDJdQyg9TylbQ0gyXVtDSDJdW05IXUMoPU8pW0NASF0xT1tDQEhdMVtDQEhdKFtDSF0oW0NIM10pW0NIM10pW0NASF0oW0NAQEhdKEYpW09IXSlbQ0BASF0oW0NIMl1bQ0gyXTIpW0NIXT1bQ0hdW0NIMl1bQ0BdMihDKEYpKEYpW09IXSlPQyhGKShGKVtDSDJdRg==

>  <s_glide_docking_method>  (1) 
confgen

>  <s_i_glide_gridfile>  (1) 
gpcr_drd2_6luq_protein_autoprepared_prepared

>  <s_lp_Force_Field>  (1) 
S-OPLS

>  <s_lp_Variant>  (1) 
DiffSBDD_9-1

>  <s_m_source_file>  (1) 
generated_generic_title2_ligand_DiffSBDD_2026-06-23_prepared.sdf

>  <GenAI_Model>  (1) 
DiffSBDD

>  <Protein>  (1) 
generic_title2

$$$$
DiffSBDD_16
     RDKit          3D

  0  0  0  0  0  0  0  0  0  0999 V3000
M  V30 BEGIN CTAB
M  V30 COUNTS 41 43 0 0 1
M  V30 BEGIN ATOM
M  V30 1 O 10.575395 5.931088 -7.853658 0
M  V30 2 O 11.669976 8.252121 -9.397082 0
M  V30 3 C 5.936657 6.858215 -17.324449 0
M  V30 4 C 8.196414 5.481247 -12.008001 0 CFG=1
M  V30 5 C 7.502245 4.902089 -17.803660 0
M  V30 6 S 10.354591 7.190219 -11.519111 0
M  V30 7 F 5.375406 7.989370 -17.782170 0
M  V30 8 C 8.273523 4.839604 -16.476139 0
M  V30 9 C 9.098402 6.136638 -10.968715 0
M  V30 10 C 10.754235 7.510687 -9.750920 0
M  V30 11 C 6.796680 6.208215 -18.135994 0
M  V30 12 C 7.164860 6.540404 -12.454960 0
M  V30 13 C 8.031271 3.985967 -14.069417 0
M  V30 14 C 6.117304 6.105498 -13.488542 0
M  V30 15 C 8.970688 5.990183 -9.660816 0
M  V30 16 C 9.851545 6.764006 -8.726368 0 CFG=1
M  V30 17 C 6.669035 6.054391 -14.931449 0 CFG=2
M  V30 18 C 5.543208 6.391671 -15.936311 0
M  V30 19 C 7.348704 4.703304 -15.257815 0 CFG=1
M  V30 20 C 8.958255 4.842925 -13.188221 0
M  V30 21 H 11.044913 5.289387 -8.366714 0
M  V30 22 H 7.658113 4.684348 -11.492070 0
M  V30 23 H 8.219843 4.734444 -18.607439 0
M  V30 24 H 6.787381 4.082753 -17.882357 0
M  V30 25 H 8.922830 3.964997 -16.529773 0
M  V30 26 H 8.945879 5.691001 -16.369816 0
M  V30 27 H 7.004346 6.621129 -19.112413 0
M  V30 28 H 6.619046 6.872645 -11.573803 0
M  V30 29 H 7.677226 7.431981 -12.819045 0
M  V30 30 H 8.575411 3.130281 -14.459001 0
M  V30 31 H 7.268950 3.523662 -13.440958 0
M  V30 32 H 5.634852 5.169880 -13.204196 0
M  V30 33 H 5.329429 6.855519 -13.430815 0
M  V30 34 H 8.199169 5.363939 -9.236849 0
M  V30 35 H 9.254917 7.478882 -8.158384 0
M  V30 36 H 7.410754 6.849331 -15.013846 0
M  V30 37 H 4.975406 7.232503 -15.539564 0
M  V30 38 H 4.824442 5.590231 -16.030124 0
M  V30 39 H 6.574923 3.998239 -15.550168 0
M  V30 40 H 9.737052 4.195914 -12.781189 0
M  V30 41 H 9.472763 5.590535 -13.791803 0
M  V30 END ATOM
M  V30 BEGIN BOND
M  V30 1 1 7 3
M  V30 2 1 8 5
M  V30 3 1 9 4
M  V30 4 1 9 6
M  V30 5 2 10 2
M  V30 6 1 10 6
M  V30 7 2 11 3
M  V30 8 1 11 5
M  V30 9 1 12 4
M  V30 10 1 14 12
M  V30 11 2 15 9
M  V30 12 1 16 1
M  V30 13 1 16 10
M  V30 14 1 16 15
M  V30 15 1 17 14
M  V30 16 1 18 3
M  V30 17 1 18 17
M  V30 18 1 19 8
M  V30 19 1 19 13
M  V30 20 1 19 17
M  V30 21 1 20 4
M  V30 22 1 20 13
M  V30 23 1 21 1
M  V30 24 1 4 22 CFG=1
M  V30 25 1 23 5
M  V30 26 1 24 5
M  V30 27 1 25 8
M  V30 28 1 26 8
M  V30 29 1 27 11
M  V30 30 1 28 12
M  V30 31 1 29 12
M  V30 32 1 30 13
M  V30 33 1 31 13
M  V30 34 1 32 14
M  V30 35 1 33 14
M  V30 36 1 34 15
M  V30 37 1 16 35 CFG=1
M  V30 38 1 17 36 CFG=1
M  V30 39 1 37 18
M  V30 40 1 38 18
M  V30 41 1 19 39 CFG=3
M  V30 42 1 40 20
M  V30 43 1 41 20
M  V30 END BOND
M  V30 END CTAB
M  END
>  <i_epik_Tot_Q>  (1) 
0

>  <i_epik_Tot_abs_Q>  (1) 
0

>  <i_i_glide_confnum>  (1) 
1

>  <i_i_glide_lignum>  (1) 
59

>  <i_i_glide_posenum>  (1) 
238

>  <i_i_glide_rotatable_bonds>  (1) 
2

>  <i_lp_mmshare_version>  (1) 
72125

>  <i_m_source_file_index>  (1) 
17

>  <i_f3d_flags>  (1) 
0

>  <num_sample>  (1) 
50

>  <b_lp_Chiralities_Consistent>  (1) 
1

>  <r_epik_Charging_Adjusted_Penalty>  (1) 
0.89600900946001893

>  <r_epik_Ionization_Penalty>  (1) 
0.89600900946003292

>  <r_epik_Ionization_Penalty_Charging>  (1) 
0

>  <r_epik_Ionization_Penalty_Neutral>  (1) 
0.89600900946003292

>  <r_epik_State_Penalty>  (1) 
0.89600900946001893

>  <r_glide_ring_energy>  (1) 
0

>  <r_i_docking_score>  (1) 
-4.1209141091302186

>  <r_i_glide_ecoul>  (1) 
-1.5865202894670087

>  <r_i_glide_eff_state_penalty>  (1) 
0.89600900946001893

>  <r_i_glide_einternal>  (1) 
0.54983531844330136

>  <r_i_glide_emodel>  (1) 
-37.977546049406527

>  <r_i_glide_emodel_strain>  (1) 
0.015034233350220916

>  <r_i_glide_energy>  (1) 
-29.256955166164957

>  <r_i_glide_erotb>  (1) 
0.20851456216113889

>  <r_i_glide_esite>  (1) 
-0.0011931757872017835

>  <r_i_glide_evdw>  (1) 
-27.67043487669795

>  <r_i_glide_gscore>  (1) 
-5.0169231185902374

>  <r_i_glide_gscore_strain>  (1) 
0

>  <r_i_glide_hbond>  (1) 
0

>  <r_i_glide_ligand_efficiency>  (1) 
-0.20604570545651094

>  <r_i_glide_ligand_efficiency_ln>  (1) 
-1.0313288846714661

>  <r_i_glide_ligand_efficiency_sa>  (1) 
-0.55929409271487862

>  <r_i_glide_lipo>  (1) 
-1.3584670992835068

>  <r_i_glide_metal>  (1) 
-0

>  <r_i_glide_rewards>  (1) 
-2.2442776184257189

>  <r_lp_Energy>  (1) 
22.466232999999999

>  <s_epik_cmdline>  (1) 
J2VwaWtfcHl0aG9uJywgJy1waHQnLCAnMS4wJywgJy1waCcsICc3LjQnLCAnLXRuJywgJzgnLCAnLW1hJywgJzUwMCcsICctaW1hZScsICc8aW5maWxlLm1hZT4nLCAnLW9tYWUnLCAnPG91dGZpbGUubWFlPic=

>  <s_epik_input>  (1) 
Tz1DKFMxKVtDQEhdKFtPSF0pW0NIXT1DMVtDQEBIXShbQ0gyXVtDSDJdMilbQ0gyXVtDSDJdW0NAQEhdKFtDQEhdMjMpW0NIMl1bQ0gyXVtDSF09QyhGKVtDSDJdMw==

>  <s_glide_docking_method>  (1) 
confgen

>  <s_i_glide_gridfile>  (1) 
gpcr_drd2_6luq_protein_autoprepared_prepared

>  <s_lp_Force_Field>  (1) 
S-OPLS

>  <s_lp_Variant>  (1) 
DiffSBDD_16-2

>  <s_m_source_file>  (1) 
generated_generic_title2_ligand_DiffSBDD_2026-06-23_prepared.sdf

>  <GenAI_Model>  (1) 
DiffSBDD

>  <Protein>  (1) 
generic_title2

$$$$
DiffSBDD_12
     RDKit          3D

  0  0  0  0  0  0  0  0  0  0999 V3000
M  V30 BEGIN CTAB
M  V30 COUNTS 55 56 0 0 1
M  V30 BEGIN ATOM
M  V30 1 C 9.945135 8.173508 -7.711988 0 CFG=2
M  V30 2 C 7.080165 -0.197773 -16.423610 0 CFG=1
M  V30 3 C 5.646447 -0.767717 -16.382851 0
M  V30 4 C 6.557506 1.000638 -14.248611 0
M  V30 5 C 5.186986 0.393719 -14.109222 0
M  V30 6 C 8.908047 4.912394 -12.461669 0
M  V30 7 C 10.780256 6.412582 -6.024278 0
M  V30 8 C 9.715774 7.461388 -6.373514 0
M  V30 9 C 7.344400 0.491236 -17.771569 0
M  V30 10 C 9.871358 7.029090 -11.433542 0
M  V30 11 C 7.971276 2.762444 -13.372022 0
M  V30 12 C 8.604451 6.203052 -11.681105 0 CFG=1
M  V30 13 C 6.503205 4.842048 -13.249346 0
M  V30 14 C 9.878150 7.231913 -8.916551 0
M  V30 15 C 7.503687 7.014253 -12.389847 0
M  V30 16 C 9.857890 7.990599 -10.251281 0
M  V30 17 C 6.226357 6.168596 -12.518357 0
M  V30 18 O 6.870766 1.872865 -13.230086 0
M  V30 19 F 11.127453 8.790239 -7.689651 0
M  V30 20 C 7.403994 0.741950 -15.268143 0
M  V30 21 C 4.629296 -0.079024 -15.460441 0
M  V30 22 O 10.863078 6.916964 -12.153313 0
M  V30 23 O 5.324764 -1.728811 -17.077789 0
M  V30 24 C 7.649904 4.041434 -12.589919 0 CFG=2
M  V30 25 H 9.188118 8.951075 -7.824573 0
M  V30 26 H 7.757557 -1.047972 -16.341029 0
M  V30 27 H 5.249042 -0.409785 -13.384158 0
M  V30 28 H 4.513217 1.131140 -13.672265 0
M  V30 29 H 9.693828 4.347424 -11.956620 0
M  V30 30 H 9.292078 5.153565 -13.454772 0
M  V30 31 H 10.592029 5.990397 -5.037154 0
M  V30 32 H 10.787927 5.591859 -6.741794 0
M  V30 33 H 11.775371 6.853013 -6.009941 0
M  V30 34 H 9.691712 8.211335 -5.585038 0
M  V30 35 H 8.729816 6.993628 -6.385626 0
M  V30 36 H 6.724076 1.380548 -17.891874 0
M  V30 37 H 8.386904 0.799327 -17.854528 0
M  V30 38 H 7.135436 -0.176475 -18.608371 0
M  V30 39 H 8.866485 2.276354 -12.980937 0
M  V30 40 H 8.165004 3.063701 -14.401834 0
M  V30 41 H 8.218010 5.912201 -10.705180 0
M  V30 42 H 6.753185 5.053480 -14.289748 0
M  V30 43 H 5.593402 4.240721 -13.270274 0
M  V30 44 H 8.975438 6.627431 -8.824287 0
M  V30 45 H 10.720051 6.538885 -8.894888 0
M  V30 46 H 7.842148 7.326867 -13.378961 0
M  V30 47 H 7.280655 7.926892 -11.835857 0
M  V30 48 H 10.728853 8.642426 -10.322231 0
M  V30 49 H 8.975379 8.627093 -10.313931 0
M  V30 50 H 5.456463 6.733554 -13.044638 0
M  V30 51 H 5.828469 5.962538 -11.523283 0
M  V30 52 H 8.373460 1.210268 -15.300348 0
M  V30 53 H 3.775156 -0.737733 -15.311862 0
M  V30 54 H 4.256723 0.790208 -15.984985 0
M  V30 55 H 7.334732 3.759860 -11.585133 0
M  V30 END ATOM
M  V30 BEGIN BOND
M  V30 1 1 3 2
M  V30 2 1 5 4
M  V30 3 1 8 1
M  V30 4 1 8 7
M  V30 5 1 9 2
M  V30 6 1 12 6
M  V30 7 1 12 10
M  V30 8 1 14 1
M  V30 9 1 15 12
M  V30 10 1 16 10
M  V30 11 1 16 14
M  V30 12 1 17 13
M  V30 13 1 17 15
M  V30 14 1 18 4
M  V30 15 1 18 11
M  V30 16 1 19 1
M  V30 17 1 20 2
M  V30 18 2 20 4
M  V30 19 1 21 3
M  V30 20 1 21 5
M  V30 21 2 22 10
M  V30 22 2 23 3
M  V30 23 1 24 6
M  V30 24 1 24 11
M  V30 25 1 24 13
M  V30 26 1 1 25 CFG=3
M  V30 27 1 2 26 CFG=1
M  V30 28 1 27 5
M  V30 29 1 28 5
M  V30 30 1 29 6
M  V30 31 1 30 6
M  V30 32 1 31 7
M  V30 33 1 32 7
M  V30 34 1 33 7
M  V30 35 1 34 8
M  V30 36 1 35 8
M  V30 37 1 36 9
M  V30 38 1 37 9
M  V30 39 1 38 9
M  V30 40 1 39 11
M  V30 41 1 40 11
M  V30 42 1 12 41 CFG=1
M  V30 43 1 42 13
M  V30 44 1 43 13
M  V30 45 1 44 14
M  V30 46 1 45 14
M  V30 47 1 46 15
M  V30 48 1 47 15
M  V30 49 1 48 16
M  V30 50 1 49 16
M  V30 51 1 50 17
M  V30 52 1 51 17
M  V30 53 1 52 20
M  V30 54 1 53 21
M  V30 55 1 54 21
M  V30 56 1 24 55 CFG=1
M  V30 END BOND
M  V30 END CTAB
M  END
>  <i_epik_Tot_Q>  (1) 
0

>  <i_epik_Tot_abs_Q>  (1) 
0

>  <i_i_glide_confnum>  (1) 
207

>  <i_i_glide_lignum>  (1) 
48

>  <i_i_glide_posenum>  (1) 
153

>  <i_i_glide_rotatable_bonds>  (1) 
8

>  <i_lp_mmshare_version>  (1) 
72125

>  <i_m_source_file_index>  (1) 
13

>  <i_f3d_flags>  (1) 
0

>  <num_sample>  (1) 
50

>  <b_lp_Chiralities_Consistent>  (1) 
1

>  <r_epik_Charging_Adjusted_Penalty>  (1) 
0

>  <r_epik_Ionization_Penalty>  (1) 
4.1955247269604324e-12

>  <r_epik_Ionization_Penalty_Charging>  (1) 
0

>  <r_epik_Ionization_Penalty_Neutral>  (1) 
4.1955247269604324e-12

>  <r_epik_State_Penalty>  (1) 
-0

>  <r_glide_ring_energy>  (1) 
0

>  <r_i_docking_score>  (1) 
-4.1069248051417633

>  <r_i_glide_ecoul>  (1) 
-1.5704878559617099

>  <r_i_glide_eff_state_penalty>  (1) 
-0

>  <r_i_glide_einternal>  (1) 
3.0773745650794382

>  <r_i_glide_emodel>  (1) 
-41.554397823776938

>  <r_i_glide_emodel_strain>  (1) 
0.6711652293559105

>  <r_i_glide_energy>  (1) 
-35.542702883831623

>  <r_i_glide_erotb>  (1) 
1.1556109002290837

>  <r_i_glide_esite>  (1) 
-0.039806007299611652

>  <r_i_glide_evdw>  (1) 
-33.972215027869915

>  <r_i_glide_gscore>  (1) 
-4.1069248051417633

>  <r_i_glide_gscore_strain>  (1) 
0

>  <r_i_glide_hbond>  (1) 
0

>  <r_i_glide_ligand_efficiency>  (1) 
-0.1711218668809068

>  <r_i_glide_ligand_efficiency_ln>  (1) 
-0.98297556036987244

>  <r_i_glide_ligand_efficiency_sa>  (1) 
-0.49360087795837876

>  <r_i_glide_lipo>  (1) 
-1.2041881706505519

>  <r_i_glide_metal>  (1) 
-0

>  <r_i_glide_rewards>  (1) 
-2.0843575976329305

>  <r_lp_Energy>  (1) 
11.614072

>  <r_lp_tautomer_probability>  (1) 
1

>  <s_epik_cmdline>  (1) 
J2VwaWtfcHl0aG9uJywgJy1waHQnLCAnMS4wJywgJy1waCcsICc3LjQnLCAnLXRuJywgJzgnLCAnLW1hJywgJzUwMCcsICctaW1hZScsICc8aW5maWxlLm1hZT4nLCAnLW9tYWUnLCAnPG91dGZpbGUubWFlPic=

>  <s_epik_input>  (1) 
W0NIM11bQ0gyXVtDQEBIXShGKVtDSDJdW0NIMl1DKD1PKVtDQEBIXTFbQ0gyXVtDQEBIXShbQ0gyXVtDSDJdW0NIMl0xKVtDSDJdT0MoPVtDSF0yKVtDSDJdW0NIMl1DKD1PKVtDQEhdMltDSDNd

>  <s_glide_docking_method>  (1) 
confgen

>  <s_i_glide_gridfile>  (1) 
gpcr_drd2_6luq_protein_autoprepared_prepared

>  <s_lp_Force_Field>  (1) 
S-OPLS

>  <s_lp_Variant>  (1) 
DiffSBDD_12-1

>  <s_m_source_file>  (1) 
generated_generic_title2_ligand_DiffSBDD_2026-06-23_prepared.sdf

>  <GenAI_Model>  (1) 
DiffSBDD

>  <Protein>  (1) 
generic_title2

$$$$
DiffSBDD_39
     RDKit          3D

  0  0  0  0  0  0  0  0  0  0999 V3000
M  V30 BEGIN CTAB
M  V30 COUNTS 69 72 0 0 1
M  V30 BEGIN ATOM
M  V30 1 C 7.957680 5.768118 -15.070857 0
M  V30 2 F 12.824600 3.408402 -20.197195 0
M  V30 3 F 10.973862 4.458793 -19.818412 0
M  V30 4 C 11.565212 8.818508 -9.526330 0
M  V30 5 C 7.612792 6.449704 -12.612302 0
M  V30 6 C 6.685588 4.790812 -11.013579 0 CFG=1
M  V30 7 O 12.870785 8.675947 -8.992532 0
M  V30 8 C 12.136298 5.207940 -17.011054 0 CFG=2
M  V30 9 C 7.493631 2.989861 -14.403181 0
M  V30 10 C 8.882332 5.966571 -10.438123 0 CFG=2
M  V30 11 O 14.258236 6.381447 -17.311456 0
M  V30 12 C 7.570026 3.476624 -15.861501 0
M  V30 13 N 8.386017 4.704317 -16.022298 0 CFG=2 CHG=1
M  V30 14 C 12.954204 5.716103 -19.768769 0
M  V30 15 C 7.996279 5.316420 -13.597564 0 CFG=1
M  V30 16 C 9.849021 4.438376 -16.059851 0
M  V30 17 O 12.531048 6.726748 -18.849623 0
M  V30 18 C 7.031165 3.658193 -11.999370 0
M  V30 19 N 7.566805 5.990226 -11.185032 0 CFG=1 CHG=1
M  V30 20 C 10.862585 7.451598 -9.522091 0 CFG=1
M  V30 21 C 10.468527 7.048329 -8.094656 0
M  V30 22 C 10.633679 5.511485 -16.823659 0
M  V30 23 C 7.052152 4.116619 -13.453427 0 CFG=2
M  V30 24 C 12.865103 6.483238 -17.514410 0 CFG=1
M  V30 25 C 12.366819 4.051191 -17.984270 0
M  V30 26 C 9.865469 5.645646 -8.048364 0
M  V30 27 C 12.259539 4.375093 -19.473323 0
M  V30 28 O 12.615656 2.913724 -17.584987 0
M  V30 29 C 8.662517 5.486895 -8.972899 0
M  V30 30 O 5.401389 5.330516 -11.256959 0
M  V30 31 C 9.635742 7.351439 -10.461462 0
M  V30 32 H 6.947816 6.090057 -15.335832 0
M  V30 33 H 8.575401 6.637578 -15.185201 0
M  V30 34 H 11.001365 9.564016 -8.967740 0
M  V30 35 H 11.673699 9.186416 -10.538848 0
M  V30 36 H 6.621976 6.819079 -12.884219 0
M  V30 37 H 8.265156 7.310346 -12.742366 0
M  V30 38 H 6.629822 4.405250 -9.999476 0
M  V30 39 H 13.404216 9.419533 -9.258828 0
M  V30 40 H 12.568769 4.945074 -16.043718 0
M  V30 41 H 6.792212 2.156433 -14.337467 0
M  V30 42 H 8.460573 2.596636 -14.088968 0
M  V30 43 H 9.527718 5.233889 -10.923861 0
M  V30 44 H 14.643669 7.215856 -17.535648 0
M  V30 45 H 6.575441 3.738050 -16.196321 0
M  V30 46 H 7.908301 2.681164 -16.525874 0
M  V30 47 H 14.038735 5.602397 -19.742192 0
M  V30 48 H 12.711030 6.042823 -20.779434 0
M  V30 49 H 9.011596 5.007892 -13.347853 0
M  V30 50 H 10.241037 4.390290 -15.047622 0
M  V30 51 H 10.017534 3.473976 -16.537297 0
M  V30 52 H 6.319271 2.837817 -11.899784 0
M  V30 53 H 8.027834 3.276957 -11.770647 0
M  V30 54 H 11.621596 6.790342 -9.906389 0
M  V30 55 H 11.338380 7.080914 -7.438899 0
M  V30 56 H 9.747110 7.764174 -7.694796 0
M  V30 57 H 10.162480 5.721362 -17.782685 0
M  V30 58 H 10.562971 6.413892 -16.239675 0
M  V30 59 H 6.041136 4.420796 -13.731780 0
M  V30 60 H 12.544666 7.358209 -16.946006 0
M  V30 61 H 10.599053 4.893290 -8.317334 0
M  V30 62 H 9.563134 5.426820 -7.026224 0
M  V30 63 H 8.430472 4.421843 -8.955693 0
M  V30 64 H 7.805396 5.989872 -8.529761 0
M  V30 65 H 4.889323 5.249358 -10.464045 0
M  V30 66 H 8.975323 8.166721 -10.184280 0
M  V30 67 H 9.972754 7.568680 -11.474669 0
M  V30 68 H 8.162931 5.044901 -16.948374 0
M  V30 69 H 7.085163 6.726364 -10.661698 0
M  V30 END ATOM
M  V30 BEGIN BOND
M  V30 1 1 7 4
M  V30 2 1 12 9
M  V30 3 1 13 1
M  V30 4 1 13 12
M  V30 5 1 15 1
M  V30 6 1 15 5
M  V30 7 1 16 13
M  V30 8 1 17 14
M  V30 9 1 18 6
M  V30 10 1 19 5
M  V30 11 1 19 6
M  V30 12 1 19 10
M  V30 13 1 20 4
M  V30 14 1 21 20
M  V30 15 1 22 8
M  V30 16 1 22 16
M  V30 17 1 23 9
M  V30 18 1 23 15
M  V30 19 1 23 18
M  V30 20 1 24 8
M  V30 21 1 24 11
M  V30 22 1 24 17
M  V30 23 1 25 8
M  V30 24 1 26 21
M  V30 25 1 27 2
M  V30 26 1 27 3
M  V30 27 1 27 14
M  V30 28 1 27 25
M  V30 29 2 28 25
M  V30 30 1 29 10
M  V30 31 1 29 26
M  V30 32 1 30 6
M  V30 33 1 31 10
M  V30 34 1 31 20
M  V30 35 1 32 1
M  V30 36 1 33 1
M  V30 37 1 34 4
M  V30 38 1 35 4
M  V30 39 1 36 5
M  V30 40 1 37 5
M  V30 41 1 6 38 CFG=1
M  V30 42 1 39 7
M  V30 43 1 8 40 CFG=1
M  V30 44 1 41 9
M  V30 45 1 42 9
M  V30 46 1 10 43 CFG=3
M  V30 47 1 44 11
M  V30 48 1 45 12
M  V30 49 1 46 12
M  V30 50 1 47 14
M  V30 51 1 48 14
M  V30 52 1 15 49 CFG=1
M  V30 53 1 50 16
M  V30 54 1 51 16
M  V30 55 1 52 18
M  V30 56 1 53 18
M  V30 57 1 20 54 CFG=3
M  V30 58 1 55 21
M  V30 59 1 56 21
M  V30 60 1 57 22
M  V30 61 1 58 22
M  V30 62 1 23 59 CFG=3
M  V30 63 1 24 60 CFG=1
M  V30 64 1 61 26
M  V30 65 1 62 26
M  V30 66 1 63 29
M  V30 67 1 64 29
M  V30 68 1 65 30
M  V30 69 1 66 31
M  V30 70 1 67 31
M  V30 71 1 13 68 CFG=3
M  V30 72 1 19 69 CFG=1
M  V30 END BOND
M  V30 END CTAB
M  END
>  <i_epik_Tot_Q>  (1) 
2

>  <i_epik_Tot_abs_Q>  (1) 
2

>  <i_i_glide_confnum>  (1) 
77

>  <i_i_glide_lignum>  (1) 
112

>  <i_i_glide_posenum>  (1) 
330

>  <i_i_glide_rotatable_bonds>  (1) 
8

>  <i_lp_mmshare_version>  (1) 
72125

>  <i_m_source_file_index>  (1) 
40

>  <i_f3d_flags>  (1) 
0

>  <num_sample>  (1) 
50

>  <b_lp_Chiralities_Consistent>  (1) 
1

>  <r_epik_Charging_Adjusted_Penalty>  (1) 
1.743801429740254

>  <r_epik_Ionization_Penalty>  (1) 
1.6051069046209219

>  <r_epik_Ionization_Penalty_Charging>  (1) 
0.6098477401054202

>  <r_epik_Ionization_Penalty_Neutral>  (1) 
0.99525916451550167

>  <r_epik_State_Penalty>  (1) 
1.1339536896348337

>  <r_glide_ring_energy>  (1) 
1.2534239858202167

>  <r_i_docking_score>  (1) 
-4.1048990335199882

>  <r_i_glide_ecoul>  (1) 
-11.603177380301343

>  <r_i_glide_eff_state_penalty>  (1) 
1.1339536896348337

>  <r_i_glide_einternal>  (1) 
6.4430438649744923

>  <r_i_glide_emodel>  (1) 
-38.904132828586611

>  <r_i_glide_emodel_strain>  (1) 
0.21579953678272545

>  <r_i_glide_energy>  (1) 
-31.566311932802638

>  <r_i_glide_erotb>  (1) 
0.49785121930328097

>  <r_i_glide_esite>  (1) 
-0.13029192825001698

>  <r_i_glide_evdw>  (1) 
-19.963134552501295

>  <r_i_glide_gscore>  (1) 
-5.2388527231548219

>  <r_i_glide_gscore_strain>  (1) 
0

>  <r_i_glide_hbond>  (1) 
-0.52000000000000002

>  <r_i_glide_ligand_efficiency>  (1) 
-0.1324160978554835

>  <r_i_glide_ligand_efficiency_ln>  (1) 
-0.92578053210612044

>  <r_i_glide_ligand_efficiency_sa>  (1) 
-0.41596936786838135

>  <r_i_glide_lipo>  (1) 
-1.0814017148870947

>  <r_i_glide_metal>  (1) 
-0

>  <r_i_glide_rewards>  (1) 
-1.2663769646507248

>  <r_lp_Energy>  (1) 
50.801770999999995

>  <r_lp_tautomer_probability>  (1) 
0.99995000000000001

>  <s_epik_Chemistry_Notes>  (1) 
This compound contains an acetal/aminal-like group ( X-CH(R)-Y where X, Y are N, S, or O) that may be acid/base labile, releasing an aldehyde.

>  <s_epik_cmdline>  (1) 
J2VwaWtfcHl0aG9uJywgJy1waHQnLCAnMS4wJywgJy1waCcsICc3LjQnLCAnLXRuJywgJzgnLCAnLW1hJywgJzUwMCcsICctaW1hZScsICc8aW5maWxlLm1hZT4nLCAnLW9tYWUnLCAnPG91dGZpbGUubWFlPic=

>  <s_epik_input>  (1) 
RkMxKEYpW0NIMl1PW0NASF0oW09IXSlbQ0BIXShDMT1PKVtDSDJdW0NIMl1OKFtDSDJdMilbQ0gyXVtDSDJdW0NASF0oW0NAQEhdMjMpW0NIMl1bQ0BIXShbT0hdKU4oW0NIMl0zKVtDQEBIXTRbQ0gyXVtDSDJdW0NIMl1bQ0BASF0oW0NIMl00KVtDSDJdW09IXQ==

>  <s_glide_docking_method>  (1) 
confgen

>  <s_i_glide_gridfile>  (1) 
gpcr_drd2_6luq_protein_autoprepared_prepared

>  <s_lp_Force_Field>  (1) 
S-OPLS

>  <s_lp_Variant>  (1) 
DiffSBDD_39-8

>  <s_m_source_file>  (1) 
generated_generic_title2_ligand_DiffSBDD_2026-06-23_prepared.sdf

>  <GenAI_Model>  (1) 
DiffSBDD

>  <Protein>  (1) 
generic_title2

$$$$
DiffSBDD_11
     RDKit          3D

  0  0  0  0  0  0  0  0  0  0999 V3000
M  V30 BEGIN CTAB
M  V30 COUNTS 45 46 0 0 1
M  V30 BEGIN ATOM
M  V30 1 N 8.242059 6.004912 -11.476317 0
M  V30 2 O 10.956653 9.173544 -5.764680 0
M  V30 3 C 6.932617 4.885429 -12.674738 0
M  V30 4 C 13.033987 8.666335 -3.649286 0
M  V30 5 O 9.727532 7.445845 -10.421067 0
M  V30 6 N 7.673761 4.781399 -11.585042 0
M  V30 7 C 6.307731 6.613457 -14.465771 0
M  V30 8 N 6.177334 3.824607 -13.169567 0
M  V30 9 C 7.819005 6.876459 -12.485615 0
M  V30 10 C 9.184385 6.338039 -10.414429 0
M  V30 11 C 6.972695 6.169177 -13.295289 0
M  V30 12 C 11.771506 9.121033 -2.984042 0
M  V30 13 C 10.944265 7.893864 -5.158546 0 CFG=1
M  V30 14 C 11.322920 6.877459 -6.238669 0
M  V30 15 C 12.490412 6.262838 -2.042852 0
M  V30 16 C 9.466884 5.291534 -9.334466 0
M  V30 17 C 10.131390 6.602454 -7.181117 0
M  V30 18 C 8.263609 8.304807 -12.574754 0
M  V30 19 N 11.615482 6.576754 -3.171315 0
M  V30 20 N 5.775465 6.977790 -15.425688 0
M  V30 21 C 11.775396 7.870104 -3.862566 0
M  V30 22 C 10.561523 5.704605 -8.333394 0
M  V30 23 H 10.420478 9.133186 -6.542912 0
M  V30 24 H 13.775409 8.250714 -2.972782 0
M  V30 25 H 13.412791 9.274612 -4.467723 0
M  V30 26 H 5.623372 3.915694 -14.008785 0
M  V30 27 H 6.175807 2.923860 -12.714493 0
M  V30 28 H 11.304578 10.024162 -3.369760 0
M  V30 29 H 11.702171 9.007443 -1.905143 0
M  V30 30 H 9.922038 7.651637 -4.888318 0
M  V30 31 H 12.175375 7.238601 -6.811987 0
M  V30 32 H 11.634637 5.938051 -5.783658 0
M  V30 33 H 12.035060 5.507402 -1.412436 0
M  V30 34 H 13.451914 5.885114 -2.384608 0
M  V30 35 H 12.668091 7.122873 -1.403035 0
M  V30 36 H 9.775115 4.377904 -9.842463 0
M  V30 37 H 8.538291 5.053005 -8.813683 0
M  V30 38 H 9.314708 6.130839 -6.631265 0
M  V30 39 H 9.735061 7.536326 -7.582919 0
M  V30 40 H 7.775412 8.798865 -13.413018 0
M  V30 41 H 7.983004 8.854317 -11.675686 0
M  V30 42 H 9.339534 8.384655 -12.716517 0
M  V30 43 H 11.557879 5.801149 -3.826085 0
M  V30 44 H 11.375392 6.225132 -8.835214 0
M  V30 45 H 10.975226 4.790283 -7.926110 0
M  V30 END ATOM
M  V30 BEGIN BOND
M  V30 1 1 6 1
M  V30 2 2 6 3
M  V30 3 1 8 3
M  V30 4 1 9 1
M  V30 5 1 10 1
M  V30 6 2 10 5
M  V30 7 1 11 3
M  V30 8 1 11 7
M  V30 9 2 11 9
M  V30 10 1 12 4
M  V30 11 1 13 2
M  V30 12 1 14 13
M  V30 13 1 16 10
M  V30 14 1 17 14
M  V30 15 1 18 9
M  V30 16 1 19 15
M  V30 17 3 20 7
M  V30 18 1 21 4
M  V30 19 1 21 12
M  V30 20 1 21 13
M  V30 21 1 21 19
M  V30 22 1 22 16
M  V30 23 1 22 17
M  V30 24 1 23 2
M  V30 25 1 24 4
M  V30 26 1 25 4
M  V30 27 1 26 8
M  V30 28 1 27 8
M  V30 29 1 28 12
M  V30 30 1 29 12
M  V30 31 1 13 30 CFG=1
M  V30 32 1 31 14
M  V30 33 1 32 14
M  V30 34 1 33 15
M  V30 35 1 34 15
M  V30 36 1 35 15
M  V30 37 1 36 16
M  V30 38 1 37 16
M  V30 39 1 38 17
M  V30 40 1 39 17
M  V30 41 1 40 18
M  V30 42 1 41 18
M  V30 43 1 42 18
M  V30 44 1 43 19
M  V30 45 1 44 22
M  V30 46 1 45 22
M  V30 END BOND
M  V30 END CTAB
M  END
>  <i_epik_Tot_Q>  (1) 
0

>  <i_epik_Tot_abs_Q>  (1) 
0

>  <i_i_glide_confnum>  (1) 
34

>  <i_i_glide_lignum>  (1) 
47

>  <i_i_glide_posenum>  (1) 
55

>  <i_i_glide_rotatable_bonds>  (1) 
9

>  <i_lp_mmshare_version>  (1) 
72125

>  <i_m_source_file_index>  (1) 
12

>  <i_f3d_flags>  (1) 
0

>  <num_sample>  (1) 
50

>  <b_lp_Chiralities_Consistent>  (1) 
1

>  <r_epik_Charging_Adjusted_Penalty>  (1) 
0.42979424815249201

>  <r_epik_Ionization_Penalty>  (1) 
0.43485796908512792

>  <r_epik_Ionization_Penalty_Charging>  (1) 
0

>  <r_epik_Ionization_Penalty_Neutral>  (1) 
0.43485796908512792

>  <r_epik_State_Penalty>  (1) 
0.42979424815249201

>  <r_glide_ring_energy>  (1) 
0

>  <r_i_docking_score>  (1) 
-4.0939129373185379

>  <r_i_glide_ecoul>  (1) 
-2.2769150676023022

>  <r_i_glide_eff_state_penalty>  (1) 
0.42979424815249201

>  <r_i_glide_einternal>  (1) 
2.2707499580166424

>  <r_i_glide_emodel>  (1) 
-39.670201115485071

>  <r_i_glide_emodel_strain>  (1) 
0.14611377695091221

>  <r_i_glide_energy>  (1) 
-31.29475466092002

>  <r_i_glide_erotb>  (1) 
1.3853326947408005

>  <r_i_glide_esite>  (1) 
-0.157089210236663

>  <r_i_glide_evdw>  (1) 
-29.017839593317717

>  <r_i_glide_gscore>  (1) 
-4.5237071854710296

>  <r_i_glide_gscore_strain>  (1) 
0

>  <r_i_glide_hbond>  (1) 
0

>  <r_i_glide_ligand_efficiency>  (1) 
-0.18608695169629719

>  <r_i_glide_ligand_efficiency_ln>  (1) 
-1.0007016509833246

>  <r_i_glide_ligand_efficiency_sa>  (1) 
-0.52142295757479395

>  <r_i_glide_lipo>  (1) 
-1.7315861619785746

>  <r_i_glide_metal>  (1) 
-0

>  <r_i_glide_rewards>  (1) 
-2.227935268190361

>  <r_lp_Energy>  (1) 
19.305067999999999

>  <s_epik_cmdline>  (1) 
J2VwaWtfcHl0aG9uJywgJy1waHQnLCAnMS4wJywgJy1waCcsICc3LjQnLCAnLXRuJywgJzgnLCAnLW1hJywgJzUwMCcsICctaW1hZScsICc8aW5maWxlLm1hZT4nLCAnLW9tYWUnLCAnPG91dGZpbGUubWFlPic=

>  <s_epik_input>  (1) 
W0NIM11jMWMoQyNOKWMoW05IMl0pbm4xQyg9TylbQ0gyXVtDSDJdW0NIMl1bQ0gyXVtDQEhdKFtPSF0pQzIoW0NIMl1bQ0gyXTIpW05IXVtDSDNd

>  <s_glide_docking_method>  (1) 
confgen

>  <s_i_glide_gridfile>  (1) 
gpcr_drd2_6luq_protein_autoprepared_prepared

>  <s_lp_Force_Field>  (1) 
S-OPLS

>  <s_lp_Variant>  (1) 
DiffSBDD_11-2

>  <s_m_source_file>  (1) 
generated_generic_title2_ligand_DiffSBDD_2026-06-23_prepared.sdf

>  <GenAI_Model>  (1) 
DiffSBDD

>  <Protein>  (1) 
generic_title2

$$$$
DiffSBDD_0
     RDKit          3D

  0  0  0  0  0  0  0  0  0  0999 V3000
M  V30 BEGIN CTAB
M  V30 COUNTS 70 74 0 0 1
M  V30 BEGIN ATOM
M  V30 1 C 11.517277 7.377235 -5.775928 0
M  V30 2 N 7.213724 4.828080 -13.611437 0
M  V30 3 C 7.197707 4.854762 -17.842400 0 CFG=1
M  V30 4 C 8.662167 5.962684 -12.025274 0
M  V30 5 F 11.454241 9.174194 -9.001963 0
M  V30 6 C 6.671817 6.049640 -14.213496 0
M  V30 7 C 10.119988 6.763966 -5.821996 0
M  V30 8 C 9.866766 7.117655 -10.367862 0
M  V30 9 C 9.617432 8.050769 -7.966780 0 CFG=1
M  V30 10 C 9.812561 4.292836 -17.839734 0
M  V30 11 C 6.883500 3.602239 -14.332673 0 CFG=1
M  V30 12 C 6.809731 0.380889 -12.639977 0
M  V30 13 C 8.458357 4.266621 -18.478997 0 CFG=1
M  V30 14 O 9.634236 5.908430 -11.072242 0
M  V30 15 C 10.997467 8.720166 -7.835137 0 CFG=1
M  V30 16 C 7.332088 3.355850 -18.035913 0 CFG=1
M  V30 17 N 7.006083 4.932755 -16.372908 0 CFG=1 CHG=1
M  V30 18 C 9.574728 6.819677 -8.899294 0
M  V30 19 C 6.324505 1.798488 -12.938365 0
M  V30 20 C 7.566310 3.749720 -15.699132 0 CFG=2
M  V30 21 O 6.575423 -0.409767 -13.783297 0
M  V30 22 C 9.126753 7.672213 -6.557358 0
M  V30 23 N 10.369560 5.427731 -17.325340 0
M  V30 24 C 7.235073 6.198097 -15.644308 0
M  V30 25 N 10.563609 3.193005 -17.778176 0
M  V30 26 O 11.757006 3.630013 -17.185130 0
M  V30 27 C 11.546328 4.939528 -16.961168 0
M  V30 28 O 7.311817 2.422409 -13.746468 0
M  V30 29 N 12.614416 5.603587 -16.385034 0
M  V30 30 C 8.192861 4.857259 -12.623051 0
M  V30 31 C 12.010341 7.789501 -7.185275 0
M  V30 32 C 12.791321 6.993763 -16.016286 0
M  V30 33 C 7.341144 2.621067 -16.703672 0
M  V30 34 H 11.516233 8.244570 -5.114076 0
M  V30 35 H 12.175384 6.634853 -5.323031 0
M  V30 36 H 6.462523 5.392822 -18.437320 0
M  V30 37 H 8.333213 6.967876 -12.234200 0
M  V30 38 H 5.585177 5.957562 -14.249638 0
M  V30 39 H 6.865212 6.948439 -13.633263 0
M  V30 40 H 9.775416 6.551460 -4.810919 0
M  V30 41 H 10.167765 5.799643 -6.324178 0
M  V30 42 H 10.912871 7.383934 -10.514263 0
M  V30 43 H 9.268440 7.968275 -10.698464 0
M  V30 44 H 8.930414 8.792266 -8.372332 0
M  V30 45 H 5.798333 3.591202 -14.435606 0
M  V30 46 H 6.259489 -0.046948 -11.800918 0
M  V30 47 H 7.869392 0.374894 -12.385138 0
M  V30 48 H 8.573169 4.410787 -19.551107 0
M  V30 49 H 10.920901 9.590224 -7.185133 0
M  V30 50 H 6.764335 2.878622 -18.832663 0
M  V30 51 H 8.575408 6.387782 -8.841726 0
M  V30 52 H 10.246038 6.031684 -8.563994 0
M  V30 53 H 5.355333 1.752113 -13.437112 0
M  V30 54 H 6.186302 2.368731 -12.018808 0
M  V30 55 H 8.635034 3.882696 -15.526329 0
M  V30 56 H 5.922687 -1.080242 -13.585001 0
M  V30 57 H 8.950960 8.580840 -5.985050 0
M  V30 58 H 8.175414 7.153772 -6.608628 0
M  V30 59 H 6.755541 7.029853 -16.161792 0
M  V30 60 H 8.304996 6.390023 -15.585029 0
M  V30 61 H 13.411302 5.019947 -16.179363 0
M  V30 62 H 8.571064 3.879787 -12.361466 0
M  V30 63 H 12.967101 8.312929 -7.185031 0
M  V30 64 H 12.155164 6.901158 -7.790695 0
M  V30 65 H 13.846171 7.261444 -16.074804 0
M  V30 66 H 12.232640 7.644056 -16.690479 0
M  V30 67 H 12.447255 7.161826 -14.995683 0
M  V30 68 H 6.387750 2.115511 -16.551146 0
M  V30 69 H 8.128971 1.868053 -16.668661 0
M  V30 70 H 6.010033 4.795983 -16.281490 0
M  V30 END ATOM
M  V30 BEGIN BOND
M  V30 1 1 6 2
M  V30 2 1 7 1
M  V30 3 1 11 2
M  V30 4 1 13 3
M  V30 5 1 13 10
M  V30 6 1 14 4
M  V30 7 1 14 8
M  V30 8 1 15 5
M  V30 9 1 15 9
M  V30 10 1 16 3
M  V30 11 1 16 13
M  V30 12 1 17 3
M  V30 13 1 18 8
M  V30 14 1 18 9
M  V30 15 1 19 12
M  V30 16 1 20 11
M  V30 17 1 20 17
M  V30 18 1 21 12
M  V30 19 1 22 7
M  V30 20 1 22 9
M  V30 21 1 23 10
M  V30 22 1 24 6
M  V30 23 1 24 17
M  V30 24 2 25 10
M  V30 25 1 26 25
M  V30 26 2 27 23
M  V30 27 1 27 26
M  V30 28 1 28 11
M  V30 29 1 28 19
M  V30 30 1 29 27
M  V30 31 1 30 2
M  V30 32 2 30 4
M  V30 33 1 31 1
M  V30 34 1 31 15
M  V30 35 1 32 29
M  V30 36 1 33 16
M  V30 37 1 33 20
M  V30 38 1 34 1
M  V30 39 1 35 1
M  V30 40 1 3 36 CFG=3
M  V30 41 1 37 4
M  V30 42 1 38 6
M  V30 43 1 39 6
M  V30 44 1 40 7
M  V30 45 1 41 7
M  V30 46 1 42 8
M  V30 47 1 43 8
M  V30 48 1 9 44 CFG=3
M  V30 49 1 11 45 CFG=3
M  V30 50 1 46 12
M  V30 51 1 47 12
M  V30 52 1 13 48 CFG=3
M  V30 53 1 15 49 CFG=1
M  V30 54 1 16 50 CFG=3
M  V30 55 1 51 18
M  V30 56 1 52 18
M  V30 57 1 53 19
M  V30 58 1 54 19
M  V30 59 1 20 55 CFG=1
M  V30 60 1 56 21
M  V30 61 1 57 22
M  V30 62 1 58 22
M  V30 63 1 59 24
M  V30 64 1 60 24
M  V30 65 1 61 29
M  V30 66 1 62 30
M  V30 67 1 63 31
M  V30 68 1 64 31
M  V30 69 1 65 32
M  V30 70 1 66 32
M  V30 71 1 67 32
M  V30 72 1 68 33
M  V30 73 1 69 33
M  V30 74 1 17 70 CFG=3
M  V30 END BOND
M  V30 END CTAB
M  END
>  <i_epik_Tot_Q>  (1) 
1

>  <i_epik_Tot_abs_Q>  (1) 
1

>  <i_i_glide_confnum>  (1) 
133

>  <i_i_glide_lignum>  (1) 
14

>  <i_i_glide_posenum>  (1) 
137

>  <i_i_glide_rotatable_bonds>  (1) 
11

>  <i_lp_mmshare_version>  (1) 
72125

>  <i_m_source_file_index>  (1) 
1

>  <i_f3d_flags>  (1) 
0

>  <num_sample>  (1) 
50

>  <b_lp_Chiralities_Consistent>  (1) 
1

>  <r_epik_Charging_Adjusted_Penalty>  (1) 
0.41344222577729461

>  <r_epik_Ionization_Penalty>  (1) 
0.0027644559619576371

>  <r_epik_Ionization_Penalty_Charging>  (1) 
0.0027623868246906495

>  <r_epik_Ionization_Penalty_Neutral>  (1) 
2.0691372669875143e-06

>  <r_epik_State_Penalty>  (1) 
0.41067983895260396

>  <r_glide_ring_energy>  (1) 
1.7272227408313596

>  <r_i_docking_score>  (1) 
-4.0919694275803655

>  <r_i_glide_ecoul>  (1) 
-2.2730266993968113

>  <r_i_glide_eff_state_penalty>  (1) 
0.41067983895260396

>  <r_i_glide_einternal>  (1) 
6.537114760870514

>  <r_i_glide_emodel>  (1) 
-37.28413378399739

>  <r_i_glide_emodel_strain>  (1) 
1.2084259874114736

>  <r_i_glide_energy>  (1) 
-32.637569528664585

>  <r_i_glide_erotb>  (1) 
0.74142510397790429

>  <r_i_glide_esite>  (1) 
0

>  <r_i_glide_evdw>  (1) 
-30.364542829267776

>  <r_i_glide_gscore>  (1) 
-4.5026492665329698

>  <r_i_glide_gscore_strain>  (1) 
0

>  <r_i_glide_hbond>  (1) 
-0.16

>  <r_i_glide_ligand_efficiency>  (1) 
-0.12399907356304138

>  <r_i_glide_ligand_efficiency_ln>  (1) 
-0.91003281361008559

>  <r_i_glide_ligand_efficiency_sa>  (1) 
-0.39773128534113317

>  <r_i_glide_lipo>  (1) 
-2.0189341045867906

>  <r_i_glide_metal>  (1) 
-0

>  <r_i_glide_rewards>  (1) 
-1.2059591195511727

>  <r_lp_Energy>  (1) 
49.633499

>  <r_lp_tautomer_probability>  (1) 
0.5

>  <s_epik_Chemistry_Notes>  (1) 
This compound has an imine and may undergo hydrolysis. This compound contains an acetal/aminal-like group ( X-CH(R)-Y where X, Y are N, S, or O) that may be acid/base labile, releasing an aldehyde.

>  <s_epik_cmdline>  (1) 
J2VwaWtfcHl0aG9uJywgJy1waHQnLCAnMS4wJywgJy1waCcsICc3LjQnLCAnLXRuJywgJzgnLCAnLW1hJywgJzUwMCcsICctaW1hZScsICc8aW5maWxlLm1hZT4nLCAnLW9tYWUnLCAnPG91dGZpbGUubWFlPic=

>  <s_epik_input>  (1) 
W0NIMl0xW0NIMl1bQ0gyXVtDSDJdW0NASF0oRilbQ0BIXTFbQ0gyXVtDSDJdTy9bQ0hdPVtDSF0vTihbQ0BIXTJPW0NIMl1bQ0gyXVtPSF0pW0NIMl1bQ0gyXU4zW0NAQEhdMltDSDJdW0NAQEhdKFtDQEBIXTM0KVtDQEBIXTRjNW5jKG9uNSlbTkhdW0NIM10=

>  <s_glide_docking_method>  (1) 
confgen

>  <s_i_glide_gridfile>  (1) 
gpcr_drd2_6luq_protein_autoprepared_prepared

>  <s_lp_Force_Field>  (1) 
S-OPLS

>  <s_lp_Variant>  (1) 
DiffSBDD_0-14

>  <s_m_source_file>  (1) 
generated_generic_title2_ligand_DiffSBDD_2026-06-23_prepared.sdf

>  <GenAI_Model>  (1) 
DiffSBDD

>  <Protein>  (1) 
generic_title2

$$$$
DiffSBDD_39
     RDKit          3D

  0  0  0  0  0  0  0  0  0  0999 V3000
M  V30 BEGIN CTAB
M  V30 COUNTS 68 71 0 0 1
M  V30 BEGIN ATOM
M  V30 1 C 8.255065 3.176266 -13.442628 0
M  V30 2 F 6.849421 0.685708 -20.110402 0
M  V30 3 F 7.442088 2.161103 -18.645056 0
M  V30 4 C 10.811939 8.790238 -7.420859 0
M  V30 5 C 9.259886 5.382827 -12.553330 0
M  V30 6 C 7.791756 7.224484 -11.848981 0 CFG=1
M  V30 7 O 11.494867 8.612353 -6.197566 0
M  V30 8 C 7.095053 -0.084745 -16.478777 0 CFG=2
M  V30 9 C 5.640032 3.988011 -12.382324 0
M  V30 10 C 9.600469 6.425438 -10.305872 0 CFG=2
M  V30 11 O 8.412863 -2.017063 -17.185028 0
M  V30 12 C 5.815250 2.875058 -13.414542 0
M  V30 13 N 7.132140 2.210126 -13.292232 0 CFG=1 CHG=1
M  V30 14 C 8.782226 0.248832 -18.848117 0
M  V30 15 C 8.098522 4.360371 -12.473853 0 CFG=1
M  V30 16 C 7.246561 0.972964 -14.116221 0
M  V30 17 O 9.263421 0.132060 -17.505219 0
M  V30 18 C 6.592841 6.258730 -11.700559 0
M  V30 19 N 9.089344 6.563489 -11.685700 0
M  V30 20 C 10.637803 7.484970 -8.203890 0 CFG=1
M  V30 21 C 9.876816 6.457629 -7.335439 0
M  V30 22 C 7.208891 1.214746 -15.643584 0
M  V30 23 C 6.726422 5.041484 -12.628347 0 CFG=2
M  V30 24 C 8.492387 -0.703327 -16.688639 0 CFG=1
M  V30 25 C 6.467047 0.194605 -17.843473 0
M  V30 26 C 9.582917 5.186722 -8.126955 0
M  V30 27 C 7.364673 0.852905 -18.891390 0
M  V30 28 O 5.294054 -0.088378 -18.081335 0
M  V30 29 C 8.789940 5.516214 -9.365621 0
M  V30 30 O 7.775358 7.751597 -13.156004 0
M  V30 31 C 9.911896 7.747214 -9.560780 0
M  V30 32 H 8.330785 3.536850 -14.469226 0
M  V30 33 H 9.176294 2.655696 -13.184959 0
M  V30 34 H 9.823351 9.190207 -7.198078 0
M  V30 35 H 11.375478 9.514447 -8.013480 0
M  V30 36 H 9.339753 5.737604 -13.581715 0
M  V30 37 H 10.210926 4.895219 -12.340570 0
M  V30 38 H 7.741981 8.084246 -11.185628 0
M  V30 39 H 11.517175 9.441039 -5.744223 0
M  V30 40 H 6.467702 -0.806997 -15.954072 0
M  V30 41 H 4.646180 4.418062 -12.488577 0
M  V30 42 H 5.702775 3.590897 -11.366873 0
M  V30 43 H 10.575410 5.990312 -10.453986 0
M  V30 44 H 8.152176 -2.581676 -16.461194 0
M  V30 45 H 5.775594 3.355592 -14.384968 0
M  V30 46 H 5.010395 2.142797 -13.357441 0
M  V30 47 H 8.803528 -0.720847 -19.348187 0
M  V30 48 H 9.472030 0.883998 -19.404030 0
M  V30 49 H 8.119138 3.863797 -11.520334 0
M  V30 50 H 8.167415 0.456768 -13.841400 0
M  V30 51 H 6.434536 0.301168 -13.834470 0
M  V30 52 H 5.667525 6.793413 -11.919057 0
M  V30 53 H 6.481531 5.925071 -10.672602 0
M  V30 54 H 11.627308 7.080938 -8.420678 0
M  V30 55 H 10.456053 6.199372 -6.447784 0
M  V30 56 H 8.940463 6.889639 -6.976846 0
M  V30 57 H 6.348477 1.837987 -15.881624 0
M  V30 58 H 8.080087 1.790962 -15.955551 0
M  V30 59 H 6.633604 5.406260 -13.652553 0
M  V30 60 H 8.975390 -0.800174 -15.720871 0
M  V30 61 H 10.510129 4.677333 -8.384847 0
M  V30 62 H 8.975497 4.473271 -7.583990 0
M  V30 63 H 8.529685 4.559849 -9.775247 0
M  V30 64 H 7.863671 5.989727 -9.050024 0
M  V30 65 H 7.774054 8.693316 -13.083452 0
M  V30 66 H 8.992761 8.301136 -9.366986 0
M  V30 67 H 10.528834 8.388330 -10.190242 0
M  V30 68 H 7.182934 1.890289 -12.335427 0
M  V30 END ATOM
M  V30 BEGIN BOND
M  V30 1 1 7 4
M  V30 2 1 12 9
M  V30 3 1 13 1
M  V30 4 1 13 12
M  V30 5 1 15 1
M  V30 6 1 15 5
M  V30 7 1 16 13
M  V30 8 1 17 14
M  V30 9 1 18 6
M  V30 10 1 19 5
M  V30 11 1 19 6
M  V30 12 1 19 10
M  V30 13 1 20 4
M  V30 14 1 21 20
M  V30 15 1 22 8
M  V30 16 1 22 16
M  V30 17 1 23 9
M  V30 18 1 23 15
M  V30 19 1 23 18
M  V30 20 1 24 8
M  V30 21 1 24 11
M  V30 22 1 24 17
M  V30 23 1 25 8
M  V30 24 1 26 21
M  V30 25 1 27 2
M  V30 26 1 27 3
M  V30 27 1 27 14
M  V30 28 1 27 25
M  V30 29 2 28 25
M  V30 30 1 29 10
M  V30 31 1 29 26
M  V30 32 1 30 6
M  V30 33 1 31 10
M  V30 34 1 31 20
M  V30 35 1 32 1
M  V30 36 1 33 1
M  V30 37 1 34 4
M  V30 38 1 35 4
M  V30 39 1 36 5
M  V30 40 1 37 5
M  V30 41 1 6 38 CFG=1
M  V30 42 1 39 7
M  V30 43 1 8 40 CFG=1
M  V30 44 1 41 9
M  V30 45 1 42 9
M  V30 46 1 10 43 CFG=3
M  V30 47 1 44 11
M  V30 48 1 45 12
M  V30 49 1 46 12
M  V30 50 1 47 14
M  V30 51 1 48 14
M  V30 52 1 15 49 CFG=1
M  V30 53 1 50 16
M  V30 54 1 51 16
M  V30 55 1 52 18
M  V30 56 1 53 18
M  V30 57 1 20 54 CFG=3
M  V30 58 1 55 21
M  V30 59 1 56 21
M  V30 60 1 57 22
M  V30 61 1 58 22
M  V30 62 1 23 59 CFG=3
M  V30 63 1 24 60 CFG=1
M  V30 64 1 61 26
M  V30 65 1 62 26
M  V30 66 1 63 29
M  V30 67 1 64 29
M  V30 68 1 65 30
M  V30 69 1 66 31
M  V30 70 1 67 31
M  V30 71 1 13 68 CFG=1
M  V30 END BOND
M  V30 END CTAB
M  END
>  <i_epik_Tot_Q>  (1) 
1

>  <i_epik_Tot_abs_Q>  (1) 
1

>  <i_i_glide_confnum>  (1) 
34

>  <i_i_glide_lignum>  (1) 
109

>  <i_i_glide_posenum>  (1) 
351

>  <i_i_glide_rotatable_bonds>  (1) 
8

>  <i_lp_mmshare_version>  (1) 
72125

>  <i_m_source_file_index>  (1) 
40

>  <i_f3d_flags>  (1) 
0

>  <num_sample>  (1) 
50

>  <b_lp_Chiralities_Consistent>  (1) 
1

>  <r_epik_Charging_Adjusted_Penalty>  (1) 
0.93182942678714009

>  <r_epik_Ionization_Penalty>  (1) 
0.32046720352224994

>  <r_epik_Ionization_Penalty_Charging>  (1) 
0.0037689991519664944

>  <r_epik_Ionization_Penalty_Neutral>  (1) 
0.31669820437028345

>  <r_epik_State_Penalty>  (1) 
0.9280604276351736

>  <r_glide_ring_energy>  (1) 
1.2534239858202201

>  <r_i_docking_score>  (1) 
-4.0898021939970777

>  <r_i_glide_ecoul>  (1) 
-8.8033405722285956

>  <r_i_glide_eff_state_penalty>  (1) 
0.9280604276351736

>  <r_i_glide_einternal>  (1) 
12.420502217160601

>  <r_i_glide_emodel>  (1) 
-36.859333520837531

>  <r_i_glide_emodel_strain>  (1) 
0.53993642219030846

>  <r_i_glide_energy>  (1) 
-33.535902581325132

>  <r_i_glide_erotb>  (1) 
0.49989103335302049

>  <r_i_glide_esite>  (1) 
-0.12631947431852739

>  <r_i_glide_evdw>  (1) 
-24.732562009096533

>  <r_i_glide_gscore>  (1) 
-5.0178626216322515

>  <r_i_glide_gscore_strain>  (1) 
0

>  <r_i_glide_hbond>  (1) 
-0.32000000000000001

>  <r_i_glide_ligand_efficiency>  (1) 
-0.13192910303216379

>  <r_i_glide_ligand_efficiency_ln>  (1) 
-0.92237573213113644

>  <r_i_glide_ligand_efficiency_sa>  (1) 
-0.41443953175259007

>  <r_i_glide_lipo>  (1) 
-1.3111383250405495

>  <r_i_glide_metal>  (1) 
-0

>  <r_i_glide_rewards>  (1) 
-1.2031666693370793

>  <r_lp_Energy>  (1) 
47.661428000000001

>  <s_epik_Chemistry_Notes>  (1) 
This compound contains an acetal/aminal-like group ( X-CH(R)-Y where X, Y are N, S, or O) that may be acid/base labile, releasing an aldehyde.

>  <s_epik_cmdline>  (1) 
J2VwaWtfcHl0aG9uJywgJy1waHQnLCAnMS4wJywgJy1waCcsICc3LjQnLCAnLXRuJywgJzgnLCAnLW1hJywgJzUwMCcsICctaW1hZScsICc8aW5maWxlLm1hZT4nLCAnLW9tYWUnLCAnPG91dGZpbGUubWFlPic=

>  <s_epik_input>  (1) 
RkMxKEYpW0NIMl1PW0NASF0oW09IXSlbQ0BIXShDMT1PKVtDSDJdW0NIMl1OKFtDSDJdMilbQ0gyXVtDSDJdW0NASF0oW0NAQEhdMjMpW0NIMl1bQ0BIXShbT0hdKU4oW0NIMl0zKVtDQEBIXTRbQ0gyXVtDSDJdW0NIMl1bQ0BASF0oW0NIMl00KVtDSDJdW09IXQ==

>  <s_glide_docking_method>  (1) 
confgen

>  <s_i_glide_gridfile>  (1) 
gpcr_drd2_6luq_protein_autoprepared_prepared

>  <s_lp_Force_Field>  (1) 
S-OPLS

>  <s_lp_Variant>  (1) 
DiffSBDD_39-5

>  <s_m_source_file>  (1) 
generated_generic_title2_ligand_DiffSBDD_2026-06-23_prepared.sdf

>  <GenAI_Model>  (1) 
DiffSBDD

>  <Protein>  (1) 
generic_title2

$$$$
DiffSBDD_0
     RDKit          3D

  0  0  0  0  0  0  0  0  0  0999 V3000
M  V30 BEGIN CTAB
M  V30 COUNTS 70 74 0 0 1
M  V30 BEGIN ATOM
M  V30 1 C 6.356515 4.736602 -20.455778 0
M  V30 2 N 7.095870 5.594951 -13.174212 0
M  V30 3 C 6.223406 1.423682 -12.978906 0 CFG=1
M  V30 4 C 6.672454 7.460413 -14.705487 0
M  V30 5 F 7.535812 5.787323 -17.996775 0
M  V30 6 C 5.708875 5.172153 -12.977299 0
M  V30 7 C 5.518216 5.957194 -20.863012 0
M  V30 8 C 4.791132 7.799982 -16.132896 0
M  V30 9 C 5.387885 6.691068 -18.422308 0 CFG=1
M  V30 10 C 7.152223 0.861409 -15.402776 0
M  V30 11 C 8.111856 4.682552 -12.630237 0 CFG=2
M  V30 12 C 8.794432 5.427575 -9.091422 0
M  V30 13 C 6.910223 0.486998 -13.971863 0 CFG=1
M  V30 14 O 5.418779 7.041658 -15.094497 0
M  V30 15 C 6.239673 5.471744 -18.026554 0 CFG=1
M  V30 16 C 7.636384 0.954772 -12.727853 0 CFG=1
M  V30 17 N 6.436488 2.895171 -12.944965 0 CFG=1 CHG=1
M  V30 18 C 5.593000 7.853973 -17.437379 0
M  V30 19 C 8.726640 5.681981 -10.600213 0
M  V30 20 C 7.824363 3.279916 -13.232253 0 CFG=2
M  V30 21 O 9.375408 6.549977 -8.465220 0
M  V30 22 C 5.704136 7.118066 -19.871444 0
M  V30 23 N 8.370953 1.237367 -15.877571 0
M  V30 24 C 5.490694 3.798468 -13.595949 0
M  V30 25 N 6.174865 0.790184 -16.305245 0
M  V30 26 O 6.798621 1.137690 -17.514174 0
M  V30 27 C 8.074642 1.370828 -17.158422 0
M  V30 28 O 8.084575 4.590331 -11.242263 0
M  V30 29 N 8.910458 1.724717 -18.202770 0
M  V30 30 C 7.443570 6.770673 -13.834561 0
M  V30 31 C 6.048659 4.306059 -19.012503 0
M  V30 32 C 10.324522 2.048267 -18.228860 0
M  V30 33 C 8.611355 2.125341 -12.661036 0
M  V30 34 H 6.167456 3.910299 -21.141343 0
M  V30 35 H 7.416811 4.978034 -20.548806 0
M  V30 36 H 5.428726 1.042942 -12.345480 0
M  V30 37 H 6.972659 8.383293 -15.180974 0
M  V30 38 H 5.532106 5.116555 -11.901720 0
M  V30 39 H 4.975361 5.887490 -13.318945 0
M  V30 40 H 4.465203 5.679957 -20.912543 0
M  V30 41 H 5.798664 6.279400 -21.866032 0
M  V30 42 H 3.808117 7.396816 -16.384882 0
M  V30 43 H 4.617667 8.803529 -15.750256 0
M  V30 44 H 4.336554 6.400846 -18.399677 0
M  V30 45 H 9.099189 5.017576 -12.959361 0
M  V30 46 H 9.388848 4.539554 -8.874534 0
M  V30 47 H 7.795512 5.269801 -8.682960 0
M  V30 48 H 6.573688 -0.548779 -13.955361 0
M  V30 49 H 5.992529 5.190225 -17.005667 0
M  V30 50 H 7.776377 0.179400 -11.985037 0
M  V30 51 H 5.375411 8.790097 -17.944284 0
M  V30 52 H 6.637344 7.913199 -17.185019 0
M  V30 53 H 8.182810 6.602830 -10.811256 0
M  V30 54 H 9.740486 5.807593 -10.985240 0
M  V30 55 H 7.984382 3.338758 -14.309272 0
M  V30 56 H 8.741827 7.255258 -8.553062 0
M  V30 57 H 5.060428 7.947830 -20.164798 0
M  V30 58 H 6.728459 7.488505 -19.934160 0
M  V30 59 H 4.456859 3.472777 -13.486260 0
M  V30 60 H 5.775408 3.850540 -14.650406 0
M  V30 61 H 8.464127 1.760912 -19.106868 0
M  V30 62 H 8.435966 7.112365 -13.584977 0
M  V30 63 H 5.026479 3.933016 -18.955997 0
M  V30 64 H 6.695979 3.478762 -18.732476 0
M  V30 65 H 10.494143 2.953995 -18.811636 0
M  V30 66 H 10.701780 2.210924 -17.218696 0
M  V30 67 H 10.891056 1.233789 -18.682368 0
M  V30 68 H 8.975410 2.390234 -11.666004 0
M  V30 69 H 9.491116 1.836640 -13.185023 0
M  V30 70 H 6.345936 3.116610 -11.962675 0
M  V30 END ATOM
M  V30 BEGIN BOND
M  V30 1 1 6 2
M  V30 2 1 7 1
M  V30 3 1 11 2
M  V30 4 1 13 3
M  V30 5 1 13 10
M  V30 6 1 14 4
M  V30 7 1 14 8
M  V30 8 1 15 5
M  V30 9 1 15 9
M  V30 10 1 16 3
M  V30 11 1 16 13
M  V30 12 1 17 3
M  V30 13 1 18 8
M  V30 14 1 18 9
M  V30 15 1 19 12
M  V30 16 1 20 11
M  V30 17 1 20 17
M  V30 18 1 21 12
M  V30 19 1 22 7
M  V30 20 1 22 9
M  V30 21 1 23 10
M  V30 22 1 24 6
M  V30 23 1 24 17
M  V30 24 2 25 10
M  V30 25 1 26 25
M  V30 26 2 27 23
M  V30 27 1 27 26
M  V30 28 1 28 11
M  V30 29 1 28 19
M  V30 30 1 29 27
M  V30 31 1 30 2
M  V30 32 2 30 4
M  V30 33 1 31 1
M  V30 34 1 31 15
M  V30 35 1 32 29
M  V30 36 1 33 16
M  V30 37 1 33 20
M  V30 38 1 34 1
M  V30 39 1 35 1
M  V30 40 1 3 36 CFG=1
M  V30 41 1 37 4
M  V30 42 1 38 6
M  V30 43 1 39 6
M  V30 44 1 40 7
M  V30 45 1 41 7
M  V30 46 1 42 8
M  V30 47 1 43 8
M  V30 48 1 9 44 CFG=3
M  V30 49 1 11 45 CFG=1
M  V30 50 1 46 12
M  V30 51 1 47 12
M  V30 52 1 13 48 CFG=3
M  V30 53 1 15 49 CFG=1
M  V30 54 1 16 50 CFG=1
M  V30 55 1 51 18
M  V30 56 1 52 18
M  V30 57 1 53 19
M  V30 58 1 54 19
M  V30 59 1 20 55 CFG=3
M  V30 60 1 56 21
M  V30 61 1 57 22
M  V30 62 1 58 22
M  V30 63 1 59 24
M  V30 64 1 60 24
M  V30 65 1 61 29
M  V30 66 1 62 30
M  V30 67 1 63 31
M  V30 68 1 64 31
M  V30 69 1 65 32
M  V30 70 1 66 32
M  V30 71 1 67 32
M  V30 72 1 68 33
M  V30 73 1 69 33
M  V30 74 1 17 70 CFG=1
M  V30 END BOND
M  V30 END CTAB
M  END
>  <i_epik_Tot_Q>  (1) 
1

>  <i_epik_Tot_abs_Q>  (1) 
1

>  <i_i_glide_confnum>  (1) 
765

>  <i_i_glide_lignum>  (1) 
12

>  <i_i_glide_posenum>  (1) 
97

>  <i_i_glide_rotatable_bonds>  (1) 
11

>  <i_lp_mmshare_version>  (1) 
72125

>  <i_m_source_file_index>  (1) 
1

>  <i_f3d_flags>  (1) 
0

>  <num_sample>  (1) 
50

>  <b_lp_Chiralities_Consistent>  (1) 
1

>  <r_epik_Charging_Adjusted_Penalty>  (1) 
0.41344222577729461

>  <r_epik_Ionization_Penalty>  (1) 
0.0027644559619576371

>  <r_epik_Ionization_Penalty_Charging>  (1) 
0.0027623868246906495

>  <r_epik_Ionization_Penalty_Neutral>  (1) 
2.0691372669875143e-06

>  <r_epik_State_Penalty>  (1) 
0.41067983895260396

>  <r_glide_ring_energy>  (1) 
0

>  <r_i_docking_score>  (1) 
-4.0871833270584963

>  <r_i_glide_ecoul>  (1) 
-4.1922421183333869

>  <r_i_glide_eff_state_penalty>  (1) 
0.41067983895260396

>  <r_i_glide_einternal>  (1) 
12.535804157365735

>  <r_i_glide_emodel>  (1) 
-26.775611981906948

>  <r_i_glide_emodel_strain>  (1) 
1.6113496583889173

>  <r_i_glide_energy>  (1) 
-26.52299041304116

>  <r_i_glide_erotb>  (1) 
0.74142510397790429

>  <r_i_glide_esite>  (1) 
0

>  <r_i_glide_evdw>  (1) 
-22.330748294707774

>  <r_i_glide_gscore>  (1) 
-4.4978631660111006

>  <r_i_glide_gscore_strain>  (1) 
0

>  <r_i_glide_hbond>  (1) 
-0.13698947497936659

>  <r_i_glide_ligand_efficiency>  (1) 
-0.12385404021389383

>  <r_i_glide_ligand_efficiency_ln>  (1) 
-0.90896840963512415

>  <r_i_glide_ligand_efficiency_sa>  (1) 
-0.3972660858947481

>  <r_i_glide_lipo>  (1) 
-2.3186198741322319

>  <r_i_glide_metal>  (1) 
-0

>  <r_i_glide_rewards>  (1) 
-1.0383051883920091

>  <r_lp_Energy>  (1) 
39.695543999999998

>  <r_lp_tautomer_probability>  (1) 
0.5

>  <s_epik_Chemistry_Notes>  (1) 
This compound has an imine and may undergo hydrolysis. This compound contains an acetal/aminal-like group ( X-CH(R)-Y where X, Y are N, S, or O) that may be acid/base labile, releasing an aldehyde.

>  <s_epik_cmdline>  (1) 
J2VwaWtfcHl0aG9uJywgJy1waHQnLCAnMS4wJywgJy1waCcsICc3LjQnLCAnLXRuJywgJzgnLCAnLW1hJywgJzUwMCcsICctaW1hZScsICc8aW5maWxlLm1hZT4nLCAnLW9tYWUnLCAnPG91dGZpbGUubWFlPic=

>  <s_epik_input>  (1) 
W0NIMl0xW0NIMl1bQ0gyXVtDSDJdW0NASF0oRilbQ0BIXTFbQ0gyXVtDSDJdTy9bQ0hdPVtDSF1cTihbQ0BIXTJPW0NIMl1bQ0gyXVtPSF0pW0NIMl1bQ0gyXU4zW0NAQEhdMltDSDJdW0NAQEhdKFtDQEBIXTM0KVtDQEBIXTRjNW5jKG9uNSlbTkhdW0NIM10=

>  <s_glide_docking_method>  (1) 
confgen

>  <s_i_glide_gridfile>  (1) 
gpcr_drd2_6luq_protein_autoprepared_prepared

>  <s_lp_Force_Field>  (1) 
S-OPLS

>  <s_lp_Variant>  (1) 
DiffSBDD_0-12

>  <s_m_source_file>  (1) 
generated_generic_title2_ligand_DiffSBDD_2026-06-23_prepared.sdf

>  <GenAI_Model>  (1) 
DiffSBDD

>  <Protein>  (1) 
generic_title2

$$$$
DiffSBDD_30
     RDKit          3D

  0  0  0  0  0  0  0  0  0  0999 V3000
M  V30 BEGIN CTAB
M  V30 COUNTS 44 44 0 0 1
M  V30 BEGIN ATOM
M  V30 1 C 8.902806 6.129798 -10.866923 0
M  V30 2 N 11.753070 9.412305 -4.382540 0 CHG=-1
M  V30 3 C 7.817650 1.415692 -14.179350 0
M  V30 4 O 10.275842 7.639616 -7.259190 0
M  V30 5 C 12.115267 8.749302 -3.162983 0
M  V30 6 C 7.019288 2.538764 -13.489688 0
M  V30 7 O 8.977071 3.254576 -12.262881 0
M  V30 8 F 6.315767 2.017062 -12.483062 0
M  V30 9 N 6.924869 0.390218 -14.687967 0
M  V30 10 C 11.358205 8.390492 -5.196498 0
M  V30 11 C 9.822821 7.361593 -10.847213 0 CFG=2
M  V30 12 C 11.865406 7.299670 -3.530640 0
M  V30 13 C 7.908824 6.145526 -12.046343 0
M  V30 14 C 7.886147 3.726275 -13.014937 0 CFG=2
M  V30 15 F 11.375409 9.140806 -2.137482 0
M  V30 16 F 13.375647 8.954941 -2.880853 0
M  V30 17 C 10.884481 8.741412 -6.597582 0
M  V30 18 O 12.093775 6.390236 -2.734643 0
M  V30 19 N 9.775413 8.117129 -8.521681 0
M  V30 20 F 6.175410 3.038788 -14.385047 0
M  V30 21 O 10.746256 7.190211 -11.902448 0
M  V30 22 C 10.605199 7.480468 -9.528603 0
M  V30 23 O 6.580221 4.390227 -11.029568 0
M  V30 24 N 11.375406 7.177849 -4.806116 0
M  V30 25 C 7.111341 4.842726 -12.261008 0 CFG=1
M  V30 26 H 9.518755 5.233346 -10.876007 0
M  V30 27 H 8.338061 6.070103 -9.936440 0
M  V30 28 H 8.391317 1.819876 -15.013404 0
M  V30 29 H 8.527273 0.956744 -13.488844 0
M  V30 30 H 8.637962 2.898793 -11.453759 0
M  V30 31 H 6.438269 -0.056766 -13.921666 0
M  V30 32 H 6.209691 0.820145 -15.256723 0
M  V30 33 H 9.258219 8.278248 -11.031549 0
M  V30 34 H 7.205167 6.961227 -11.874683 0
M  V30 35 H 8.424225 6.398082 -12.973614 0
M  V30 36 H 8.323157 4.175599 -13.908043 0
M  V30 37 H 11.736700 9.101137 -7.176234 0
M  V30 38 H 10.175424 9.565110 -6.515939 0
M  V30 39 H 8.817544 7.772182 -8.584747 0
M  V30 40 H 10.989327 6.277178 -11.945171 0
M  V30 41 H 10.930893 6.495343 -9.191310 0
M  V30 42 H 11.497354 8.093719 -9.659812 0
M  V30 43 H 6.236129 5.132738 -10.551845 0
M  V30 44 H 6.254399 5.107325 -12.881042 0
M  V30 END ATOM
M  V30 BEGIN BOND
M  V30 1 1 5 2
M  V30 2 1 6 3
M  V30 3 1 8 6
M  V30 4 1 9 3
M  V30 5 1 10 2
M  V30 6 1 11 1
M  V30 7 1 12 5
M  V30 8 1 13 1
M  V30 9 1 14 6
M  V30 10 1 14 7
M  V30 11 1 15 5
M  V30 12 1 16 5
M  V30 13 1 17 4
M  V30 14 1 17 10
M  V30 15 2 18 12
M  V30 16 1 19 4
M  V30 17 1 20 6
M  V30 18 1 21 11
M  V30 19 1 22 11
M  V30 20 1 22 19
M  V30 21 2 24 10
M  V30 22 1 24 12
M  V30 23 1 25 13
M  V30 24 1 25 14
M  V30 25 1 25 23
M  V30 26 1 26 1
M  V30 27 1 27 1
M  V30 28 1 28 3
M  V30 29 1 29 3
M  V30 30 1 30 7
M  V30 31 1 31 9
M  V30 32 1 32 9
M  V30 33 1 11 33 CFG=3
M  V30 34 1 34 13
M  V30 35 1 35 13
M  V30 36 1 14 36 CFG=3
M  V30 37 1 37 17
M  V30 38 1 38 17
M  V30 39 1 39 19
M  V30 40 1 40 21
M  V30 41 1 41 22
M  V30 42 1 42 22
M  V30 43 1 43 23
M  V30 44 1 25 44 CFG=3
M  V30 END BOND
M  V30 END CTAB
M  END
>  <i_epik_Tot_Q>  (1) 
-1

>  <i_epik_Tot_abs_Q>  (1) 
1

>  <i_i_glide_confnum>  (1) 
1578

>  <i_i_glide_lignum>  (1) 
90

>  <i_i_glide_posenum>  (1) 
347

>  <i_i_glide_rotatable_bonds>  (1) 
14

>  <i_lp_mmshare_version>  (1) 
72125

>  <i_m_source_file_index>  (1) 
31

>  <i_f3d_flags>  (1) 
0

>  <num_sample>  (1) 
50

>  <b_lp_Chiralities_Consistent>  (1) 
1

>  <r_epik_Charging_Adjusted_Penalty>  (1) 
0.29689953438897132

>  <r_epik_Ionization_Penalty>  (1) 
0.29704553669164502

>  <r_epik_Ionization_Penalty_Charging>  (1) 
1.7526919545429853e-05

>  <r_epik_Ionization_Penalty_Neutral>  (1) 
0.29702800977209959

>  <r_epik_State_Penalty>  (1) 
0.29688200746942589

>  <r_glide_ring_energy>  (1) 
0

>  <r_i_docking_score>  (1) 
-4.0861367341806556

>  <r_i_glide_ecoul>  (1) 
-3.6933136334214254

>  <r_i_glide_eff_state_penalty>  (1) 
0.29688200746942589

>  <r_i_glide_einternal>  (1) 
8.6223620466955921

>  <r_i_glide_emodel>  (1) 
-40.086741325635657

>  <r_i_glide_emodel_strain>  (1) 
1.2414905829968461

>  <r_i_glide_energy>  (1) 
-34.420731421660392

>  <r_i_glide_erotb>  (1) 
1.2361090002768802

>  <r_i_glide_esite>  (1) 
-0.11386286620615359

>  <r_i_glide_evdw>  (1) 
-30.727417788238963

>  <r_i_glide_gscore>  (1) 
-4.3830187416500817

>  <r_i_glide_gscore_strain>  (1) 
0

>  <r_i_glide_hbond>  (1) 
-0.16

>  <r_i_glide_ligand_efficiency>  (1) 
-0.16344546936722623

>  <r_i_glide_ligand_efficiency_ln>  (1) 
-0.96853685763749819

>  <r_i_glide_ligand_efficiency_sa>  (1) 
-0.47791745166029714

>  <r_i_glide_lipo>  (1) 
-1.1464937954726004

>  <r_i_glide_metal>  (1) 
-0

>  <r_i_glide_rewards>  (1) 
-2.1084031458230461

>  <r_lp_Energy>  (1) 
20.216013999999998

>  <s_epik_Chemistry_Notes>  (1) 
This compound has an imine and may undergo hydrolysis. This compound has a N-S or N-O group and may undergo hydrolysis at high or low pH.

>  <s_epik_cmdline>  (1) 
J2VwaWtfcHl0aG9uJywgJy1waHQnLCAnMS4wJywgJy1waCcsICc3LjQnLCAnLXRuJywgJzgnLCAnLW1hJywgJzUwMCcsICctaW1hZScsICc8aW5maWxlLm1hZT4nLCAnLW9tYWUnLCAnPG91dGZpbGUubWFlPic=

>  <s_epik_input>  (1) 
W05IMl1bQ0gyXUMoRikoRilbQ0BASF0oW09IXSlbQ0BASF0oW09IXSlbQ0gyXVtDSDJdW0NASF0oW09IXSlbQ0gyXVtOSF1PW0NIMl1DKD1OQzEoRilGKVtOSF1DMT1P

>  <s_glide_docking_method>  (1) 
confgen

>  <s_i_glide_gridfile>  (1) 
gpcr_drd2_6luq_protein_autoprepared_prepared

>  <s_lp_Force_Field>  (1) 
S-OPLS

>  <s_lp_Variant>  (1) 
DiffSBDD_30-2

>  <s_m_source_file>  (1) 
generated_generic_title2_ligand_DiffSBDD_2026-06-23_prepared.sdf

>  <GenAI_Model>  (1) 
DiffSBDD

>  <Protein>  (1) 
generic_title2

$$$$
DiffSBDD_0
     RDKit          3D

  0  0  0  0  0  0  0  0  0  0999 V3000
M  V30 BEGIN CTAB
M  V30 COUNTS 70 74 0 0 1
M  V30 BEGIN ATOM
M  V30 1 C 10.673673 8.924892 -6.689785 0
M  V30 2 N 7.717431 4.321016 -14.111369 0
M  V30 3 C 7.584449 4.160794 -18.334946 0 CFG=1
M  V30 4 C 9.122144 5.750929 -12.723694 0
M  V30 5 F 9.823753 6.145313 -6.756509 0
M  V30 6 C 6.963810 5.417511 -14.730572 0
M  V30 7 C 11.663441 8.883754 -7.866028 0
M  V30 8 C 10.480431 7.231765 -11.484735 0
M  V30 9 C 10.371681 6.908087 -8.897686 0 CFG=1
M  V30 10 C 10.228203 4.171972 -18.219513 0
M  V30 11 C 7.526236 3.016630 -14.755354 0 CFG=1
M  V30 12 C 6.486582 0.285363 -13.525766 0
M  V30 13 C 8.953211 3.805622 -18.919114 0 CFG=1
M  V30 14 O 10.175405 5.894417 -11.863198 0
M  V30 15 C 9.394837 6.976120 -7.703949 0 CFG=2
M  V30 16 C 7.991725 2.710763 -18.475351 0 CFG=1
M  V30 17 N 7.375415 4.268709 -16.867882 0 CFG=1 CHG=1
M  V30 18 C 9.775414 7.565638 -10.165456 0
M  V30 19 C 7.444166 1.383154 -13.047834 0
M  V30 20 C 8.118224 3.211988 -16.157324 0 CFG=2
M  V30 21 O 5.966379 -0.409772 -12.413508 0
M  V30 22 C 11.747793 7.477890 -8.470484 0
M  V30 23 N 10.499219 5.439168 -17.791360 0
M  V30 24 C 7.416280 5.590225 -16.201818 0
M  V30 25 N 11.171688 3.259992 -17.981042 0
M  V30 26 O 12.162130 3.972889 -17.285183 0
M  V30 27 C 11.675905 5.227825 -17.226053 0
M  V30 28 O 8.162474 1.944324 -14.138525 0
M  V30 29 N 12.488150 6.137174 -16.568431 0
M  V30 30 C 8.765237 4.553000 -13.217302 0
M  V30 31 C 9.291889 8.390290 -7.102806 0
M  V30 32 C 13.775507 5.977474 -15.917057 0
M  V30 33 C 8.043744 2.028822 -17.114862 0
M  V30 34 H 11.062395 8.323579 -5.866972 0
M  V30 35 H 10.587906 9.941982 -6.308122 0
M  V30 36 H 6.776835 4.543384 -18.956398 0
M  V30 37 H 8.634110 6.686073 -12.950398 0
M  V30 38 H 5.905027 5.156772 -14.700611 0
M  V30 39 H 7.040611 6.359136 -14.191636 0
M  V30 40 H 12.651454 9.190220 -7.522269 0
M  V30 41 H 11.375412 9.590217 -8.642178 0
M  V30 42 H 11.560509 7.334232 -11.389169 0
M  V30 43 H 10.175442 7.948625 -12.250309 0
M  V30 44 H 10.503616 5.852492 -9.131257 0
M  V30 45 H 6.456179 2.816764 -14.806584 0
M  V30 46 H 7.018526 -0.424473 -14.159763 0
M  V30 47 H 5.666406 0.697510 -14.113534 0
M  V30 48 H 9.078148 3.946346 -19.990638 0
M  V30 49 H 8.412096 6.600515 -7.985248 0
M  V30 50 H 7.540809 2.123434 -19.273124 0
M  V30 51 H 9.719229 8.645547 -10.035647 0
M  V30 52 H 8.752554 7.221884 -10.299284 0
M  V30 53 H 6.923380 2.146073 -12.466187 0
M  V30 54 H 8.175408 0.929272 -12.385031 0
M  V30 55 H 9.154690 3.515309 -16.020888 0
M  V30 56 H 5.492249 -1.171508 -12.752323 0
M  V30 57 H 12.170342 6.827875 -7.702211 0
M  V30 58 H 12.450539 7.475781 -9.302657 0
M  V30 59 H 6.769553 6.296644 -16.723050 0
M  V30 60 H 8.428664 5.990081 -16.228462 0
M  V30 61 H 12.123086 7.077384 -16.529617 0
M  V30 62 H 9.302198 3.657133 -12.940711 0
M  V30 63 H 8.619944 8.378930 -6.244537 0
M  V30 64 H 8.836429 9.065156 -7.827697 0
M  V30 65 H 13.840586 6.628869 -15.045618 0
M  V30 66 H 13.920146 4.948660 -15.584924 0
M  V30 67 H 14.582129 6.234975 -16.603360 0
M  V30 68 H 7.131245 1.449210 -16.966290 0
M  V30 69 H 8.902107 1.361354 -17.031205 0
M  V30 70 H 6.413466 3.984004 -16.760929 0
M  V30 END ATOM
M  V30 BEGIN BOND
M  V30 1 1 6 2
M  V30 2 1 7 1
M  V30 3 1 11 2
M  V30 4 1 13 3
M  V30 5 1 13 10
M  V30 6 1 14 4
M  V30 7 1 14 8
M  V30 8 1 15 5
M  V30 9 1 15 9
M  V30 10 1 16 3
M  V30 11 1 16 13
M  V30 12 1 17 3
M  V30 13 1 18 8
M  V30 14 1 18 9
M  V30 15 1 19 12
M  V30 16 1 20 11
M  V30 17 1 20 17
M  V30 18 1 21 12
M  V30 19 1 22 7
M  V30 20 1 22 9
M  V30 21 1 23 10
M  V30 22 1 24 6
M  V30 23 1 24 17
M  V30 24 2 25 10
M  V30 25 1 26 25
M  V30 26 2 27 23
M  V30 27 1 27 26
M  V30 28 1 28 11
M  V30 29 1 28 19
M  V30 30 1 29 27
M  V30 31 1 30 2
M  V30 32 2 30 4
M  V30 33 1 31 1
M  V30 34 1 31 15
M  V30 35 1 32 29
M  V30 36 1 33 16
M  V30 37 1 33 20
M  V30 38 1 34 1
M  V30 39 1 35 1
M  V30 40 1 3 36 CFG=3
M  V30 41 1 37 4
M  V30 42 1 38 6
M  V30 43 1 39 6
M  V30 44 1 40 7
M  V30 45 1 41 7
M  V30 46 1 42 8
M  V30 47 1 43 8
M  V30 48 1 9 44 CFG=3
M  V30 49 1 11 45 CFG=3
M  V30 50 1 46 12
M  V30 51 1 47 12
M  V30 52 1 13 48 CFG=3
M  V30 53 1 15 49 CFG=3
M  V30 54 1 16 50 CFG=3
M  V30 55 1 51 18
M  V30 56 1 52 18
M  V30 57 1 53 19
M  V30 58 1 54 19
M  V30 59 1 20 55 CFG=1
M  V30 60 1 56 21
M  V30 61 1 57 22
M  V30 62 1 58 22
M  V30 63 1 59 24
M  V30 64 1 60 24
M  V30 65 1 61 29
M  V30 66 1 62 30
M  V30 67 1 63 31
M  V30 68 1 64 31
M  V30 69 1 65 32
M  V30 70 1 66 32
M  V30 71 1 67 32
M  V30 72 1 68 33
M  V30 73 1 69 33
M  V30 74 1 17 70 CFG=3
M  V30 END BOND
M  V30 END CTAB
M  END
>  <i_epik_Tot_Q>  (1) 
1

>  <i_epik_Tot_abs_Q>  (1) 
1

>  <i_i_glide_confnum>  (1) 
676

>  <i_i_glide_lignum>  (1) 
6

>  <i_i_glide_posenum>  (1) 
153

>  <i_i_glide_rotatable_bonds>  (1) 
11

>  <i_lp_mmshare_version>  (1) 
72125

>  <i_m_source_file_index>  (1) 
1

>  <i_f3d_flags>  (1) 
0

>  <num_sample>  (1) 
50

>  <b_lp_Chiralities_Consistent>  (1) 
1

>  <r_epik_Charging_Adjusted_Penalty>  (1) 
0.41344222577729461

>  <r_epik_Ionization_Penalty>  (1) 
0.0027644559619576371

>  <r_epik_Ionization_Penalty_Charging>  (1) 
0.0027623868246906495

>  <r_epik_Ionization_Penalty_Neutral>  (1) 
2.0691372669875143e-06

>  <r_epik_State_Penalty>  (1) 
0.41067983895260396

>  <r_glide_ring_energy>  (1) 
1.2880141380397496

>  <r_i_docking_score>  (1) 
-4.0816376541005459

>  <r_i_glide_ecoul>  (1) 
-3.560153340652203

>  <r_i_glide_eff_state_penalty>  (1) 
0.41067983895260396

>  <r_i_glide_einternal>  (1) 
7.8542797971203031

>  <r_i_glide_emodel>  (1) 
-42.803310981425987

>  <r_i_glide_emodel_strain>  (1) 
0.22261152720412269

>  <r_i_glide_energy>  (1) 
-36.699112412170962

>  <r_i_glide_erotb>  (1) 
0.74142510397790429

>  <r_i_glide_esite>  (1) 
0

>  <r_i_glide_evdw>  (1) 
-33.138959071518762

>  <r_i_glide_gscore>  (1) 
-4.4923174930531502

>  <r_i_glide_gscore_strain>  (1) 
0

>  <r_i_glide_hbond>  (1) 
-0.16

>  <r_i_glide_ligand_efficiency>  (1) 
-0.12368598951819836

>  <r_i_glide_ligand_efficiency_ln>  (1) 
-0.90773508068323383

>  <r_i_glide_ligand_efficiency_sa>  (1) 
-0.39672705751912524

>  <r_i_glide_lipo>  (1) 
-1.7084517322762625

>  <r_i_glide_metal>  (1) 
-0

>  <r_i_glide_rewards>  (1) 
-1.1743199100810235

>  <r_lp_Energy>  (1) 
52.420753999999995

>  <r_lp_tautomer_probability>  (1) 
0.5

>  <s_epik_Chemistry_Notes>  (1) 
This compound has an imine and may undergo hydrolysis. This compound contains an acetal/aminal-like group ( X-CH(R)-Y where X, Y are N, S, or O) that may be acid/base labile, releasing an aldehyde.

>  <s_epik_cmdline>  (1) 
J2VwaWtfcHl0aG9uJywgJy1waHQnLCAnMS4wJywgJy1waCcsICc3LjQnLCAnLXRuJywgJzgnLCAnLW1hJywgJzUwMCcsICctaW1hZScsICc8aW5maWxlLm1hZT4nLCAnLW9tYWUnLCAnPG91dGZpbGUubWFlPic=

>  <s_epik_input>  (1) 
W0NIMl0xW0NIMl1bQ0gyXVtDSDJdW0NASF0oRilbQ0BIXTFbQ0gyXVtDSDJdTy9bQ0hdPVtDSF0vTihbQ0BIXTJPW0NIMl1bQ0gyXVtPSF0pW0NIMl1bQ0gyXU4zW0NAQEhdMltDSDJdW0NAQEhdKFtDQEBIXTM0KVtDQEBIXTRjNW5jKG9uNSlbTkhdW0NIM10=

>  <s_glide_docking_method>  (1) 
confgen

>  <s_i_glide_gridfile>  (1) 
gpcr_drd2_6luq_protein_autoprepared_prepared

>  <s_lp_Force_Field>  (1) 
S-OPLS

>  <s_lp_Variant>  (1) 
DiffSBDD_0-6

>  <s_m_source_file>  (1) 
generated_generic_title2_ligand_DiffSBDD_2026-06-23_prepared.sdf

>  <GenAI_Model>  (1) 
DiffSBDD

>  <Protein>  (1) 
generic_title2

$$$$
DiffSBDD_0
     RDKit          3D

  0  0  0  0  0  0  0  0  0  0999 V3000
M  V30 BEGIN CTAB
M  V30 COUNTS 70 74 0 0 1
M  V30 BEGIN ATOM
M  V30 1 C 10.073406 7.559762 -6.195873 0
M  V30 2 N 7.847665 5.416290 -14.577124 0
M  V30 3 C 8.318137 4.559503 -18.683100 0 CFG=1
M  V30 4 C 8.156237 7.306777 -13.067826 0
M  V30 5 F 9.775412 5.127278 -8.923073 0
M  V30 6 C 6.863510 6.072849 -15.440654 0
M  V30 7 C 10.721328 8.693202 -6.985438 0
M  V30 8 C 9.583090 7.082654 -11.150398 0
M  V30 9 C 11.033818 7.190155 -9.001163 0 CFG=1
M  V30 10 C 10.901926 4.985142 -18.778727 0
M  V30 11 C 8.245216 4.079091 -14.984244 0 CFG=2
M  V30 12 C 7.658380 1.285253 -13.645249 0
M  V30 13 C 9.683594 4.287072 -19.299155 0 CFG=1
M  V30 14 O 8.769562 7.895881 -11.985004 0
M  V30 15 C 10.394346 6.036821 -8.172258 0 CFG=1
M  V30 16 C 8.929881 3.197594 -18.546825 0 CFG=1
M  V30 17 N 8.302413 5.153760 -17.317196 0 CFG=2 CHG=1
M  V30 18 C 10.072794 7.924781 -9.967990 0
M  V30 19 C 6.811102 2.548825 -13.870801 0
M  V30 20 C 8.944338 4.201242 -16.362734 0 CFG=2
M  V30 21 O 6.981380 0.390336 -12.785024 0
M  V30 22 C 11.714663 8.179031 -8.035914 0
M  V30 23 N 10.995418 6.344387 -18.697620 0
M  V30 24 C 6.949461 5.615615 -16.914501 0
M  V30 25 N 11.965604 4.299142 -18.359913 0
M  V30 26 O 12.858554 5.292407 -17.926677 0
M  V30 27 C 12.203606 6.444385 -18.167864 0
M  V30 28 O 7.167105 3.204450 -15.082628 0
M  V30 29 N 12.892371 7.590218 -17.807065 0
M  V30 30 C 8.432690 6.050008 -13.486283 0
M  V30 31 C 9.405780 6.552980 -7.130791 0
M  V30 32 C 14.194077 7.769043 -17.198954 0
M  V30 33 C 9.142707 2.863809 -17.094199 0
M  V30 34 H 10.796275 7.070190 -5.541983 0
M  V30 35 H 9.293835 7.992337 -5.584412 0
M  V30 36 H 7.439922 4.710396 -19.309238 0
M  V30 37 H 7.440300 7.964940 -13.533987 0
M  V30 38 H 5.861482 5.899768 -15.046770 0
M  V30 39 H 7.015166 7.150778 -15.427510 0
M  V30 40 H 11.189923 9.418006 -6.319408 0
M  V30 41 H 9.903044 9.190228 -7.492662 0
M  V30 42 H 8.985650 6.241911 -10.801149 0
M  V30 43 H 10.443815 6.701348 -11.702099 0
M  V30 44 H 11.833857 6.790230 -9.615951 0
M  V30 45 H 8.946092 3.689703 -14.244689 0
M  V30 46 H 8.630637 1.536620 -13.220010 0
M  V30 47 H 7.838731 0.772041 -14.590226 0
M  V30 48 H 9.735362 4.200997 -20.382534 0
M  V30 49 H 11.175528 5.493822 -7.640707 0
M  V30 50 H 8.529622 2.389595 -19.157127 0
M  V30 51 H 10.594004 8.790108 -10.375174 0
M  V30 52 H 9.211012 8.325059 -9.437877 0
M  V30 53 H 5.775411 2.243595 -13.984982 0
M  V30 54 H 6.841676 3.220249 -13.010969 0
M  V30 55 H 9.929744 4.624382 -16.159503 0
M  V30 56 H 6.236323 0.021537 -13.238842 0
M  V30 57 H 12.550757 7.685547 -7.540879 0
M  V30 58 H 12.144036 9.016620 -8.587380 0
M  V30 59 H 6.258449 4.790482 -17.067461 0
M  V30 60 H 6.614306 6.415257 -17.576574 0
M  V30 61 H 12.400241 8.461571 -17.985074 0
M  V30 62 H 9.159261 5.432907 -12.979828 0
M  V30 63 H 8.982133 5.730049 -6.558439 0
M  V30 64 H 8.575411 7.032349 -7.639901 0
M  V30 65 H 14.462525 8.825390 -17.185613 0
M  V30 66 H 14.175427 7.397717 -16.173937 0
M  V30 67 H 14.957059 7.225173 -17.756299 0
M  V30 68 H 8.412123 2.107602 -16.808543 0
M  V30 69 H 10.136619 2.444256 -16.935538 0
M  V30 70 H 8.887997 5.978297 -17.334119 0
M  V30 END ATOM
M  V30 BEGIN BOND
M  V30 1 1 6 2
M  V30 2 1 7 1
M  V30 3 1 11 2
M  V30 4 1 13 3
M  V30 5 1 13 10
M  V30 6 1 14 4
M  V30 7 1 14 8
M  V30 8 1 15 5
M  V30 9 1 15 9
M  V30 10 1 16 3
M  V30 11 1 16 13
M  V30 12 1 17 3
M  V30 13 1 18 8
M  V30 14 1 18 9
M  V30 15 1 19 12
M  V30 16 1 20 11
M  V30 17 1 20 17
M  V30 18 1 21 12
M  V30 19 1 22 7
M  V30 20 1 22 9
M  V30 21 1 23 10
M  V30 22 1 24 6
M  V30 23 1 24 17
M  V30 24 2 25 10
M  V30 25 1 26 25
M  V30 26 2 27 23
M  V30 27 1 27 26
M  V30 28 1 28 11
M  V30 29 1 28 19
M  V30 30 1 29 27
M  V30 31 1 30 2
M  V30 32 2 30 4
M  V30 33 1 31 1
M  V30 34 1 31 15
M  V30 35 1 32 29
M  V30 36 1 33 16
M  V30 37 1 33 20
M  V30 38 1 34 1
M  V30 39 1 35 1
M  V30 40 1 3 36 CFG=3
M  V30 41 1 37 4
M  V30 42 1 38 6
M  V30 43 1 39 6
M  V30 44 1 40 7
M  V30 45 1 41 7
M  V30 46 1 42 8
M  V30 47 1 43 8
M  V30 48 1 9 44 CFG=3
M  V30 49 1 11 45 CFG=1
M  V30 50 1 46 12
M  V30 51 1 47 12
M  V30 52 1 13 48 CFG=3
M  V30 53 1 15 49 CFG=1
M  V30 54 1 16 50 CFG=3
M  V30 55 1 51 18
M  V30 56 1 52 18
M  V30 57 1 53 19
M  V30 58 1 54 19
M  V30 59 1 20 55 CFG=1
M  V30 60 1 56 21
M  V30 61 1 57 22
M  V30 62 1 58 22
M  V30 63 1 59 24
M  V30 64 1 60 24
M  V30 65 1 61 29
M  V30 66 1 62 30
M  V30 67 1 63 31
M  V30 68 1 64 31
M  V30 69 1 65 32
M  V30 70 1 66 32
M  V30 71 1 67 32
M  V30 72 1 68 33
M  V30 73 1 69 33
M  V30 74 1 17 70 CFG=3
M  V30 END BOND
M  V30 END CTAB
M  END
>  <i_epik_Tot_Q>  (1) 
1

>  <i_epik_Tot_abs_Q>  (1) 
1

>  <i_i_glide_confnum>  (1) 
72

>  <i_i_glide_lignum>  (1) 
9

>  <i_i_glide_posenum>  (1) 
132

>  <i_i_glide_rotatable_bonds>  (1) 
11

>  <i_lp_mmshare_version>  (1) 
72125

>  <i_m_source_file_index>  (1) 
1

>  <i_f3d_flags>  (1) 
0

>  <num_sample>  (1) 
50

>  <b_lp_Chiralities_Consistent>  (1) 
1

>  <r_epik_Charging_Adjusted_Penalty>  (1) 
0.41344222577729461

>  <r_epik_Ionization_Penalty>  (1) 
0.0027644559619576371

>  <r_epik_Ionization_Penalty_Charging>  (1) 
0.0027623868246906495

>  <r_epik_Ionization_Penalty_Neutral>  (1) 
2.0691372669875143e-06

>  <r_epik_State_Penalty>  (1) 
0.41067983895260396

>  <r_glide_ring_energy>  (1) 
1.7903676985451424

>  <r_i_docking_score>  (1) 
-4.073861202737417

>  <r_i_glide_ecoul>  (1) 
-2.9144254526941591

>  <r_i_glide_eff_state_penalty>  (1) 
0.41067983895260396

>  <r_i_glide_einternal>  (1) 
4.5667002036138005

>  <r_i_glide_emodel>  (1) 
-43.073622811576143

>  <r_i_glide_emodel_strain>  (1) 
0.069502385353487739

>  <r_i_glide_energy>  (1) 
-34.686945180774799

>  <r_i_glide_erotb>  (1) 
0.74142510397790429

>  <r_i_glide_esite>  (1) 
-0.0023912794886031363

>  <r_i_glide_evdw>  (1) 
-31.772519728080642

>  <r_i_glide_gscore>  (1) 
-4.4845410416900213

>  <r_i_glide_gscore_strain>  (1) 
0

>  <r_i_glide_hbond>  (1) 
-0.32000000000000001

>  <r_i_glide_ligand_efficiency>  (1) 
-0.12345033947689142

>  <r_i_glide_ligand_efficiency_ln>  (1) 
-0.90600563816438417

>  <r_i_glide_ligand_efficiency_sa>  (1) 
-0.39597120192176827

>  <r_i_glide_lipo>  (1) 
-1.742997894278403

>  <r_i_glide_metal>  (1) 
-0

>  <r_i_glide_rewards>  (1) 
-1.1347871675927628

>  <r_lp_Energy>  (1) 
39.700505

>  <r_lp_tautomer_probability>  (1) 
0.5

>  <s_epik_Chemistry_Notes>  (1) 
This compound has an imine and may undergo hydrolysis. This compound contains an acetal/aminal-like group ( X-CH(R)-Y where X, Y are N, S, or O) that may be acid/base labile, releasing an aldehyde.

>  <s_epik_cmdline>  (1) 
J2VwaWtfcHl0aG9uJywgJy1waHQnLCAnMS4wJywgJy1waCcsICc3LjQnLCAnLXRuJywgJzgnLCAnLW1hJywgJzUwMCcsICctaW1hZScsICc8aW5maWxlLm1hZT4nLCAnLW9tYWUnLCAnPG91dGZpbGUubWFlPic=

>  <s_epik_input>  (1) 
W0NIMl0xW0NIMl1bQ0gyXVtDSDJdW0NASF0oRilbQ0BIXTFbQ0gyXVtDSDJdTy9bQ0hdPVtDSF0vTihbQ0BIXTJPW0NIMl1bQ0gyXVtPSF0pW0NIMl1bQ0gyXU4zW0NAQEhdMltDSDJdW0NAQEhdKFtDQEBIXTM0KVtDQEBIXTRjNW5jKG9uNSlbTkhdW0NIM10=

>  <s_glide_docking_method>  (1) 
confgen

>  <s_i_glide_gridfile>  (1) 
gpcr_drd2_6luq_protein_autoprepared_prepared

>  <s_lp_Force_Field>  (1) 
S-OPLS

>  <s_lp_Variant>  (1) 
DiffSBDD_0-9

>  <s_m_source_file>  (1) 
generated_generic_title2_ligand_DiffSBDD_2026-06-23_prepared.sdf

>  <GenAI_Model>  (1) 
DiffSBDD

>  <Protein>  (1) 
generic_title2

$$$$
DiffSBDD_14
     RDKit          3D

  0  0  0  0  0  0  0  0  0  0999 V3000
M  V30 BEGIN CTAB
M  V30 COUNTS 71 74 0 0 1
M  V30 BEGIN ATOM
M  V30 1 C 9.037011 -0.175096 -18.286652 0
M  V30 2 O 4.852175 -2.555827 -20.122139 0
M  V30 3 C 4.313002 -4.543963 -19.027411 0 CFG=2
M  V30 4 O 6.407879 -3.179671 -17.585149 0
M  V30 5 C 8.756545 3.707767 -12.087007 0
M  V30 6 C 7.466768 2.598974 -14.011486 0
M  V30 7 N 7.756278 0.379391 -15.069258 0
M  V30 8 C 7.397084 3.501647 -12.790348 0 CFG=2
M  V30 9 C 6.975458 6.103819 -16.224333 0
M  V30 10 C 4.511314 -3.476871 -21.157048 0
M  V30 11 C 9.532031 5.450767 -17.946904 0
M  V30 12 C 7.758256 5.643133 -15.283865 0
M  V30 13 C 6.166991 6.978896 -14.392669 0
M  V30 14 C 7.281942 5.956652 -13.898783 0 CFG=1
M  V30 15 C 5.275194 -1.009065 -17.558722 0
M  V30 16 C 8.381054 5.960940 -18.398642 0
M  V30 17 C 6.329998 -4.595537 -17.493281 0
M  V30 18 C 6.604392 4.814631 -13.055675 0 CFG=2
M  V30 19 C 4.335460 -3.024040 -18.881742 0 CFG=1
M  V30 20 C 5.710948 -5.144723 -18.785047 0
M  V30 21 O 7.566359 1.921894 -16.754820 0
M  V30 22 C 7.690397 0.760032 -16.376814 0
M  V30 23 O 5.904125 6.808276 -15.815772 0
M  V30 24 C 3.852011 -4.676900 -20.467681 0
M  V30 25 C 9.013931 4.900931 -15.508839 0
M  V30 26 C 7.074764 5.939860 -17.698096 0
M  V30 27 C 6.112163 5.371728 -11.697638 0
M  V30 28 C 7.680643 1.261861 -13.948873 0
M  V30 29 C 6.507015 -0.432935 -18.288002 0
M  V30 30 C 7.785338 -0.368757 -17.414055 0 CFG=1
M  V30 31 C 9.768089 4.821303 -16.643705 0
M  V30 32 C 5.137011 -2.541010 -17.657526 0 CFG=1
M  V30 33 H 9.938722 -0.097058 -17.677734 0
M  V30 34 H 9.173239 -1.019010 -18.963510 0
M  V30 35 H 8.964507 0.727878 -18.894477 0
M  V30 36 H 3.599615 -4.988226 -18.331075 0
M  V30 37 H 9.326144 2.780683 -12.032770 0
M  V30 38 H 9.385849 4.450628 -12.570845 0
M  V30 39 H 8.612379 4.046019 -11.061127 0
M  V30 40 H 7.329015 3.085925 -14.947564 0
M  V30 41 H 7.871393 -0.604343 -14.862039 0
M  V30 42 H 6.789002 2.916778 -12.099802 0
M  V30 43 H 5.424154 -3.774911 -21.673010 0
M  V30 44 H 3.848289 -3.017897 -21.890552 0
M  V30 45 H 10.377145 5.499904 -18.617851 0
M  V30 46 H 6.550036 7.990217 -14.272096 0
M  V30 47 H 5.233441 6.922223 -13.837950 0
M  V30 48 H 8.065874 6.460316 -13.332166 0
M  V30 49 H 5.298290 -0.719552 -16.507929 0
M  V30 50 H 4.368814 -0.552254 -17.958785 0
M  V30 51 H 8.365826 6.389229 -19.390626 0
M  V30 52 H 7.338768 -4.988466 -17.364265 0
M  V30 53 H 5.759369 -4.894353 -16.613364 0
M  V30 54 H 5.707735 4.512482 -13.600103 0
M  V30 55 H 3.309733 -2.662828 -18.785908 0
M  V30 56 H 6.376804 -4.902406 -19.613941 0
M  V30 57 H 5.651367 -6.231999 -18.743402 0
M  V30 58 H 4.115182 -5.631804 -20.923326 0
M  V30 59 H 2.766535 -4.572758 -20.512618 0
M  V30 60 H 9.417243 4.390252 -14.654784 0
M  V30 61 H 6.572389 5.009736 -17.964480 0
M  V30 62 H 6.476716 6.735394 -18.143851 0
M  V30 63 H 6.941195 5.742698 -11.093602 0
M  V30 64 H 5.409595 6.196441 -11.804547 0
M  V30 65 H 5.600157 4.607626 -11.111290 0
M  V30 66 H 7.813920 0.748586 -13.007233 0
M  V30 67 H 6.263698 0.568680 -18.645792 0
M  V30 68 H 6.698861 -1.014108 -19.189835 0
M  V30 69 H 7.907442 -1.315131 -16.886238 0
M  V30 70 H 10.683239 4.253498 -16.557352 0
M  V30 71 H 4.571045 -2.852276 -16.785019 0
M  V30 END ATOM
M  V30 BEGIN BOND
M  V30 1 1 8 5
M  V30 2 1 8 6
M  V30 3 1 10 2
M  V30 4 2 12 9
M  V30 5 1 14 12
M  V30 6 1 14 13
M  V30 7 2 16 11
M  V30 8 1 17 4
M  V30 9 1 18 8
M  V30 10 1 18 14
M  V30 11 1 19 2
M  V30 12 1 19 3
M  V30 13 1 20 3
M  V30 14 1 20 17
M  V30 15 1 22 7
M  V30 16 2 22 21
M  V30 17 1 23 9
M  V30 18 1 23 13
M  V30 19 1 24 3
M  V30 20 1 24 10
M  V30 21 1 25 12
M  V30 22 1 26 9
M  V30 23 1 26 16
M  V30 24 1 27 18
M  V30 25 2 28 6
M  V30 26 1 28 7
M  V30 27 1 29 15
M  V30 28 1 30 1
M  V30 29 1 30 22
M  V30 30 1 30 29
M  V30 31 1 31 11
M  V30 32 2 31 25
M  V30 33 1 32 4
M  V30 34 1 32 15
M  V30 35 1 32 19
M  V30 36 1 33 1
M  V30 37 1 34 1
M  V30 38 1 35 1
M  V30 39 1 3 36 CFG=1
M  V30 40 1 37 5
M  V30 41 1 38 5
M  V30 42 1 39 5
M  V30 43 1 40 6
M  V30 44 1 41 7
M  V30 45 1 8 42 CFG=1
M  V30 46 1 43 10
M  V30 47 1 44 10
M  V30 48 1 45 11
M  V30 49 1 46 13
M  V30 50 1 47 13
M  V30 51 1 14 48 CFG=1
M  V30 52 1 49 15
M  V30 53 1 50 15
M  V30 54 1 51 16
M  V30 55 1 52 17
M  V30 56 1 53 17
M  V30 57 1 18 54 CFG=3
M  V30 58 1 19 55 CFG=1
M  V30 59 1 56 20
M  V30 60 1 57 20
M  V30 61 1 58 24
M  V30 62 1 59 24
M  V30 63 1 60 25
M  V30 64 1 61 26
M  V30 65 1 62 26
M  V30 66 1 63 27
M  V30 67 1 64 27
M  V30 68 1 65 27
M  V30 69 1 66 28
M  V30 70 1 67 29
M  V30 71 1 68 29
M  V30 72 1 30 69 CFG=1
M  V30 73 1 70 31
M  V30 74 1 32 71 CFG=1
M  V30 END BOND
M  V30 END CTAB
M  END
>  <i_epik_Tot_Q>  (1) 
0

>  <i_epik_Tot_abs_Q>  (1) 
0

>  <i_i_glide_confnum>  (1) 
258

>  <i_i_glide_lignum>  (1) 
52

>  <i_i_glide_posenum>  (1) 
67

>  <i_i_glide_rotatable_bonds>  (1) 
9

>  <i_lp_mmshare_version>  (1) 
72125

>  <i_m_source_file_index>  (1) 
15

>  <i_f3d_flags>  (1) 
0

>  <num_sample>  (1) 
50

>  <b_lp_Chiralities_Consistent>  (1) 
1

>  <r_epik_Charging_Adjusted_Penalty>  (1) 
0

>  <r_epik_Ionization_Penalty>  (1) 
2.2973717276536928e-08

>  <r_epik_Ionization_Penalty_Charging>  (1) 
0

>  <r_epik_Ionization_Penalty_Neutral>  (1) 
2.2973717276536928e-08

>  <r_epik_State_Penalty>  (1) 
-0

>  <r_glide_ring_energy>  (1) 
0

>  <r_i_docking_score>  (1) 
-4.0732203279318302

>  <r_i_glide_ecoul>  (1) 
-2.1127343850618194

>  <r_i_glide_eff_state_penalty>  (1) 
-0

>  <r_i_glide_einternal>  (1) 
7.9284534747441366

>  <r_i_glide_emodel>  (1) 
-35.641067285121487

>  <r_i_glide_emodel_strain>  (1) 
0.049375039320452174

>  <r_i_glide_energy>  (1) 
-33.753491863631076

>  <r_i_glide_erotb>  (1) 
0.7170138056727231

>  <r_i_glide_esite>  (1) 
0

>  <r_i_glide_evdw>  (1) 
-31.64075747856926

>  <r_i_glide_gscore>  (1) 
-4.0732203279318302

>  <r_i_glide_gscore_strain>  (1) 
0

>  <r_i_glide_hbond>  (1) 
-0.017126377829297556

>  <r_i_glide_ligand_efficiency>  (1) 
-0.12728813524786969

>  <r_i_glide_ligand_efficiency_ln>  (1) 
-0.91210506321661011

>  <r_i_glide_ligand_efficiency_sa>  (1) 
-0.40411463959107768

>  <r_i_glide_lipo>  (1) 
-2.0514878082814421

>  <r_i_glide_metal>  (1) 
-0

>  <r_i_glide_rewards>  (1) 
-0.8226719158060779

>  <r_lp_Energy>  (1) 
21.48593

>  <r_lp_tautomer_probability>  (1) 
1

>  <s_epik_cmdline>  (1) 
J2VwaWtfcHl0aG9uJywgJy1waHQnLCAnMS4wJywgJy1waCcsICc3LjQnLCAnLXRuJywgJzgnLCAnLW1hJywgJzUwMCcsICctaW1hZScsICc8aW5maWxlLm1hZT4nLCAnLW9tYWUnLCAnPG91dGZpbGUubWFlPic=

>  <s_epik_input>  (1) 
W0NIMl0xW0NIMl1PW0NAQEhdKFtDQEBIXTEyKVtDQEBIXShPW0NIMl1bQ0gyXTIpW0NIMl1bQ0gyXVtDQEBIXShbQ0gzXSlDKD1PKVtOSF1cW0NIXT1bQ0hdXFtDQEBIXShbQ0gzXSlbQ0BASF0oW0NIM10pW0NASF0oW0NIMl1PMylDKD1DMzQpW0NIXT1bQ0hdW0NIXT1bQ0hdW0NIMl00

>  <s_glide_docking_method>  (1) 
confgen

>  <s_i_glide_gridfile>  (1) 
gpcr_drd2_6luq_protein_autoprepared_prepared

>  <s_lp_Force_Field>  (1) 
S-OPLS

>  <s_lp_Variant>  (1) 
DiffSBDD_14-1

>  <s_m_source_file>  (1) 
generated_generic_title2_ligand_DiffSBDD_2026-06-23_prepared.sdf

>  <GenAI_Model>  (1) 
DiffSBDD

>  <Protein>  (1) 
generic_title2

$$$$
DiffSBDD_30
     RDKit          3D

  0  0  0  0  0  0  0  0  0  0999 V3000
M  V30 BEGIN CTAB
M  V30 COUNTS 45 45 0 0 1
M  V30 BEGIN ATOM
M  V30 1 C 9.694544 7.511323 -10.844665 0
M  V30 2 N 11.775155 6.965243 -4.040146 0 CHG=-1
M  V30 3 C 6.368950 2.939133 -12.943778 0
M  V30 4 O 10.458373 7.753842 -6.346169 0
M  V30 5 C 12.059497 6.927787 -2.639319 0
M  V30 6 C 6.999434 4.181275 -13.613000 0
M  V30 7 O 8.953674 5.509486 -13.954699 0
M  V30 8 F 6.086962 5.154926 -13.622152 0
M  V30 9 N 7.154622 1.709067 -13.185096 0 CHG=1
M  V30 10 C 11.775414 8.295708 -4.344409 0
M  V30 11 C 10.900958 7.969261 -9.997298 0 CFG=2
M  V30 12 C 12.323976 8.398146 -2.372009 0
M  V30 13 C 9.532475 5.989390 -11.069102 0
M  V30 14 C 8.319582 4.708499 -12.976749 0 CFG=1
M  V30 15 F 13.133319 6.184813 -2.384238 0
M  V30 16 F 11.000280 6.504100 -1.950137 0
M  V30 17 C 11.318711 8.718602 -5.736567 0
M  V30 18 O 12.661934 8.790083 -1.257995 0
M  V30 19 N 10.127804 8.223223 -7.667827 0
M  V30 20 F 7.232952 3.819907 -14.878613 0
M  V30 21 O 12.083318 7.590227 -10.654644 0
M  V30 22 C 10.970179 7.439689 -8.554126 0
M  V30 23 O 7.410913 4.936477 -10.720465 0
M  V30 24 N 12.129014 9.169745 -3.495429 0
M  V30 25 C 8.173014 5.596223 -11.710209 0 CFG=1
M  V30 26 H 8.800348 7.905477 -10.385274 0
M  V30 27 H 9.742440 7.995067 -11.821911 0
M  V30 28 H 6.202844 3.072505 -11.876142 0
M  V30 29 H 5.381943 2.770021 -13.374189 0
M  V30 30 H 9.023499 5.017219 -14.758536 0
M  V30 31 H 6.638434 0.908028 -12.846957 0
M  V30 32 H 8.038440 1.760158 -12.697771 0
M  V30 33 H 10.913473 9.057910 -9.971120 0
M  V30 34 H 10.350021 5.656425 -11.708342 0
M  V30 35 H 9.668236 5.445072 -10.132982 0
M  V30 36 H 8.983821 3.869216 -12.767298 0
M  V30 37 H 12.202774 8.893271 -6.349056 0
M  V30 38 H 10.785082 9.666488 -5.655162 0
M  V30 39 H 9.156047 7.964856 -7.801712 0
M  V30 40 H 12.795432 8.075653 -10.262934 0
M  V30 41 H 10.722354 6.380831 -8.488648 0
M  V30 42 H 11.995203 7.535067 -8.198104 0
M  V30 43 H 7.193567 5.574370 -10.049752 0
M  V30 44 H 7.622474 6.498944 -11.978600 0
M  V30 45 H 7.319236 1.600399 -14.175642 0
M  V30 END ATOM
M  V30 BEGIN BOND
M  V30 1 1 5 2
M  V30 2 1 6 3
M  V30 3 1 8 6
M  V30 4 1 9 3
M  V30 5 1 10 2
M  V30 6 1 11 1
M  V30 7 1 12 5
M  V30 8 1 13 1
M  V30 9 1 14 6
M  V30 10 1 14 7
M  V30 11 1 15 5
M  V30 12 1 16 5
M  V30 13 1 17 4
M  V30 14 1 17 10
M  V30 15 2 18 12
M  V30 16 1 19 4
M  V30 17 1 20 6
M  V30 18 1 21 11
M  V30 19 1 22 11
M  V30 20 1 22 19
M  V30 21 2 24 10
M  V30 22 1 24 12
M  V30 23 1 25 13
M  V30 24 1 25 14
M  V30 25 1 25 23
M  V30 26 1 26 1
M  V30 27 1 27 1
M  V30 28 1 28 3
M  V30 29 1 29 3
M  V30 30 1 30 7
M  V30 31 1 31 9
M  V30 32 1 32 9
M  V30 33 1 11 33 CFG=1
M  V30 34 1 34 13
M  V30 35 1 35 13
M  V30 36 1 14 36 CFG=1
M  V30 37 1 37 17
M  V30 38 1 38 17
M  V30 39 1 39 19
M  V30 40 1 40 21
M  V30 41 1 41 22
M  V30 42 1 42 22
M  V30 43 1 43 23
M  V30 44 1 25 44 CFG=3
M  V30 45 1 45 9
M  V30 END BOND
M  V30 END CTAB
M  END
>  <i_epik_Tot_Q>  (1) 
0

>  <i_epik_Tot_abs_Q>  (1) 
2

>  <i_i_glide_confnum>  (1) 
67

>  <i_i_glide_lignum>  (1) 
91

>  <i_i_glide_posenum>  (1) 
306

>  <i_i_glide_rotatable_bonds>  (1) 
14

>  <i_lp_mmshare_version>  (1) 
72125

>  <i_m_source_file_index>  (1) 
31

>  <i_f3d_flags>  (1) 
0

>  <num_sample>  (1) 
50

>  <b_lp_Chiralities_Consistent>  (1) 
1

>  <r_epik_Charging_Adjusted_Penalty>  (1) 
1.1033345343036571

>  <r_epik_Ionization_Penalty>  (1) 
0.55249664061947246

>  <r_epik_Ionization_Penalty_Charging>  (1) 
0.55167603061160131

>  <r_epik_Ionization_Penalty_Neutral>  (1) 
0.00082061000787111938

>  <r_epik_State_Penalty>  (1) 
0.55165850369205582

>  <r_glide_ring_energy>  (1) 
0

>  <r_i_docking_score>  (1) 
-4.0683183657152835

>  <r_i_glide_ecoul>  (1) 
-4.658091230723536

>  <r_i_glide_eff_state_penalty>  (1) 
0.55165850369205582

>  <r_i_glide_einternal>  (1) 
8.0771894673024072

>  <r_i_glide_emodel>  (1) 
-45.851946412657476

>  <r_i_glide_emodel_strain>  (1) 
0.60527056517118893

>  <r_i_glide_energy>  (1) 
-35.335237772587277

>  <r_i_glide_erotb>  (1) 
1.2301891588113794

>  <r_i_glide_esite>  (1) 
-0.0099104293571608201

>  <r_i_glide_evdw>  (1) 
-30.677146541863742

>  <r_i_glide_gscore>  (1) 
-4.6199768694073393

>  <r_i_glide_gscore_strain>  (1) 
0

>  <r_i_glide_hbond>  (1) 
-0.028801442805803636

>  <r_i_glide_ligand_efficiency>  (1) 
-0.16273273462861135

>  <r_i_glide_ligand_efficiency_ln>  (1) 
-0.96431337033779108

>  <r_i_glide_ligand_efficiency_sa>  (1) 
-0.47583340264194673

>  <r_i_glide_lipo>  (1) 
-1.1366724032116324

>  <r_i_glide_metal>  (1) 
-0

>  <r_i_glide_rewards>  (1) 
-2.4422107411424032

>  <r_lp_Energy>  (1) 
22.548693

>  <s_epik_Chemistry_Notes>  (1) 
This compound has an imine and may undergo hydrolysis. This compound has a N-S or N-O group and may undergo hydrolysis at high or low pH.

>  <s_epik_cmdline>  (1) 
J2VwaWtfcHl0aG9uJywgJy1waHQnLCAnMS4wJywgJy1waCcsICc3LjQnLCAnLXRuJywgJzgnLCAnLW1hJywgJzUwMCcsICctaW1hZScsICc8aW5maWxlLm1hZT4nLCAnLW9tYWUnLCAnPG91dGZpbGUubWFlPic=

>  <s_epik_input>  (1) 
W05IMl1bQ0gyXUMoRikoRilbQ0BASF0oW09IXSlbQ0BASF0oW09IXSlbQ0gyXVtDSDJdW0NASF0oW09IXSlbQ0gyXVtOSF1PW0NIMl1DKD1OQzEoRilGKVtOSF1DMT1P

>  <s_glide_docking_method>  (1) 
confgen

>  <s_i_glide_gridfile>  (1) 
gpcr_drd2_6luq_protein_autoprepared_prepared

>  <s_lp_Force_Field>  (1) 
S-OPLS

>  <s_lp_Variant>  (1) 
DiffSBDD_30-3

>  <s_m_source_file>  (1) 
generated_generic_title2_ligand_DiffSBDD_2026-06-23_prepared.sdf

>  <GenAI_Model>  (1) 
DiffSBDD

>  <Protein>  (1) 
generic_title2

$$$$
DiffSBDD_0
     RDKit          3D

  0  0  0  0  0  0  0  0  0  0999 V3000
M  V30 BEGIN CTAB
M  V30 COUNTS 70 74 0 0 1
M  V30 BEGIN ATOM
M  V30 1 C 11.209674 8.985304 -8.097299 0
M  V30 2 N 8.032184 3.642542 -12.971492 0
M  V30 3 C 7.041473 5.081282 -16.882027 0 CFG=1
M  V30 4 C 9.167255 3.911504 -10.804594 0
M  V30 5 F 9.445122 8.296510 -5.985026 0
M  V30 6 C 7.358254 4.952765 -13.032998 0
M  V30 7 C 12.103253 7.740071 -7.974496 0
M  V30 8 C 8.520388 5.214734 -8.970988 0
M  V30 9 C 10.089369 6.381988 -7.176146 0 CFG=1
M  V30 10 C 9.615518 4.725041 -17.621027 0
M  V30 11 C 7.693754 2.707879 -14.048213 0 CFG=2
M  V30 12 C 6.557186 -0.140539 -14.219035 0
M  V30 13 C 8.150335 4.850532 -17.924989 0 CFG=1
M  V30 14 O 8.469823 5.006356 -10.387647 0
M  V30 15 C 9.270835 7.675573 -7.147320 0 CFG=2
M  V30 16 C 7.161033 3.754626 -17.608479 0 CFG=1
M  V30 17 N 7.163426 4.645869 -15.465356 0 CFG=1 CHG=1
M  V30 18 C 9.943240 5.589402 -8.497089 0
M  V30 19 C 6.144456 1.048989 -13.333670 0
M  V30 20 C 7.917430 3.395506 -15.391318 0 CFG=2
M  V30 21 O 5.564203 -0.409762 -15.185025 0
M  V30 22 C 11.565551 6.750501 -6.914257 0
M  V30 23 N 10.280621 5.590228 -16.806634 0
M  V30 24 C 7.540436 5.616900 -14.422179 0
M  V30 25 N 10.349924 3.750745 -18.160431 0
M  V30 26 O 11.648042 4.002348 -17.686890 0
M  V30 27 C 11.505093 5.104497 -16.929171 0
M  V30 28 O 6.369305 2.293091 -13.985027 0
M  V30 29 N 12.681814 5.587289 -16.385024 0
M  V30 30 C 8.954129 3.289000 -11.985022 0
M  V30 31 C 9.709316 8.633763 -8.251063 0
M  V30 32 C 12.941668 6.730446 -15.531723 0
M  V30 33 C 7.481842 2.627638 -16.640712 0
M  V30 34 H 11.351048 9.590226 -7.201234 0
M  V30 35 H 11.541509 9.590634 -8.940593 0
M  V30 36 H 6.181679 5.712548 -17.098329 0
M  V30 37 H 9.892011 3.590187 -10.084421 0
M  V30 38 H 6.299719 4.806078 -12.815833 0
M  V30 39 H 7.726912 5.674497 -12.313170 0
M  V30 40 H 13.118079 8.045884 -7.723368 0
M  V30 41 H 12.175470 7.261866 -8.949617 0
M  V30 42 H 7.799815 5.990226 -8.757258 0
M  V30 43 H 8.146188 4.354940 -8.420496 0
M  V30 44 H 9.740654 5.750434 -6.362491 0
M  V30 45 H 8.361003 1.849005 -13.971924 0
M  V30 46 H 6.641207 -1.026399 -13.591888 0
M  V30 47 H 7.521294 -0.000786 -14.705278 0
M  V30 48 H 8.029037 5.365360 -18.876353 0
M  V30 49 H 8.210193 7.462237 -7.185037 0
M  V30 50 H 6.440110 3.517978 -18.388746 0
M  V30 51 H 10.538927 4.685645 -8.385030 0
M  V30 52 H 10.395397 6.141164 -9.315847 0
M  V30 53 H 5.085822 0.963785 -13.091674 0
M  V30 54 H 6.683811 1.030318 -12.385594 0
M  V30 55 H 8.975411 3.620682 -15.444149 0
M  V30 56 H 4.975385 -1.052878 -14.806605 0
M  V30 57 H 11.654369 7.208987 -5.928895 0
M  V30 58 H 12.175413 5.850952 -6.853303 0
M  V30 59 H 6.919592 6.510143 -14.499471 0
M  V30 60 H 8.575396 5.928401 -14.564509 0
M  V30 61 H 13.503762 5.047754 -16.610750 0
M  V30 62 H 9.524265 2.408183 -12.243352 0
M  V30 63 H 9.046545 9.494213 -8.193889 0
M  V30 64 H 9.520992 8.201888 -9.233113 0
M  V30 65 H 13.959593 6.688949 -15.144144 0
M  V30 66 H 12.819474 7.658088 -16.092109 0
M  V30 67 H 12.251546 6.739016 -14.687239 0
M  V30 68 H 6.579655 2.036868 -16.475007 0
M  V30 69 H 8.260015 1.969576 -17.029555 0
M  V30 70 H 6.229406 4.358895 -15.207210 0
M  V30 END ATOM
M  V30 BEGIN BOND
M  V30 1 1 6 2
M  V30 2 1 7 1
M  V30 3 1 11 2
M  V30 4 1 13 3
M  V30 5 1 13 10
M  V30 6 1 14 4
M  V30 7 1 14 8
M  V30 8 1 15 5
M  V30 9 1 15 9
M  V30 10 1 16 3
M  V30 11 1 16 13
M  V30 12 1 17 3
M  V30 13 1 18 8
M  V30 14 1 18 9
M  V30 15 1 19 12
M  V30 16 1 20 11
M  V30 17 1 20 17
M  V30 18 1 21 12
M  V30 19 1 22 7
M  V30 20 1 22 9
M  V30 21 1 23 10
M  V30 22 1 24 6
M  V30 23 1 24 17
M  V30 24 2 25 10
M  V30 25 1 26 25
M  V30 26 2 27 23
M  V30 27 1 27 26
M  V30 28 1 28 11
M  V30 29 1 28 19
M  V30 30 1 29 27
M  V30 31 1 30 2
M  V30 32 2 30 4
M  V30 33 1 31 1
M  V30 34 1 31 15
M  V30 35 1 32 29
M  V30 36 1 33 16
M  V30 37 1 33 20
M  V30 38 1 34 1
M  V30 39 1 35 1
M  V30 40 1 3 36 CFG=1
M  V30 41 1 37 4
M  V30 42 1 38 6
M  V30 43 1 39 6
M  V30 44 1 40 7
M  V30 45 1 41 7
M  V30 46 1 42 8
M  V30 47 1 43 8
M  V30 48 1 9 44 CFG=1
M  V30 49 1 11 45 CFG=3
M  V30 50 1 46 12
M  V30 51 1 47 12
M  V30 52 1 13 48 CFG=3
M  V30 53 1 15 49 CFG=3
M  V30 54 1 16 50 CFG=3
M  V30 55 1 51 18
M  V30 56 1 52 18
M  V30 57 1 53 19
M  V30 58 1 54 19
M  V30 59 1 20 55 CFG=3
M  V30 60 1 56 21
M  V30 61 1 57 22
M  V30 62 1 58 22
M  V30 63 1 59 24
M  V30 64 1 60 24
M  V30 65 1 61 29
M  V30 66 1 62 30
M  V30 67 1 63 31
M  V30 68 1 64 31
M  V30 69 1 65 32
M  V30 70 1 66 32
M  V30 71 1 67 32
M  V30 72 1 68 33
M  V30 73 1 69 33
M  V30 74 1 17 70 CFG=1
M  V30 END BOND
M  V30 END CTAB
M  END
>  <i_epik_Tot_Q>  (1) 
1

>  <i_epik_Tot_abs_Q>  (1) 
1

>  <i_i_glide_confnum>  (1) 
497

>  <i_i_glide_lignum>  (1) 
4

>  <i_i_glide_posenum>  (1) 
67

>  <i_i_glide_rotatable_bonds>  (1) 
11

>  <i_lp_mmshare_version>  (1) 
72125

>  <i_m_source_file_index>  (1) 
1

>  <i_f3d_flags>  (1) 
0

>  <num_sample>  (1) 
50

>  <b_lp_Chiralities_Consistent>  (1) 
1

>  <r_epik_Charging_Adjusted_Penalty>  (1) 
0.41344222577729461

>  <r_epik_Ionization_Penalty>  (1) 
0.0027644559619576371

>  <r_epik_Ionization_Penalty_Charging>  (1) 
0.0027623868246906495

>  <r_epik_Ionization_Penalty_Neutral>  (1) 
2.0691372669875143e-06

>  <r_epik_State_Penalty>  (1) 
0.41067983895260396

>  <r_glide_ring_energy>  (1) 
1.2887488819257875

>  <r_i_docking_score>  (1) 
-4.0638321183312236

>  <r_i_glide_ecoul>  (1) 
-3.3811604299782134

>  <r_i_glide_eff_state_penalty>  (1) 
0.41067983895260396

>  <r_i_glide_einternal>  (1) 
17.513346902504374

>  <r_i_glide_emodel>  (1) 
-29.40773355392135

>  <r_i_glide_emodel_strain>  (1) 
1.4628239284004962

>  <r_i_glide_energy>  (1) 
-31.255318633741872

>  <r_i_glide_erotb>  (1) 
0.74142510397790429

>  <r_i_glide_esite>  (1) 
-0.01844991406131288

>  <r_i_glide_evdw>  (1) 
-27.87415820376366

>  <r_i_glide_gscore>  (1) 
-4.4745119572838279

>  <r_i_glide_gscore_strain>  (1) 
0

>  <r_i_glide_hbond>  (1) 
-0.13605388006038693

>  <r_i_glide_ligand_efficiency>  (1) 
-0.1231464278282189

>  <r_i_glide_ligand_efficiency_ln>  (1) 
-0.9037752217202667

>  <r_i_glide_ligand_efficiency_sa>  (1) 
-0.39499639487536553

>  <r_i_glide_lipo>  (1) 
-1.995225641154478

>  <r_i_glide_metal>  (1) 
-0

>  <r_i_glide_rewards>  (1) 
-1.1653256513006398

>  <r_lp_Energy>  (1) 
41.409427000000001

>  <r_lp_tautomer_probability>  (1) 
0.5

>  <s_epik_Chemistry_Notes>  (1) 
This compound has an imine and may undergo hydrolysis. This compound contains an acetal/aminal-like group ( X-CH(R)-Y where X, Y are N, S, or O) that may be acid/base labile, releasing an aldehyde.

>  <s_epik_cmdline>  (1) 
J2VwaWtfcHl0aG9uJywgJy1waHQnLCAnMS4wJywgJy1waCcsICc3LjQnLCAnLXRuJywgJzgnLCAnLW1hJywgJzUwMCcsICctaW1hZScsICc8aW5maWxlLm1hZT4nLCAnLW9tYWUnLCAnPG91dGZpbGUubWFlPic=

>  <s_epik_input>  (1) 
W0NIMl0xW0NIMl1bQ0gyXVtDSDJdW0NASF0oRilbQ0BIXTFbQ0gyXVtDSDJdTy9bQ0hdPVtDSF1cTihbQ0BIXTJPW0NIMl1bQ0gyXVtPSF0pW0NIMl1bQ0gyXU4zW0NAQEhdMltDSDJdW0NAQEhdKFtDQEBIXTM0KVtDQEBIXTRjNW5jKG9uNSlbTkhdW0NIM10=

>  <s_glide_docking_method>  (1) 
confgen

>  <s_i_glide_gridfile>  (1) 
gpcr_drd2_6luq_protein_autoprepared_prepared

>  <s_lp_Force_Field>  (1) 
S-OPLS

>  <s_lp_Variant>  (1) 
DiffSBDD_0-4

>  <s_m_source_file>  (1) 
generated_generic_title2_ligand_DiffSBDD_2026-06-23_prepared.sdf

>  <GenAI_Model>  (1) 
DiffSBDD

>  <Protein>  (1) 
generic_title2

$$$$
DiffSBDD_0
     RDKit          3D

  0  0  0  0  0  0  0  0  0  0999 V3000
M  V30 BEGIN CTAB
M  V30 COUNTS 70 74 0 0 1
M  V30 BEGIN ATOM
M  V30 1 C 10.200900 7.137773 -5.811519 0
M  V30 2 N 8.228600 4.033767 -13.618834 0
M  V30 3 C 7.206638 4.603842 -17.741268 0 CFG=1
M  V30 4 C 9.524454 4.833270 -11.679582 0
M  V30 5 F 12.243827 8.665856 -7.330938 0
M  V30 6 C 7.560135 5.302265 -13.981786 0
M  V30 7 C 8.984361 7.609631 -6.619915 0
M  V30 8 C 9.992550 7.058584 -11.038466 0
M  V30 9 C 10.421251 8.041552 -8.664272 0 CFG=1
M  V30 10 C 9.791501 4.407524 -18.341724 0
M  V30 11 C 7.912156 2.891517 -14.480766 0 CFG=2
M  V30 12 C 5.901916 0.281938 -13.576986 0
M  V30 13 C 8.344319 4.266431 -18.709572 0 CFG=1
M  V30 14 O 9.185631 6.152737 -11.788035 0
M  V30 15 C 11.659219 7.592272 -7.867184 0 CFG=2
M  V30 16 C 7.428264 3.173636 -18.187431 0 CFG=1
M  V30 17 N 7.375470 4.486953 -16.268950 0 CFG=1 CHG=1
M  V30 18 C 9.807467 6.897498 -9.518713 0
M  V30 19 C 6.430297 1.654004 -13.159348 0
M  V30 20 C 8.160873 3.298514 -15.934382 0 CFG=2
M  V30 21 O 4.558868 0.390153 -13.985062 0
M  V30 22 C 9.414312 8.634460 -7.670085 0
M  V30 23 N 10.342913 5.590165 -17.944725 0
M  V30 24 C 7.757200 5.661977 -15.469665 0
M  V30 25 N 10.622715 3.365191 -18.398933 0
M  V30 26 O 11.853863 3.890160 -17.975324 0
M  V30 27 C 11.590366 5.189597 -17.749380 0
M  V30 28 O 6.615282 2.443514 -14.329961 0
M  V30 29 N 12.683128 5.936330 -17.346605 0
M  V30 30 C 9.086210 3.877248 -12.522673 0
M  V30 31 C 11.298770 6.589072 -6.741952 0
M  V30 32 C 12.817306 7.345785 -17.034318 0
M  V30 33 C 7.779772 2.282631 -17.008119 0
M  V30 34 H 10.593743 7.969927 -5.226741 0
M  V30 35 H 9.901051 6.374668 -5.094034 0
M  V30 36 H 6.307929 5.120853 -18.071312 0
M  V30 37 H 10.175403 4.639416 -10.852287 0
M  V30 38 H 6.495300 5.159576 -13.793523 0
M  V30 39 H 7.815551 6.175117 -13.402246 0
M  V30 40 H 8.234826 8.072388 -5.984999 0
M  V30 41 H 8.507197 6.748098 -7.083042 0
M  V30 42 H 11.041305 6.957395 -11.318596 0
M  V30 43 H 9.691010 8.063518 -11.335592 0
M  V30 44 H 10.725055 8.847139 -9.333773 0
M  V30 45 H 8.575381 2.062962 -14.236895 0
M  V30 46 H 5.942902 -0.404302 -12.729827 0
M  V30 47 H 6.507560 -0.152854 -14.372903 0
M  V30 48 H 8.207594 4.567953 -19.745451 0
M  V30 49 H 12.392392 7.190239 -8.558069 0
M  V30 50 H 6.737467 2.741326 -18.909368 0
M  V30 51 H 8.743328 6.790271 -9.329076 0
M  V30 52 H 10.216344 5.944153 -9.196333 0
M  V30 53 H 5.775394 2.170640 -12.465259 0
M  V30 54 H 7.356837 1.494756 -12.605935 0
M  V30 55 H 9.218865 3.541813 -16.011464 0
M  V30 56 H 4.226459 -0.495595 -14.058890 0
M  V30 57 H 9.871538 9.455485 -7.124114 0
M  V30 58 H 8.575460 9.063376 -8.206029 0
M  V30 59 H 7.132279 6.513420 -15.738128 0
M  V30 60 H 8.794287 5.936034 -15.664186 0
M  V30 61 H 13.542136 5.412894 -17.260742 0
M  V30 62 H 9.401128 2.852610 -12.383838 0
M  V30 63 H 12.175404 6.329063 -6.155917 0
M  V30 64 H 10.960126 5.646397 -7.170451 0
M  V30 65 H 13.869998 7.630295 -17.022042 0
M  V30 66 H 12.305676 7.955143 -17.780151 0
M  V30 67 H 12.389573 7.557293 -16.055331 0
M  V30 68 H 6.900516 1.698791 -16.727842 0
M  V30 69 H 8.591983 1.595525 -17.249524 0
M  V30 70 H 6.453798 4.246794 -15.930655 0
M  V30 END ATOM
M  V30 BEGIN BOND
M  V30 1 1 6 2
M  V30 2 1 7 1
M  V30 3 1 11 2
M  V30 4 1 13 3
M  V30 5 1 13 10
M  V30 6 1 14 4
M  V30 7 1 14 8
M  V30 8 1 15 5
M  V30 9 1 15 9
M  V30 10 1 16 3
M  V30 11 1 16 13
M  V30 12 1 17 3
M  V30 13 1 18 8
M  V30 14 1 18 9
M  V30 15 1 19 12
M  V30 16 1 20 11
M  V30 17 1 20 17
M  V30 18 1 21 12
M  V30 19 1 22 7
M  V30 20 1 22 9
M  V30 21 1 23 10
M  V30 22 1 24 6
M  V30 23 1 24 17
M  V30 24 2 25 10
M  V30 25 1 26 25
M  V30 26 2 27 23
M  V30 27 1 27 26
M  V30 28 1 28 11
M  V30 29 1 28 19
M  V30 30 1 29 27
M  V30 31 1 30 2
M  V30 32 2 30 4
M  V30 33 1 31 1
M  V30 34 1 31 15
M  V30 35 1 32 29
M  V30 36 1 33 16
M  V30 37 1 33 20
M  V30 38 1 34 1
M  V30 39 1 35 1
M  V30 40 1 3 36 CFG=1
M  V30 41 1 37 4
M  V30 42 1 38 6
M  V30 43 1 39 6
M  V30 44 1 40 7
M  V30 45 1 41 7
M  V30 46 1 42 8
M  V30 47 1 43 8
M  V30 48 1 9 44 CFG=3
M  V30 49 1 11 45 CFG=1
M  V30 50 1 46 12
M  V30 51 1 47 12
M  V30 52 1 13 48 CFG=3
M  V30 53 1 15 49 CFG=3
M  V30 54 1 16 50 CFG=3
M  V30 55 1 51 18
M  V30 56 1 52 18
M  V30 57 1 53 19
M  V30 58 1 54 19
M  V30 59 1 20 55 CFG=1
M  V30 60 1 56 21
M  V30 61 1 57 22
M  V30 62 1 58 22
M  V30 63 1 59 24
M  V30 64 1 60 24
M  V30 65 1 61 29
M  V30 66 1 62 30
M  V30 67 1 63 31
M  V30 68 1 64 31
M  V30 69 1 65 32
M  V30 70 1 66 32
M  V30 71 1 67 32
M  V30 72 1 68 33
M  V30 73 1 69 33
M  V30 74 1 17 70 CFG=1
M  V30 END BOND
M  V30 END CTAB
M  END
>  <i_epik_Tot_Q>  (1) 
1

>  <i_epik_Tot_abs_Q>  (1) 
1

>  <i_i_glide_confnum>  (1) 
182

>  <i_i_glide_lignum>  (1) 
4

>  <i_i_glide_posenum>  (1) 
377

>  <i_i_glide_rotatable_bonds>  (1) 
11

>  <i_lp_mmshare_version>  (1) 
72125

>  <i_m_source_file_index>  (1) 
1

>  <i_f3d_flags>  (1) 
0

>  <num_sample>  (1) 
50

>  <b_lp_Chiralities_Consistent>  (1) 
1

>  <r_epik_Charging_Adjusted_Penalty>  (1) 
0.41344222577729461

>  <r_epik_Ionization_Penalty>  (1) 
0.0027644559619576371

>  <r_epik_Ionization_Penalty_Charging>  (1) 
0.0027623868246906495

>  <r_epik_Ionization_Penalty_Neutral>  (1) 
2.0691372669875143e-06

>  <r_epik_State_Penalty>  (1) 
0.41067983895260396

>  <r_glide_ring_energy>  (1) 
1.2887488819257875

>  <r_i_docking_score>  (1) 
-4.0633549736913182

>  <r_i_glide_ecoul>  (1) 
-1.9716157354928159

>  <r_i_glide_eff_state_penalty>  (1) 
0.41067983895260396

>  <r_i_glide_einternal>  (1) 
14.184545370560761

>  <r_i_glide_emodel>  (1) 
-33.591735308126843

>  <r_i_glide_emodel_strain>  (1) 
1.7329024184973036

>  <r_i_glide_energy>  (1) 
-34.045890860402849

>  <r_i_glide_erotb>  (1) 
0.74142510397790429

>  <r_i_glide_esite>  (1) 
0

>  <r_i_glide_evdw>  (1) 
-32.074275124910031

>  <r_i_glide_gscore>  (1) 
-4.4740348126439224

>  <r_i_glide_gscore_strain>  (1) 
0

>  <r_i_glide_hbond>  (1) 
-0.05958116497956982

>  <r_i_glide_ligand_efficiency>  (1) 
-0.12313196889973692

>  <r_i_glide_ligand_efficiency_ln>  (1) 
-0.90366910722287452

>  <r_i_glide_ligand_efficiency_sa>  (1) 
-0.39495001736588459

>  <r_i_glide_lipo>  (1) 
-1.8979033748734848

>  <r_i_glide_metal>  (1) 
-0

>  <r_i_glide_rewards>  (1) 
-1.3585192601993479

>  <r_lp_Energy>  (1) 
41.409427000000001

>  <r_lp_tautomer_probability>  (1) 
0.5

>  <s_epik_Chemistry_Notes>  (1) 
This compound has an imine and may undergo hydrolysis. This compound contains an acetal/aminal-like group ( X-CH(R)-Y where X, Y are N, S, or O) that may be acid/base labile, releasing an aldehyde.

>  <s_epik_cmdline>  (1) 
J2VwaWtfcHl0aG9uJywgJy1waHQnLCAnMS4wJywgJy1waCcsICc3LjQnLCAnLXRuJywgJzgnLCAnLW1hJywgJzUwMCcsICctaW1hZScsICc8aW5maWxlLm1hZT4nLCAnLW9tYWUnLCAnPG91dGZpbGUubWFlPic=

>  <s_epik_input>  (1) 
W0NIMl0xW0NIMl1bQ0gyXVtDSDJdW0NASF0oRilbQ0BIXTFbQ0gyXVtDSDJdTy9bQ0hdPVtDSF1cTihbQ0BIXTJPW0NIMl1bQ0gyXVtPSF0pW0NIMl1bQ0gyXU4zW0NAQEhdMltDSDJdW0NAQEhdKFtDQEBIXTM0KVtDQEBIXTRjNW5jKG9uNSlbTkhdW0NIM10=

>  <s_glide_docking_method>  (1) 
confgen

>  <s_i_glide_gridfile>  (1) 
gpcr_drd2_6luq_protein_autoprepared_prepared

>  <s_lp_Force_Field>  (1) 
S-OPLS

>  <s_lp_Variant>  (1) 
DiffSBDD_0-4

>  <s_m_source_file>  (1) 
generated_generic_title2_ligand_DiffSBDD_2026-06-23_prepared.sdf

>  <GenAI_Model>  (1) 
DiffSBDD

>  <Protein>  (1) 
generic_title2

$$$$
DiffSBDD_8
     RDKit          3D

  0  0  0  0  0  0  0  0  0  0999 V3000
M  V30 BEGIN CTAB
M  V30 COUNTS 69 72 0 0 1
M  V30 BEGIN ATOM
M  V30 1 N 8.099863 3.988871 -15.984255 0
M  V30 2 C 7.921046 0.565344 -16.626673 0
M  V30 3 C 6.904733 6.236231 -12.408345 0 CFG=1
M  V30 4 N 7.249550 0.729786 -18.878756 0
M  V30 5 O 9.375052 4.422139 -13.334308 0
M  V30 6 C 9.237505 5.202234 -8.933115 0
M  V30 7 F 5.860436 2.559499 -18.785027 0
M  V30 8 C 9.489939 6.394758 -8.000507 0
M  V30 9 N 8.404687 5.569724 -10.065092 0
M  V30 10 C 8.470840 4.639157 -11.193153 0 CFG=1
M  V30 11 C 6.290462 1.501856 -18.092618 0 CFG=2
M  V30 12 C 12.364877 8.204428 -3.449176 0
M  V30 13 C 7.335353 4.793124 -12.188888 0 CFG=2
M  V30 14 O 10.051636 6.284294 -12.121495 0
M  V30 15 O 6.651557 0.001219 -20.009876 0
M  V30 16 C 10.825528 6.244824 -7.248916 0
M  V30 17 C 7.712500 2.765619 -13.775101 0
M  V30 18 C 8.929785 5.189582 -16.111894 0
M  V30 19 C 7.343327 3.862185 -14.763592 0 CFG=1
M  V30 20 C 7.100587 1.855940 -16.828448 0 CFG=2
M  V30 21 C 8.042194 3.085489 -17.000496 0
M  V30 22 C 5.601094 6.589544 -13.034549 0
M  V30 23 C 9.706248 4.914597 -12.072474 0 CFG=2
M  V30 24 C 7.970171 4.208480 -13.420476 0 CFG=2
M  V30 25 O 12.575401 8.423865 -2.069301 0
M  V30 26 O 8.701563 3.213947 -18.032890 0
M  V30 27 C 11.775377 6.795042 -3.662685 0
M  V30 28 C 5.333234 -0.493257 -19.766437 0
M  V30 29 C 7.831315 -0.223634 -17.946459 0
M  V30 30 O 11.702343 6.390231 -5.024597 0
M  V30 31 C 10.872170 6.975545 -5.909172 0
M  V30 32 N 5.775403 6.600591 -11.585024 0 CHG=1
M  V30 33 O 10.212711 7.991192 -5.697870 0
M  V30 34 H 8.964052 0.775927 -16.385135 0
M  V30 35 H 7.520321 -0.029673 -15.804265 0
M  V30 36 H 7.656584 7.019014 -12.379055 0
M  V30 37 H 10.175626 4.814287 -9.300732 0
M  V30 38 H 8.778146 4.390195 -8.371734 0
M  V30 39 H 8.646480 6.488732 -7.313757 0
M  V30 40 H 9.520245 7.325472 -8.569638 0
M  V30 41 H 8.682554 6.498556 -10.371200 0
M  V30 42 H 8.527819 3.603218 -10.859769 0
M  V30 43 H 5.418591 0.929733 -17.777558 0
M  V30 44 H 11.700087 8.979847 -3.829669 0
M  V30 45 H 13.314538 8.309543 -3.972638 0
M  V30 46 H 6.474778 4.189485 -11.894433 0
M  V30 47 H 9.452799 6.709281 -12.712997 0
M  V30 48 H 11.638701 6.614381 -7.872028 0
M  V30 49 H 11.031541 5.190849 -7.068508 0
M  V30 50 H 8.574706 2.138161 -13.989415 0
M  V30 51 H 6.890920 2.254908 -13.277063 0
M  V30 52 H 9.964725 4.958689 -15.856391 0
M  V30 53 H 8.913455 5.590214 -17.127171 0
M  V30 54 H 8.585235 5.986248 -15.451915 0
M  V30 55 H 6.283642 4.097327 -14.848493 0
M  V30 56 H 6.390479 1.981055 -16.016487 0
M  V30 57 H 5.400252 7.590283 -13.402076 0
M  V30 58 H 4.975067 5.772787 -13.376698 0
M  V30 59 H 10.575398 4.390212 -11.708347 0
M  V30 60 H 12.924879 9.296645 -1.943479 0
M  V30 61 H 12.411035 6.069921 -3.155409 0
M  V30 62 H 10.797773 6.690233 -3.201742 0
M  V30 63 H 5.050829 -1.136825 -20.599862 0
M  V30 64 H 5.257009 -1.094937 -18.860891 0
M  V30 65 H 4.593411 0.308166 -19.738417 0
M  V30 66 H 8.806105 -0.565644 -18.296094 0
M  V30 67 H 7.192591 -1.096269 -17.815662 0
M  V30 68 H 5.486389 5.797545 -11.045546 0
M  V30 69 H 6.051857 7.426907 -11.055623 0
M  V30 END ATOM
M  V30 BEGIN BOND
M  V30 1 1 8 6
M  V30 2 1 9 6
M  V30 3 1 10 9
M  V30 4 1 11 4
M  V30 5 1 11 7
M  V30 6 1 13 3
M  V30 7 1 13 10
M  V30 8 1 15 4
M  V30 9 1 16 8
M  V30 10 1 18 1
M  V30 11 1 19 1
M  V30 12 1 19 17
M  V30 13 1 20 2
M  V30 14 1 20 11
M  V30 15 1 21 1
M  V30 16 1 21 20
M  V30 17 1 22 3
M  V30 18 1 23 5
M  V30 19 1 23 10
M  V30 20 1 23 14
M  V30 21 1 24 5 CFG=3
M  V30 22 1 24 13
M  V30 23 1 24 17
M  V30 24 1 24 19
M  V30 25 1 25 12
M  V30 26 2 26 21
M  V30 27 1 27 12
M  V30 28 1 28 15
M  V30 29 1 29 2
M  V30 30 1 29 4
M  V30 31 1 30 27
M  V30 32 1 31 16
M  V30 33 1 31 30
M  V30 34 1 32 3
M  V30 35 1 32 22
M  V30 36 2 33 31
M  V30 37 1 34 2
M  V30 38 1 35 2
M  V30 39 1 3 36 CFG=3
M  V30 40 1 37 6
M  V30 41 1 38 6
M  V30 42 1 39 8
M  V30 43 1 40 8
M  V30 44 1 41 9
M  V30 45 1 10 42 CFG=1
M  V30 46 1 11 43 CFG=1
M  V30 47 1 44 12
M  V30 48 1 45 12
M  V30 49 1 13 46 CFG=1
M  V30 50 1 47 14
M  V30 51 1 48 16
M  V30 52 1 49 16
M  V30 53 1 50 17
M  V30 54 1 51 17
M  V30 55 1 52 18
M  V30 56 1 53 18
M  V30 57 1 54 18
M  V30 58 1 19 55 CFG=3
M  V30 59 1 20 56 CFG=1
M  V30 60 1 57 22
M  V30 61 1 58 22
M  V30 62 1 23 59 CFG=1
M  V30 63 1 60 25
M  V30 64 1 61 27
M  V30 65 1 62 27
M  V30 66 1 63 28
M  V30 67 1 64 28
M  V30 68 1 65 28
M  V30 69 1 66 29
M  V30 70 1 67 29
M  V30 71 1 68 32
M  V30 72 1 69 32
M  V30 END BOND
M  V30 END CTAB
M  END
>  <i_epik_Tot_Q>  (1) 
1

>  <i_epik_Tot_abs_Q>  (1) 
1

>  <i_i_glide_confnum>  (1) 
9098

>  <i_i_glide_lignum>  (1) 
36

>  <i_i_glide_posenum>  (1) 
130

>  <i_i_glide_rotatable_bonds>  (1) 
15

>  <i_lp_mmshare_version>  (1) 
72125

>  <i_m_source_file_index>  (1) 
9

>  <i_f3d_flags>  (1) 
0

>  <num_sample>  (1) 
50

>  <b_lp_Chiralities_Consistent>  (1) 
1

>  <r_epik_Charging_Adjusted_Penalty>  (1) 
1.2103720943885907

>  <r_epik_Ionization_Penalty>  (1) 
0.55446808147534954

>  <r_epik_Ionization_Penalty_Charging>  (1) 
0.13553905892425583

>  <r_epik_Ionization_Penalty_Neutral>  (1) 
0.41892902255109377

>  <r_epik_State_Penalty>  (1) 
1.074833035464335

>  <r_glide_ring_energy>  (1) 
0.39280565251892818

>  <r_i_docking_score>  (1) 
-4.0596614853348889

>  <r_i_glide_ecoul>  (1) 
-6.421814918573066

>  <r_i_glide_eff_state_penalty>  (1) 
1.074833035464335

>  <r_i_glide_einternal>  (1) 
38.72995685178735

>  <r_i_glide_emodel>  (1) 
-36.624523625644059

>  <r_i_glide_emodel_strain>  (1) 
2.3664632455246704

>  <r_i_glide_energy>  (1) 
-42.797463553177394

>  <r_i_glide_erotb>  (1) 
1.0741905119875848

>  <r_i_glide_esite>  (1) 
-0.10000000000000001

>  <r_i_glide_evdw>  (1) 
-36.375648634604325

>  <r_i_glide_gscore>  (1) 
-5.1344945207992243

>  <r_i_glide_gscore_strain>  (1) 
0

>  <r_i_glide_hbond>  (1) 
-0.29688608287972174

>  <r_i_glide_ligand_efficiency>  (1) 
-0.12302004501014815

>  <r_i_glide_ligand_efficiency_ln>  (1) 
-0.90284769453626379

>  <r_i_glide_ligand_efficiency_sa>  (1) 
-0.39459101764768201

>  <r_i_glide_lipo>  (1) 
-1.6893088947176618

>  <r_i_glide_metal>  (1) 
-0

>  <r_i_glide_rewards>  (1) 
-1.3404353856732494

>  <r_lp_Energy>  (1) 
39.739995999999998

>  <s_epik_Chemistry_Notes>  (1) 
This compound has an ester and may undergo hydrolysis at high or low pH. This compound contains an acetal/aminal-like group ( X-CH(R)-Y where X, Y are N, S, or O) that may be acid/base labile, releasing an aldehyde. This compound has a N-S or N-O group and may undergo hydrolysis at high or low pH.

>  <s_epik_cmdline>  (1) 
J2VwaWtfcHl0aG9uJywgJy1waHQnLCAnMS4wJywgJy1waCcsICc3LjQnLCAnLXRuJywgJzgnLCAnLW1hJywgJzUwMCcsICctaW1hZScsICc8aW5maWxlLm1hZT4nLCAnLW9tYWUnLCAnPG91dGZpbGUubWFlPic=

>  <s_epik_input>  (1) 
W0NIM11PTjFbQ0BIXShGKVtDQEBIXShbQ0gyXVtDSDJdMSlDKD1PKU4oW0NIM10pW0NASF0yW0NIMl1DMjNPW0NAQEhdKFtPSF0pW0NASF0oW0NASF0zW0NASF00W0NIMl1bTkhdNClbTkhdW0NIMl1bQ0gyXVtDSDJdQyg9TylPW0NIMl1bQ0gyXVtPSF0=

>  <s_glide_docking_method>  (1) 
confgen

>  <s_i_glide_gridfile>  (1) 
gpcr_drd2_6luq_protein_autoprepared_prepared

>  <s_lp_Force_Field>  (1) 
S-OPLS

>  <s_lp_Variant>  (1) 
DiffSBDD_8-5

>  <s_m_source_file>  (1) 
generated_generic_title2_ligand_DiffSBDD_2026-06-23_prepared.sdf

>  <GenAI_Model>  (1) 
DiffSBDD

>  <Protein>  (1) 
generic_title2

$$$$
DiffSBDD_11
     RDKit          3D

  0  0  0  0  0  0  0  0  0  0999 V3000
M  V30 BEGIN CTAB
M  V30 COUNTS 45 46 0 0 1
M  V30 BEGIN ATOM
M  V30 1 N 8.027805 5.606037 -11.362583 0
M  V30 2 O 11.203227 9.990204 -5.810377 0
M  V30 3 C 6.629547 4.685699 -12.637117 0
M  V30 4 C 12.975393 9.262649 -3.561751 0
M  V30 5 O 9.065887 4.833708 -9.439388 0
M  V30 6 N 7.322466 4.464424 -11.539679 0
M  V30 7 C 6.244715 6.525318 -14.381589 0
M  V30 8 N 5.775628 3.732392 -13.185019 0
M  V30 9 C 7.732398 6.559002 -12.364123 0
M  V30 10 C 8.975385 5.763363 -10.243518 0
M  V30 11 C 6.829485 5.973948 -13.212554 0
M  V30 12 C 11.588402 9.479503 -3.013782 0
M  V30 13 C 11.090467 8.639971 -5.409965 0 CFG=1
M  V30 14 C 11.512281 7.788517 -6.623076 0
M  V30 15 C 12.297373 6.581786 -2.405831 0
M  V30 16 C 9.833453 7.036021 -10.111140 0
M  V30 17 C 10.413134 7.760869 -7.703625 0
M  V30 18 C 8.328699 7.936133 -12.424343 0
M  V30 19 N 11.775412 6.992045 -3.702941 0
M  V30 20 N 5.775375 6.977288 -15.337655 0
M  V30 21 C 11.827250 8.415334 -4.077409 0
M  V30 22 C 10.862750 7.010298 -8.959811 0
M  V30 23 H 10.697074 10.106499 -6.599220 0
M  V30 24 H 13.648428 8.906863 -2.786301 0
M  V30 25 H 13.397946 9.990221 -4.247904 0
M  V30 26 H 5.270290 3.905573 -14.041082 0
M  V30 27 H 5.677106 2.817202 -12.770315 0
M  V30 28 H 11.069802 10.390198 -3.302791 0
M  V30 29 H 11.400835 9.176147 -1.988010 0
M  V30 30 H 10.042436 8.423514 -5.219118 0
M  V30 31 H 12.432788 8.182699 -7.057666 0
M  V30 32 H 11.719923 6.760373 -6.327102 0
M  V30 33 H 12.043930 5.545916 -2.209125 0
M  V30 34 H 13.375411 6.665910 -2.384422 0
M  V30 35 H 11.879338 7.160031 -1.585167 0
M  V30 36 H 9.214840 7.918503 -9.984040 0
M  V30 37 H 10.425075 7.121355 -11.018633 0
M  V30 38 H 9.507331 7.297658 -7.308456 0
M  V30 39 H 10.138335 8.779305 -7.978744 0
M  V30 40 H 7.897131 8.472460 -13.266683 0
M  V30 41 H 8.056334 8.545879 -11.566516 0
M  V30 42 H 9.399203 7.938042 -12.608217 0
M  V30 43 H 12.142042 6.408573 -4.448547 0
M  V30 44 H 11.792704 7.454946 -9.317046 0
M  V30 45 H 11.109684 5.990250 -8.674727 0
M  V30 END ATOM
M  V30 BEGIN BOND
M  V30 1 1 6 1
M  V30 2 2 6 3
M  V30 3 1 8 3
M  V30 4 1 9 1
M  V30 5 1 10 1
M  V30 6 2 10 5
M  V30 7 1 11 3
M  V30 8 1 11 7
M  V30 9 2 11 9
M  V30 10 1 12 4
M  V30 11 1 13 2
M  V30 12 1 14 13
M  V30 13 1 16 10
M  V30 14 1 17 14
M  V30 15 1 18 9
M  V30 16 1 19 15
M  V30 17 3 20 7
M  V30 18 1 21 4
M  V30 19 1 21 12
M  V30 20 1 21 13
M  V30 21 1 21 19
M  V30 22 1 22 16
M  V30 23 1 22 17
M  V30 24 1 23 2
M  V30 25 1 24 4
M  V30 26 1 25 4
M  V30 27 1 26 8
M  V30 28 1 27 8
M  V30 29 1 28 12
M  V30 30 1 29 12
M  V30 31 1 13 30 CFG=1
M  V30 32 1 31 14
M  V30 33 1 32 14
M  V30 34 1 33 15
M  V30 35 1 34 15
M  V30 36 1 35 15
M  V30 37 1 36 16
M  V30 38 1 37 16
M  V30 39 1 38 17
M  V30 40 1 39 17
M  V30 41 1 40 18
M  V30 42 1 41 18
M  V30 43 1 42 18
M  V30 44 1 43 19
M  V30 45 1 44 22
M  V30 46 1 45 22
M  V30 END BOND
M  V30 END CTAB
M  END
>  <i_epik_Tot_Q>  (1) 
0

>  <i_epik_Tot_abs_Q>  (1) 
0

>  <i_i_glide_confnum>  (1) 
27

>  <i_i_glide_lignum>  (1) 
47

>  <i_i_glide_posenum>  (1) 
323

>  <i_i_glide_rotatable_bonds>  (1) 
9

>  <i_lp_mmshare_version>  (1) 
72125

>  <i_m_source_file_index>  (1) 
12

>  <i_f3d_flags>  (1) 
0

>  <num_sample>  (1) 
50

>  <b_lp_Chiralities_Consistent>  (1) 
1

>  <r_epik_Charging_Adjusted_Penalty>  (1) 
0.42979424815249201

>  <r_epik_Ionization_Penalty>  (1) 
0.43485796908512792

>  <r_epik_Ionization_Penalty_Charging>  (1) 
0

>  <r_epik_Ionization_Penalty_Neutral>  (1) 
0.43485796908512792

>  <r_epik_State_Penalty>  (1) 
0.42979424815249201

>  <r_glide_ring_energy>  (1) 
0

>  <r_i_docking_score>  (1) 
-4.0595196165350398

>  <r_i_glide_ecoul>  (1) 
-0.69143661218391417

>  <r_i_glide_eff_state_penalty>  (1) 
0.42979424815249201

>  <r_i_glide_einternal>  (1) 
8.3754470950753994

>  <r_i_glide_emodel>  (1) 
-40.562215511090216

>  <r_i_glide_emodel_strain>  (1) 
1.4198929779086669

>  <r_i_glide_energy>  (1) 
-36.586317597265527

>  <r_i_glide_erotb>  (1) 
1.3853326947408005

>  <r_i_glide_esite>  (1) 
-0.12674442973375794

>  <r_i_glide_evdw>  (1) 
-35.894880985081613

>  <r_i_glide_gscore>  (1) 
-4.4893138646875315

>  <r_i_glide_gscore_strain>  (1) 
0

>  <r_i_glide_hbond>  (1) 
0

>  <r_i_glide_ligand_efficiency>  (1) 
-0.1845236189334109

>  <r_i_glide_ligand_efficiency_ln>  (1) 
-0.99229466885698059

>  <r_i_glide_ligand_efficiency_sa>  (1) 
-0.51704243768628444

>  <r_i_glide_lipo>  (1) 
-1.6904474117327066

>  <r_i_glide_metal>  (1) 
-0

>  <r_i_glide_rewards>  (1) 
-2.1589951768801994

>  <r_lp_Energy>  (1) 
19.305067999999999

>  <s_epik_cmdline>  (1) 
J2VwaWtfcHl0aG9uJywgJy1waHQnLCAnMS4wJywgJy1waCcsICc3LjQnLCAnLXRuJywgJzgnLCAnLW1hJywgJzUwMCcsICctaW1hZScsICc8aW5maWxlLm1hZT4nLCAnLW9tYWUnLCAnPG91dGZpbGUubWFlPic=

>  <s_epik_input>  (1) 
W0NIM11jMWMoQyNOKWMoW05IMl0pbm4xQyg9TylbQ0gyXVtDSDJdW0NIMl1bQ0gyXVtDQEhdKFtPSF0pQzIoW0NIMl1bQ0gyXTIpW05IXVtDSDNd

>  <s_glide_docking_method>  (1) 
confgen

>  <s_i_glide_gridfile>  (1) 
gpcr_drd2_6luq_protein_autoprepared_prepared

>  <s_lp_Force_Field>  (1) 
S-OPLS

>  <s_lp_Variant>  (1) 
DiffSBDD_11-2

>  <s_m_source_file>  (1) 
generated_generic_title2_ligand_DiffSBDD_2026-06-23_prepared.sdf

>  <GenAI_Model>  (1) 
DiffSBDD

>  <Protein>  (1) 
generic_title2

$$$$
DiffSBDD_13
     RDKit          3D

  0  0  0  0  0  0  0  0  0  0999 V3000
M  V30 BEGIN CTAB
M  V30 COUNTS 48 50 0 0 1
M  V30 BEGIN ATOM
M  V30 1 O 13.185896 8.390224 -9.551039 0
M  V30 2 C 12.153691 7.856636 -9.727951 0
M  V30 3 C 7.224178 1.177524 -16.728594 0
M  V30 4 F 8.344378 5.316070 -8.005966 0
M  V30 5 C 7.998931 3.788534 -15.650504 0
M  V30 6 F 6.807336 1.738592 -20.926648 0
M  V30 7 C 11.034886 7.190226 -9.904700 0
M  V30 8 C 8.640684 3.350323 -19.390155 0
M  V30 9 C 6.670643 1.702355 -19.601178 0
M  V30 10 C 8.698648 4.882480 -15.227264 0
M  V30 11 C 9.389432 7.904917 -6.785019 0
M  V30 12 F 6.230898 0.484867 -19.282157 0
M  V30 13 C 10.575425 6.790255 -11.227514 0
M  V30 14 C 10.237142 6.779350 -8.655209 0 CFG=1
M  V30 15 C 9.122831 5.617582 -12.722846 0
M  V30 16 C 7.539905 1.330144 -15.236129 0
M  V30 17 C 8.769439 4.191251 -18.121728 0
M  V30 18 C 7.514479 2.735474 -13.184829 0
M  V30 19 N 9.775385 7.988683 -7.987286 0
M  V30 20 C 9.503766 5.999574 -11.404171 0
M  V30 21 C 8.753628 5.505089 -10.269746 0
M  V30 22 C 8.885336 5.235877 -13.858756 0
M  V30 23 C 7.825461 3.493368 -17.142926 0 CFG=1
M  V30 24 C 9.071913 5.840285 -9.008069 0
M  V30 25 F 5.750826 2.601719 -19.249339 0
M  V30 26 C 8.050699 1.994563 -18.945556 0 CFG=2
M  V30 27 C 7.297766 2.761189 -14.708842 0 CFG=1
M  V30 28 N 8.067767 2.097589 -17.479609 0
M  V30 29 H 7.427458 0.152840 -17.042125 0
M  V30 30 H 6.168348 1.377974 -16.914890 0
M  V30 31 H 9.608186 3.226302 -19.877506 0
M  V30 32 H 7.981542 3.846787 -20.103300 0
M  V30 33 H 9.142700 5.544458 -15.954568 0
M  V30 34 H 9.028345 8.790016 -6.256671 0
M  V30 35 H 9.409307 6.948006 -6.255382 0
M  V30 36 H 11.126777 7.127161 -12.095460 0
M  V30 37 H 10.910363 6.214679 -8.004779 0
M  V30 38 H 8.575411 1.042885 -15.054338 0
M  V30 39 H 6.928215 0.617031 -14.681917 0
M  V30 40 H 9.798345 4.149661 -17.759971 0
M  V30 41 H 8.507595 5.236907 -18.287263 0
M  V30 42 H 7.097165 3.614717 -12.695069 0
M  V30 43 H 6.993808 1.887096 -12.740626 0
M  V30 44 H 8.566956 2.629773 -12.918411 0
M  V30 45 H 7.920037 4.839022 -10.439414 0
M  V30 46 H 6.797987 3.745940 -17.401779 0
M  V30 47 H 8.731742 1.190373 -19.225574 0
M  V30 48 H 6.237225 2.968512 -14.837966 0
M  V30 END ATOM
M  V30 BEGIN BOND
M  V30 1 2 2 1
M  V30 2 2 7 2
M  V30 3 1 9 6
M  V30 4 2 10 5
M  V30 5 1 12 9
M  V30 6 1 13 7
M  V30 7 1 14 7
M  V30 8 1 16 3
M  V30 9 1 17 8
M  V30 10 2 19 11
M  V30 11 1 19 14
M  V30 12 2 20 13
M  V30 13 1 20 15
M  V30 14 1 21 20
M  V30 15 1 22 10
M  V30 16 3 22 15
M  V30 17 1 23 5
M  V30 18 1 23 17
M  V30 19 1 24 4
M  V30 20 1 24 14
M  V30 21 2 24 21
M  V30 22 1 25 9
M  V30 23 1 26 8
M  V30 24 1 26 9
M  V30 25 1 27 5
M  V30 26 1 27 16
M  V30 27 1 27 18
M  V30 28 1 28 3
M  V30 29 1 28 23
M  V30 30 1 28 26
M  V30 31 1 29 3
M  V30 32 1 30 3
M  V30 33 1 31 8
M  V30 34 1 32 8
M  V30 35 1 33 10
M  V30 36 1 34 11
M  V30 37 1 35 11
M  V30 38 1 36 13
M  V30 39 1 14 37 CFG=1
M  V30 40 1 38 16
M  V30 41 1 39 16
M  V30 42 1 40 17
M  V30 43 1 41 17
M  V30 44 1 42 18
M  V30 45 1 43 18
M  V30 46 1 44 18
M  V30 47 1 45 21
M  V30 48 1 23 46 CFG=3
M  V30 49 1 26 47 CFG=1
M  V30 50 1 27 48 CFG=1
M  V30 END BOND
M  V30 END CTAB
M  END
>  <i_epik_Tot_Q>  (1) 
0

>  <i_epik_Tot_abs_Q>  (1) 
0

>  <i_i_glide_confnum>  (1) 
1

>  <i_i_glide_lignum>  (1) 
50

>  <i_i_glide_posenum>  (1) 
50

>  <i_i_glide_rotatable_bonds>  (1) 
4

>  <i_lp_mmshare_version>  (1) 
72125

>  <i_m_source_file_index>  (1) 
14

>  <i_f3d_flags>  (1) 
0

>  <num_sample>  (1) 
50

>  <b_lp_Chiralities_Consistent>  (1) 
1

>  <r_epik_Charging_Adjusted_Penalty>  (1) 
0

>  <r_epik_Ionization_Penalty>  (1) 
0.00020645461892998548

>  <r_epik_Ionization_Penalty_Charging>  (1) 
0

>  <r_epik_Ionization_Penalty_Neutral>  (1) 
0.00020645461892998548

>  <r_epik_State_Penalty>  (1) 
-0

>  <r_glide_ring_energy>  (1) 
0

>  <r_i_docking_score>  (1) 
-4.0590176502972852

>  <r_i_glide_ecoul>  (1) 
0.65602910223312882

>  <r_i_glide_eff_state_penalty>  (1) 
-0

>  <r_i_glide_einternal>  (1) 
0.26000068868740733

>  <r_i_glide_emodel>  (1) 
-37.505986769087514

>  <r_i_glide_emodel_strain>  (1) 
0.045509922723638851

>  <r_i_glide_energy>  (1) 
-31.324741487576233

>  <r_i_glide_erotb>  (1) 
0.38039990127662543

>  <r_i_glide_esite>  (1) 
-0.14363622791915245

>  <r_i_glide_evdw>  (1) 
-31.98077058980936

>  <r_i_glide_gscore>  (1) 
-4.0590176502972852

>  <r_i_glide_gscore_strain>  (1) 
0

>  <r_i_glide_hbond>  (1) 
0

>  <r_i_glide_ligand_efficiency>  (1) 
-0.1449649160820459

>  <r_i_glide_ligand_efficiency_ln>  (1) 
-0.93694045162543105

>  <r_i_glide_ligand_efficiency_sa>  (1) 
-0.44019886548362153

>  <r_i_glide_lipo>  (1) 
-1.3234497015418549

>  <r_i_glide_metal>  (1) 
-0

>  <r_i_glide_rewards>  (1) 
-1.4716974579574036

>  <r_lp_Energy>  (1) 
26.927206999999999

>  <r_lp_tautomer_probability>  (1) 
1

>  <s_epik_Chemistry_Notes>  (1) 
This compound has an imine and may undergo hydrolysis.

>  <s_epik_cmdline>  (1) 
J2VwaWtfcHl0aG9uJywgJy1waHQnLCAnMS4wJywgJy1waCcsICc3LjQnLCAnLXRuJywgJzgnLCAnLW1hJywgJzUwMCcsICctaW1hZScsICc8aW5maWxlLm1hZT4nLCAnLW9tYWUnLCAnPG91dGZpbGUubWFlPic=

>  <s_epik_input>  (1) 
W0NIMl09TltDQEhdMUMoRik9W0NIXUMoPVtDSF1DMT1DPU8pQyNDXFtDSF09Q1wyW0NASF0oW0NIM10pW0NIMl1bQ0gyXU4oW0NAQEhdMjMpW0NAQEhdKEMoRikoRilGKVtDSDJdW0NIMl0z

>  <s_glide_docking_method>  (1) 
confgen

>  <s_i_glide_gridfile>  (1) 
gpcr_drd2_6luq_protein_autoprepared_prepared

>  <s_lp_Force_Field>  (1) 
S-OPLS

>  <s_lp_Variant>  (1) 
DiffSBDD_13-1

>  <s_m_source_file>  (1) 
generated_generic_title2_ligand_DiffSBDD_2026-06-23_prepared.sdf

>  <GenAI_Model>  (1) 
DiffSBDD

>  <Protein>  (1) 
generic_title2

$$$$
DiffSBDD_39
     RDKit          3D

  0  0  0  0  0  0  0  0  0  0999 V3000
M  V30 BEGIN CTAB
M  V30 COUNTS 69 72 0 0 1
M  V30 BEGIN ATOM
M  V30 1 C 8.107490 5.548565 -15.202105 0
M  V30 2 F 12.977966 1.621621 -17.482719 0
M  V30 3 F 13.193278 1.954051 -19.610569 0
M  V30 4 C 11.597645 8.807984 -9.312200 0
M  V30 5 C 7.877693 6.582541 -12.841935 0
M  V30 6 C 6.612130 5.291081 -11.133890 0 CFG=1
M  V30 7 O 12.767969 8.614649 -8.549669 0
M  V30 8 C 11.329502 4.267983 -17.349300 0 CFG=2
M  V30 9 C 7.378687 2.937374 -14.161156 0
M  V30 10 C 8.944069 6.139304 -10.566089 0 CFG=2
M  V30 11 O 12.436057 5.931911 -15.985072 0
M  V30 12 C 7.544788 3.197504 -15.667811 0
M  V30 13 N 8.493510 4.311261 -15.933115 0 CFG=1 CHG=1
M  V30 14 C 14.050705 3.588832 -18.160868 0
M  V30 15 C 8.098860 5.295398 -13.680671 0 CFG=1
M  V30 16 C 8.730237 4.535968 -17.383120 0
M  V30 17 O 13.720321 4.327068 -16.988365 0
M  V30 18 C 6.885550 3.992345 -11.899129 0
M  V30 19 N 7.686313 6.303184 -11.380888 0 CFG=1 CHG=1
M  V30 20 C 10.865327 7.466223 -9.424117 0 CFG=1
M  V30 21 C 10.402737 6.944373 -8.049570 0
M  V30 22 C 10.107136 5.179744 -17.655655 0
M  V30 23 C 7.021794 4.228568 -13.403988 0 CFG=2
M  V30 24 C 12.596943 5.140388 -17.138551 0 CFG=1
M  V30 25 C 11.594888 3.234846 -18.456365 0
M  V30 26 C 9.812927 5.541466 -8.169785 0
M  V30 27 C 12.956951 2.548051 -18.440406 0
M  V30 28 O 10.748226 2.968991 -19.310643 0
M  V30 29 C 8.659611 5.501305 -9.168295 0
M  V30 30 O 5.452044 5.960051 -11.584417 0
M  V30 31 C 9.674241 7.508057 -10.404553 0
M  V30 32 H 7.124886 5.884308 -15.539982 0
M  V30 33 H 8.789121 6.352064 -15.451901 0
M  V30 34 H 10.975743 9.570160 -8.848221 0
M  V30 35 H 11.883866 9.175745 -10.298255 0
M  V30 36 H 6.996187 7.105710 -13.217463 0
M  V30 37 H 8.696565 7.281351 -12.994232 0
M  V30 38 H 6.414261 5.078084 -10.086274 0
M  V30 39 H 12.516449 8.340413 -7.681198 0
M  V30 40 H 11.166484 3.715259 -16.424823 0
M  V30 41 H 6.603632 2.185773 -14.004590 0
M  V30 42 H 8.297742 2.512610 -13.756099 0
M  V30 43 H 9.612217 5.460466 -11.097178 0
M  V30 44 H 12.425415 5.346217 -15.238865 0
M  V30 45 H 6.575410 3.434077 -16.100148 0
M  V30 46 H 7.898062 2.286984 -16.154007 0
M  V30 47 H 15.008757 3.092524 -18.003477 0
M  V30 48 H 14.183475 4.263869 -19.009443 0
M  V30 49 H 9.072736 4.892969 -13.394532 0
M  V30 50 H 8.658732 3.591976 -17.925480 0
M  V30 51 H 7.935869 5.169262 -17.782705 0
M  V30 52 H 6.109613 3.255370 -11.690295 0
M  V30 53 H 7.828922 3.590211 -11.538355 0
M  V30 54 H 11.603284 6.790251 -9.837092 0
M  V30 55 H 11.226329 6.915539 -7.336237 0
M  V30 56 H 9.653853 7.615215 -7.625164 0
M  V30 57 H 10.143906 5.485052 -18.703008 0
M  V30 58 H 10.182064 6.117730 -17.111023 0
M  V30 59 H 6.058874 4.584842 -13.776855 0
M  V30 60 H 12.754226 5.828026 -17.973464 0
M  V30 61 H 10.575287 4.823623 -8.451193 0
M  V30 62 H 9.449047 5.215861 -7.195366 0
M  V30 63 H 8.377772 4.455768 -9.285039 0
M  V30 64 H 7.817029 5.990205 -8.683957 0
M  V30 65 H 4.903831 6.143168 -10.833594 0
M  V30 66 H 8.975415 8.268735 -10.059428 0
M  V30 67 H 10.039678 7.856804 -11.369705 0
M  V30 68 H 9.379700 4.015444 -15.551063 0
M  V30 69 H 7.298955 7.142127 -10.946935 0
M  V30 END ATOM
M  V30 BEGIN BOND
M  V30 1 1 7 4
M  V30 2 1 12 9
M  V30 3 1 13 1
M  V30 4 1 13 12
M  V30 5 1 15 1
M  V30 6 1 15 5
M  V30 7 1 16 13
M  V30 8 1 17 14
M  V30 9 1 18 6
M  V30 10 1 19 5
M  V30 11 1 19 6
M  V30 12 1 19 10
M  V30 13 1 20 4
M  V30 14 1 21 20
M  V30 15 1 22 8
M  V30 16 1 22 16
M  V30 17 1 23 9
M  V30 18 1 23 15
M  V30 19 1 23 18
M  V30 20 1 24 8
M  V30 21 1 24 11
M  V30 22 1 24 17
M  V30 23 1 25 8
M  V30 24 1 26 21
M  V30 25 1 27 2
M  V30 26 1 27 3
M  V30 27 1 27 14
M  V30 28 1 27 25
M  V30 29 2 28 25
M  V30 30 1 29 10
M  V30 31 1 29 26
M  V30 32 1 30 6
M  V30 33 1 31 10
M  V30 34 1 31 20
M  V30 35 1 32 1
M  V30 36 1 33 1
M  V30 37 1 34 4
M  V30 38 1 35 4
M  V30 39 1 36 5
M  V30 40 1 37 5
M  V30 41 1 6 38 CFG=1
M  V30 42 1 39 7
M  V30 43 1 8 40 CFG=1
M  V30 44 1 41 9
M  V30 45 1 42 9
M  V30 46 1 10 43 CFG=3
M  V30 47 1 44 11
M  V30 48 1 45 12
M  V30 49 1 46 12
M  V30 50 1 47 14
M  V30 51 1 48 14
M  V30 52 1 15 49 CFG=1
M  V30 53 1 50 16
M  V30 54 1 51 16
M  V30 55 1 52 18
M  V30 56 1 53 18
M  V30 57 1 20 54 CFG=3
M  V30 58 1 55 21
M  V30 59 1 56 21
M  V30 60 1 57 22
M  V30 61 1 58 22
M  V30 62 1 23 59 CFG=3
M  V30 63 1 24 60 CFG=3
M  V30 64 1 61 26
M  V30 65 1 62 26
M  V30 66 1 63 29
M  V30 67 1 64 29
M  V30 68 1 65 30
M  V30 69 1 66 31
M  V30 70 1 67 31
M  V30 71 1 13 68 CFG=1
M  V30 72 1 19 69 CFG=1
M  V30 END BOND
M  V30 END CTAB
M  END
>  <i_epik_Tot_Q>  (1) 
2

>  <i_epik_Tot_abs_Q>  (1) 
2

>  <i_i_glide_confnum>  (1) 
325

>  <i_i_glide_lignum>  (1) 
111

>  <i_i_glide_posenum>  (1) 
80

>  <i_i_glide_rotatable_bonds>  (1) 
8

>  <i_lp_mmshare_version>  (1) 
72125

>  <i_m_source_file_index>  (1) 
40

>  <i_f3d_flags>  (1) 
0

>  <num_sample>  (1) 
50

>  <b_lp_Chiralities_Consistent>  (1) 
1

>  <r_epik_Charging_Adjusted_Penalty>  (1) 
1.743801429740254

>  <r_epik_Ionization_Penalty>  (1) 
1.6051069046209219

>  <r_epik_Ionization_Penalty_Charging>  (1) 
0.6098477401054202

>  <r_epik_Ionization_Penalty_Neutral>  (1) 
0.99525916451550167

>  <r_epik_State_Penalty>  (1) 
1.1339536896348337

>  <r_glide_ring_energy>  (1) 
0

>  <r_i_docking_score>  (1) 
-4.0574451021292237

>  <r_i_glide_ecoul>  (1) 
-8.6177170865919752

>  <r_i_glide_eff_state_penalty>  (1) 
1.1339536896348337

>  <r_i_glide_einternal>  (1) 
10.02616727923591

>  <r_i_glide_emodel>  (1) 
-39.282883507650055

>  <r_i_glide_emodel_strain>  (1) 
0.26251713131466659

>  <r_i_glide_energy>  (1) 
-33.191843939524922

>  <r_i_glide_erotb>  (1) 
0.49785121930328097

>  <r_i_glide_esite>  (1) 
-0.16249842592975836

>  <r_i_glide_evdw>  (1) 
-24.574126852932949

>  <r_i_glide_gscore>  (1) 
-5.1913987917640574

>  <r_i_glide_gscore_strain>  (1) 
0

>  <r_i_glide_hbond>  (1) 
-0.49462450829481591

>  <r_i_glide_ligand_efficiency>  (1) 
-0.13088532587513624

>  <r_i_glide_ligand_efficiency_ln>  (1) 
-0.91507821628915931

>  <r_i_glide_ligand_efficiency_sa>  (1) 
-0.41116063038609568

>  <r_i_glide_lipo>  (1) 
-1.1735893188502113

>  <r_i_glide_metal>  (1) 
-0

>  <r_i_glide_rewards>  (1) 
-1.3371738523571097

>  <r_lp_Energy>  (1) 
49.421470999999997

>  <r_lp_tautomer_probability>  (1) 
0.99995000000000001

>  <s_epik_Chemistry_Notes>  (1) 
This compound contains an acetal/aminal-like group ( X-CH(R)-Y where X, Y are N, S, or O) that may be acid/base labile, releasing an aldehyde.

>  <s_epik_cmdline>  (1) 
J2VwaWtfcHl0aG9uJywgJy1waHQnLCAnMS4wJywgJy1waCcsICc3LjQnLCAnLXRuJywgJzgnLCAnLW1hJywgJzUwMCcsICctaW1hZScsICc8aW5maWxlLm1hZT4nLCAnLW9tYWUnLCAnPG91dGZpbGUubWFlPic=

>  <s_epik_input>  (1) 
RkMxKEYpW0NIMl1PW0NASF0oW09IXSlbQ0BIXShDMT1PKVtDSDJdW0NIMl1OKFtDSDJdMilbQ0gyXVtDSDJdW0NASF0oW0NAQEhdMjMpW0NIMl1bQ0BIXShbT0hdKU4oW0NIMl0zKVtDQEBIXTRbQ0gyXVtDSDJdW0NIMl1bQ0BASF0oW0NIMl00KVtDSDJdW09IXQ==

>  <s_glide_docking_method>  (1) 
confgen

>  <s_i_glide_gridfile>  (1) 
gpcr_drd2_6luq_protein_autoprepared_prepared

>  <s_lp_Force_Field>  (1) 
S-OPLS

>  <s_lp_Variant>  (1) 
DiffSBDD_39-7

>  <s_m_source_file>  (1) 
generated_generic_title2_ligand_DiffSBDD_2026-06-23_prepared.sdf

>  <GenAI_Model>  (1) 
DiffSBDD

>  <Protein>  (1) 
generic_title2

$$$$
DiffSBDD_13
     RDKit          3D

  0  0  0  0  0  0  0  0  0  0999 V3000
M  V30 BEGIN CTAB
M  V30 COUNTS 48 50 0 0 1
M  V30 BEGIN ATOM
M  V30 1 O 4.975409 7.990227 -15.985025 0
M  V30 2 C 5.800422 7.254334 -15.584979 0
M  V30 3 C 8.258415 -0.734976 -20.357839 0
M  V30 4 F 8.806817 5.656813 -12.085004 0
M  V30 5 C 9.724660 1.128267 -18.641281 0
M  V30 6 F 4.347496 -1.153684 -18.732660 0
M  V30 7 C 6.744751 6.448005 -15.154760 0
M  V30 8 C 5.831184 1.274860 -18.406590 0
M  V30 9 C 5.649691 -1.209765 -19.012839 0
M  V30 10 C 10.366799 2.217533 -18.122791 0
M  V30 11 C 5.776492 5.990230 -11.724806 0
M  V30 12 F 5.806518 -2.105623 -19.987810 0
M  V30 13 C 7.495792 5.590227 -16.057121 0
M  V30 14 C 7.045136 6.424509 -13.644817 0 CFG=1
M  V30 15 C 9.237480 4.030833 -16.564126 0
M  V30 16 C 9.675026 -0.283726 -20.724997 0
M  V30 17 C 7.177341 1.888482 -18.042467 0
M  V30 18 C 11.936278 0.423087 -19.829410 0
M  V30 19 N 5.921676 5.783809 -12.968079 0
M  V30 20 C 8.545677 4.863621 -15.640095 0
M  V30 21 C 8.985000 4.923567 -14.263549 0
M  V30 22 C 9.731179 3.208482 -17.319780 0
M  V30 23 C 8.208166 0.819559 -18.436299 0 CFG=1
M  V30 24 C 8.324370 5.636127 -13.339462 0
M  V30 25 F 6.299699 -1.630561 -17.927402 0
M  V30 26 C 6.131163 0.198626 -19.458325 0 CFG=2
M  V30 27 C 10.476970 0.078553 -19.468323 0 CFG=1
M  V30 28 N 7.576437 0.358758 -19.677275 0
M  V30 29 H 7.713192 -0.997881 -21.265087 0
M  V30 30 H 8.292531 -1.620660 -19.722009 0
M  V30 31 H 5.139608 2.028120 -18.785023 0
M  V30 32 H 5.375410 0.832880 -17.519733 0
M  V30 33 H 11.420321 2.355667 -18.302457 0
M  V30 34 H 4.957912 5.520197 -11.175228 0
M  V30 35 H 6.466951 6.640232 -11.185025 0
M  V30 36 H 7.200090 5.538347 -17.096875 0
M  V30 37 H 7.190434 7.452232 -13.300317 0
M  V30 38 H 9.630168 0.570512 -21.402424 0
M  V30 39 H 10.175558 -1.085684 -21.268668 0
M  V30 40 H 7.321189 2.800115 -18.624643 0
M  V30 41 H 7.203802 2.135213 -16.981403 0
M  V30 42 H 12.555610 0.532909 -18.938685 0
M  V30 43 H 12.386927 -0.368929 -20.428258 0
M  V30 44 H 11.998726 1.344606 -20.409275 0
M  V30 45 H 9.874141 4.390227 -13.970647 0
M  V30 46 H 8.159084 0.004574 -17.712837 0
M  V30 47 H 5.624357 0.448794 -20.391416 0
M  V30 48 H 10.507561 -0.809773 -18.836928 0
M  V30 END ATOM
M  V30 BEGIN BOND
M  V30 1 2 2 1
M  V30 2 2 7 2
M  V30 3 1 9 6
M  V30 4 2 10 5
M  V30 5 1 12 9
M  V30 6 1 13 7
M  V30 7 1 14 7
M  V30 8 1 16 3
M  V30 9 1 17 8
M  V30 10 2 19 11
M  V30 11 1 19 14
M  V30 12 2 20 13
M  V30 13 1 20 15
M  V30 14 1 21 20
M  V30 15 1 22 10
M  V30 16 3 22 15
M  V30 17 1 23 5
M  V30 18 1 23 17
M  V30 19 1 24 4
M  V30 20 1 24 14
M  V30 21 2 24 21
M  V30 22 1 25 9
M  V30 23 1 26 8
M  V30 24 1 26 9
M  V30 25 1 27 5
M  V30 26 1 27 16
M  V30 27 1 27 18
M  V30 28 1 28 3
M  V30 29 1 28 23
M  V30 30 1 28 26
M  V30 31 1 29 3
M  V30 32 1 30 3
M  V30 33 1 31 8
M  V30 34 1 32 8
M  V30 35 1 33 10
M  V30 36 1 34 11
M  V30 37 1 35 11
M  V30 38 1 36 13
M  V30 39 1 14 37 CFG=1
M  V30 40 1 38 16
M  V30 41 1 39 16
M  V30 42 1 40 17
M  V30 43 1 41 17
M  V30 44 1 42 18
M  V30 45 1 43 18
M  V30 46 1 44 18
M  V30 47 1 45 21
M  V30 48 1 23 46 CFG=1
M  V30 49 1 26 47 CFG=3
M  V30 50 1 27 48 CFG=1
M  V30 END BOND
M  V30 END CTAB
M  END
>  <i_epik_Tot_Q>  (1) 
0

>  <i_epik_Tot_abs_Q>  (1) 
0

>  <i_i_glide_confnum>  (1) 
2

>  <i_i_glide_lignum>  (1) 
51

>  <i_i_glide_posenum>  (1) 
125

>  <i_i_glide_rotatable_bonds>  (1) 
4

>  <i_lp_mmshare_version>  (1) 
72125

>  <i_m_source_file_index>  (1) 
14

>  <i_f3d_flags>  (1) 
0

>  <num_sample>  (1) 
50

>  <b_lp_Chiralities_Consistent>  (1) 
1

>  <r_epik_Charging_Adjusted_Penalty>  (1) 
0

>  <r_epik_Ionization_Penalty>  (1) 
0.00020645461892998548

>  <r_epik_Ionization_Penalty_Charging>  (1) 
0

>  <r_epik_Ionization_Penalty_Neutral>  (1) 
0.00020645461892998548

>  <r_epik_State_Penalty>  (1) 
-0

>  <r_glide_ring_energy>  (1) 
0

>  <r_i_docking_score>  (1) 
-4.0532433647899921

>  <r_i_glide_ecoul>  (1) 
-1.1723007998803903

>  <r_i_glide_eff_state_penalty>  (1) 
-0

>  <r_i_glide_einternal>  (1) 
0.086376181597051627

>  <r_i_glide_emodel>  (1) 
-33.209517452765482

>  <r_i_glide_emodel_strain>  (1) 
0.078427929106176464

>  <r_i_glide_energy>  (1) 
-26.708430489541914

>  <r_i_glide_erotb>  (1) 
0.38039990127662543

>  <r_i_glide_esite>  (1) 
-0.067650580843839972

>  <r_i_glide_evdw>  (1) 
-25.536129689661525

>  <r_i_glide_gscore>  (1) 
-4.0532433647899921

>  <r_i_glide_gscore_strain>  (1) 
0

>  <r_i_glide_hbond>  (1) 
0

>  <r_i_glide_ligand_efficiency>  (1) 
-0.14475869159964258

>  <r_i_glide_ligand_efficiency_ln>  (1) 
-0.93560757698995833

>  <r_i_glide_ligand_efficiency_sa>  (1) 
-0.4395726464946248

>  <r_i_glide_lipo>  (1) 
-1.4842946627691496

>  <r_i_glide_metal>  (1) 
-0

>  <r_i_glide_rewards>  (1) 
-1.4290464179884927

>  <r_lp_Energy>  (1) 
25.917797999999998

>  <r_lp_tautomer_probability>  (1) 
1

>  <s_epik_Chemistry_Notes>  (1) 
This compound has an imine and may undergo hydrolysis.

>  <s_epik_cmdline>  (1) 
J2VwaWtfcHl0aG9uJywgJy1waHQnLCAnMS4wJywgJy1waCcsICc3LjQnLCAnLXRuJywgJzgnLCAnLW1hJywgJzUwMCcsICctaW1hZScsICc8aW5maWxlLm1hZT4nLCAnLW9tYWUnLCAnPG91dGZpbGUubWFlPic=

>  <s_epik_input>  (1) 
W0NIMl09TltDQEhdMUMoRik9W0NIXUMoPVtDSF1DMT1DPU8pQyNDL1tDSF09Q1wyW0NASF0oW0NIM10pW0NIMl1bQ0gyXU4oW0NAQEhdMjMpW0NAQEhdKEMoRikoRilGKVtDSDJdW0NIMl0z

>  <s_glide_docking_method>  (1) 
confgen

>  <s_i_glide_gridfile>  (1) 
gpcr_drd2_6luq_protein_autoprepared_prepared

>  <s_lp_Force_Field>  (1) 
S-OPLS

>  <s_lp_Variant>  (1) 
DiffSBDD_13-2

>  <s_m_source_file>  (1) 
generated_generic_title2_ligand_DiffSBDD_2026-06-23_prepared.sdf

>  <GenAI_Model>  (1) 
DiffSBDD

>  <Protein>  (1) 
generic_title2

$$$$
DiffSBDD_1
     RDKit          3D

  0  0  0  0  0  0  0  0  0  0999 V3000
M  V30 BEGIN CTAB
M  V30 COUNTS 90 92 0 0 1
M  V30 BEGIN ATOM
M  V30 1 O 8.950792 6.279353 -12.880591 0
M  V30 2 O 7.775220 5.190241 -9.254350 0
M  V30 3 C 8.530681 3.209006 -17.277956 0 CFG=2
M  V30 4 C 10.261828 1.327468 -17.834674 0
M  V30 5 C 7.432622 -2.709282 -18.542591 0
M  V30 6 C 11.342630 9.022810 -6.316754 0
M  V30 7 C 4.881464 -0.297953 -18.690697 0
M  V30 8 C 9.175115 5.308029 -9.310708 0 CFG=1
M  V30 9 C 9.595350 4.265691 -16.835413 0 CFG=1
M  V30 10 C 6.613505 1.625384 -19.086673 0 CFG=2
M  V30 11 C 9.930846 -0.148301 -18.071245 0
M  V30 12 O 12.711766 6.048870 -18.787726 0 CHG=-1
M  V30 13 C 8.059226 -1.464832 -19.202710 0
M  V30 14 C 7.913769 2.544305 -16.013278 0
M  V30 15 C 9.689774 5.916531 -10.641634 0
M  V30 16 C 5.011721 -1.810942 -18.981400 0
M  V30 17 C 9.068104 2.162420 -18.329297 0 CFG=1
M  V30 18 C 5.978318 -2.565839 -18.043607 0
M  V30 19 C 9.732356 5.841386 -7.965220 0
M  V30 20 C 8.484228 4.528654 -14.513311 0 CFG=2
M  V30 21 C 10.941746 6.720030 -5.439139 0
M  V30 22 F 4.575130 1.490432 -20.085911 0
M  V30 23 C 10.400324 7.808303 -6.382639 0
M  V30 24 C 7.401232 3.545045 -14.972063 0
M  V30 25 C 9.030308 8.218978 -11.534688 0
M  V30 26 F 6.710221 2.677683 -19.905457 0
M  V30 27 O 12.226321 5.876982 -16.268930 0
M  V30 28 O 12.669984 3.759287 -17.636048 0
M  V30 29 P 12.140649 5.132682 -17.778466 0
M  V30 30 C 10.140275 7.328359 -7.842328 0
M  V30 31 C 8.720175 6.720304 -11.545616 0 CFG=1
M  V30 32 C 8.080214 1.124732 -18.943288 0 CFG=1
M  V30 33 O 7.802281 -0.349461 -17.024029 0
M  V30 34 C 7.919325 5.473819 -13.433859 0
M  V30 35 C 10.264431 5.085403 -17.971603 0
M  V30 36 C 8.409486 -0.247131 -18.295680 0 CFG=2
M  V30 37 C 9.050315 5.237700 -15.755495 0
M  V30 38 C 5.551824 0.679626 -19.692254 0 CFG=2
M  V30 39 H 7.406154 6.074151 -9.186851 0
M  V30 40 H 7.737084 3.778351 -17.761470 0
M  V30 41 H 11.179847 1.606857 -18.352894 0
M  V30 42 H 10.453299 1.498726 -16.785216 0
M  V30 43 H 7.446148 -3.508806 -19.284318 0
M  V30 44 H 8.067006 -3.061078 -17.727714 0
M  V30 45 H 12.296565 8.813042 -6.801113 0
M  V30 46 H 10.916158 9.901560 -6.784712 0
M  V30 47 H 11.553667 9.303960 -5.284296 0
M  V30 48 H 3.810429 -0.086309 -18.692245 0
M  V30 49 H 5.183686 -0.069949 -17.668635 0
M  V30 50 H 9.503481 4.269889 -9.337836 0
M  V30 51 H 10.397239 3.695907 -16.376536 0
M  V30 52 H 6.211124 2.023889 -18.161205 0
M  V30 53 H 10.469907 -0.446475 -18.970807 0
M  V30 54 H 10.288841 -0.792164 -17.266190 0
M  V30 55 H 7.432374 -1.160462 -20.032537 0
M  V30 56 H 8.960174 -1.799494 -19.715568 0
M  V30 57 H 8.623874 1.872701 -15.539699 0
M  V30 58 H 7.068710 1.914799 -16.268394 0
M  V30 59 H 10.575403 6.515417 -10.461014 0
M  V30 60 H 10.044820 5.074020 -11.238895 0
M  V30 61 H 5.228401 -2.009245 -20.031359 0
M  V30 62 H 4.024312 -2.245333 -18.816929 0
M  V30 63 H 9.417281 2.728227 -19.189512 0
M  V30 64 H 5.591158 -3.575275 -17.895857 0
M  V30 65 H 5.949679 -2.126510 -17.046369 0
M  V30 66 H 9.011948 5.599140 -7.182411 0
M  V30 67 H 10.618352 5.250561 -7.733121 0
M  V30 68 H 9.298002 3.990193 -14.034167 0
M  V30 69 H 11.798588 6.198916 -5.865197 0
M  V30 70 H 11.248704 7.135292 -4.479146 0
M  V30 71 H 10.168309 5.990148 -5.215627 0
M  V30 72 H 9.436513 8.119501 -5.976570 0
M  V30 73 H 6.999315 3.000023 -14.117424 0
M  V30 74 H 6.572687 4.106769 -15.399505 0
M  V30 75 H 8.951702 8.638705 -10.532318 0
M  V30 76 H 10.043838 8.390270 -11.890020 0
M  V30 77 H 8.347051 8.765893 -12.184821 0
M  V30 78 H 12.175996 5.179666 -15.632045 0
M  V30 79 H 11.038597 7.487357 -8.439056 0
M  V30 80 H 9.368916 7.958328 -8.285444 0
M  V30 81 H 7.673943 6.589718 -11.270987 0
M  V30 82 H 8.421043 1.003085 -19.973983 0
M  V30 83 H 8.005465 -1.195802 -16.650905 0
M  V30 84 H 7.471480 4.859310 -12.650002 0
M  V30 85 H 7.129464 6.112050 -13.831898 0
M  V30 86 H 10.032795 4.699371 -18.959121 0
M  V30 87 H 9.879009 6.104536 -17.986445 0
M  V30 88 H 8.273993 5.867892 -16.190470 0
M  V30 89 H 9.853279 5.904905 -15.454996 0
M  V30 90 H 5.886786 0.200061 -20.610457 0
M  V30 END ATOM
M  V30 BEGIN BOND
M  V30 1 1 8 2
M  V30 2 1 9 3
M  V30 3 1 11 4
M  V30 4 1 13 5
M  V30 5 1 14 3
M  V30 6 1 15 8
M  V30 7 1 16 7
M  V30 8 1 17 3
M  V30 9 1 17 4
M  V30 10 1 18 5
M  V30 11 1 18 16
M  V30 12 1 19 8
M  V30 13 1 23 6
M  V30 14 1 23 21
M  V30 15 1 24 14
M  V30 16 1 24 20
M  V30 17 1 26 10
M  V30 18 1 29 12
M  V30 19 1 29 27
M  V30 20 2 29 28
M  V30 21 1 30 19
M  V30 22 1 30 23
M  V30 23 1 31 1
M  V30 24 1 31 15
M  V30 25 1 31 25
M  V30 26 1 32 10
M  V30 27 1 32 17
M  V30 28 1 34 1
M  V30 29 1 34 20
M  V30 30 1 35 9
M  V30 31 1 35 29
M  V30 32 1 36 11
M  V30 33 1 36 13
M  V30 34 1 36 32
M  V30 35 1 36 33 CFG=1
M  V30 36 1 37 9
M  V30 37 1 37 20
M  V30 38 1 38 7
M  V30 39 1 38 10
M  V30 40 1 38 22
M  V30 41 1 39 2
M  V30 42 1 3 40 CFG=3
M  V30 43 1 41 4
M  V30 44 1 42 4
M  V30 45 1 43 5
M  V30 46 1 44 5
M  V30 47 1 45 6
M  V30 48 1 46 6
M  V30 49 1 47 6
M  V30 50 1 48 7
M  V30 51 1 49 7
M  V30 52 1 8 50 CFG=3
M  V30 53 1 9 51 CFG=1
M  V30 54 1 10 52 CFG=1
M  V30 55 1 53 11
M  V30 56 1 54 11
M  V30 57 1 55 13
M  V30 58 1 56 13
M  V30 59 1 57 14
M  V30 60 1 58 14
M  V30 61 1 59 15
M  V30 62 1 60 15
M  V30 63 1 61 16
M  V30 64 1 62 16
M  V30 65 1 17 63 CFG=3
M  V30 66 1 64 18
M  V30 67 1 65 18
M  V30 68 1 66 19
M  V30 69 1 67 19
M  V30 70 1 20 68 CFG=1
M  V30 71 1 69 21
M  V30 72 1 70 21
M  V30 73 1 71 21
M  V30 74 1 72 23
M  V30 75 1 73 24
M  V30 76 1 74 24
M  V30 77 1 75 25
M  V30 78 1 76 25
M  V30 79 1 77 25
M  V30 80 1 78 27
M  V30 81 1 79 30
M  V30 82 1 80 30
M  V30 83 1 31 81 CFG=1
M  V30 84 1 32 82 CFG=3
M  V30 85 1 83 33
M  V30 86 1 84 34
M  V30 87 1 85 34
M  V30 88 1 86 35
M  V30 89 1 87 35
M  V30 90 1 88 37
M  V30 91 1 89 37
M  V30 92 1 38 90 CFG=3
M  V30 END BOND
M  V30 END CTAB
M  END
>  <i_epik_Tot_Q>  (1) 
-1

>  <i_epik_Tot_abs_Q>  (1) 
1

>  <i_i_glide_confnum>  (1) 
1848

>  <i_i_glide_lignum>  (1) 
17

>  <i_i_glide_posenum>  (1) 
386

>  <i_i_glide_rotatable_bonds>  (1) 
14

>  <i_lp_mmshare_version>  (1) 
72125

>  <i_m_source_file_index>  (1) 
2

>  <i_f3d_flags>  (1) 
0

>  <num_sample>  (1) 
50

>  <b_lp_Chiralities_Consistent>  (1) 
1

>  <r_epik_Charging_Adjusted_Penalty>  (1) 
0.13318820565599726

>  <r_epik_Ionization_Penalty>  (1) 
0.13318880763099702

>  <r_epik_Ionization_Penalty_Charging>  (1) 
1.1004593090013429e-05

>  <r_epik_Ionization_Penalty_Neutral>  (1) 
0.13317780303790702

>  <r_epik_State_Penalty>  (1) 
0.13317720106290726

>  <r_glide_ring_energy>  (1) 
0

>  <r_i_docking_score>  (1) 
-4.0497220041844653

>  <r_i_glide_ecoul>  (1) 
-3.7382794566932795

>  <r_i_glide_eff_state_penalty>  (1) 
0.13317720106290726

>  <r_i_glide_einternal>  (1) 
17.76536390726416

>  <r_i_glide_emodel>  (1) 
-29.858694822800473

>  <r_i_glide_emodel_strain>  (1) 
5.2052720822408958

>  <r_i_glide_energy>  (1) 
-38.89876408104773

>  <r_i_glide_erotb>  (1) 
0.56507953808565226

>  <r_i_glide_esite>  (1) 
0

>  <r_i_glide_evdw>  (1) 
-35.160484624354453

>  <r_i_glide_gscore>  (1) 
-4.1828992052473728

>  <r_i_glide_gscore_strain>  (1) 
0.30131802056022394

>  <r_i_glide_hbond>  (1) 
-0.31917029215737958

>  <r_i_glide_ligand_efficiency>  (1) 
-0.10657163168906487

>  <r_i_glide_ligand_efficiency_ln>  (1) 
-0.87323919485377199

>  <r_i_glide_ligand_efficiency_sa>  (1) 
-0.35829120480107324

>  <r_i_glide_lipo>  (1) 
-2.1569951560256699

>  <r_i_glide_metal>  (1) 
-0

>  <r_i_glide_rewards>  (1) 
-0.25436516598848452

>  <r_lp_Energy>  (1) 
45.243853999999999

>  <s_epik_cmdline>  (1) 
J2VwaWtfcHl0aG9uJywgJy1waHQnLCAnMS4wJywgJy1waCcsICc3LjQnLCAnLXRuJywgJzgnLCAnLW1hJywgJzUwMCcsICctaW1hZScsICc8aW5maWxlLm1hZT4nLCAnLW9tYWUnLCAnPG91dGZpbGUubWFlPic=

>  <s_epik_input>  (1) 
W0NIM11bQ0hdKFtDSDNdKVtDSDJdW0NIMl1bQ0BASF0oW09IXSlbQ0gyXVtDQEBIXShbQ0gzXSlPW0NIMl1bQ0BASF0oW0NIMl1bQ0gyXTEpW0NIMl1bQ0BIXShbQ0gyXVAoPU8pKFtPSF0pW09IXSlbQ0BIXTFbQ0BASF0oW0NIMl1bQ0gyXTIpW0NAQEhdKFtDQF0yM1tPSF0pW0NAQEhdKEYpW0NASF0oRilbQ0gyXVtDSDJdW0NIMl1bQ0gyXVtDSDJdMw==

>  <s_glide_docking_method>  (1) 
confgen

>  <s_i_glide_gridfile>  (1) 
gpcr_drd2_6luq_protein_autoprepared_prepared

>  <s_lp_Force_Field>  (1) 
S-OPLS

>  <s_lp_Variant>  (1) 
DiffSBDD_1-1

>  <s_m_source_file>  (1) 
generated_generic_title2_ligand_DiffSBDD_2026-06-23_prepared.sdf

>  <GenAI_Model>  (1) 
DiffSBDD

>  <Protein>  (1) 
generic_title2

$$$$
DiffSBDD_29
     RDKit          3D

  0  0  0  0  0  0  0  0  0  0999 V3000
M  V30 BEGIN CTAB
M  V30 COUNTS 70 74 0 0 1
M  V30 BEGIN ATOM
M  V30 1 C 7.370922 5.773893 -15.126948 0 CFG=2
M  V30 2 F 4.975426 1.993540 -20.784111 0
M  V30 3 C 9.433560 7.305106 -7.639375 0
M  V30 4 C 9.713229 5.335418 -17.789850 0
M  V30 5 C 9.003472 6.305661 -10.984779 0 CFG=1
M  V30 6 C 6.100590 5.990242 -15.995879 0
M  V30 7 F 7.896331 1.420936 -20.900922 0
M  V30 8 O 11.101838 6.790229 -11.985147 0
M  V30 9 C 7.375501 5.819982 -18.091626 0
M  V30 10 C 7.473573 6.098107 -19.594412 0 CFG=1
M  V30 11 C 8.762139 5.947359 -7.961846 0
M  V30 12 C 7.718087 3.650761 -20.328518 0
M  V30 13 C 5.825540 1.734226 -22.903818 0
M  V30 14 C 6.121524 6.002941 -17.358935 0
M  V30 15 C 5.828435 2.579709 -21.621658 0 CFG=1
M  V30 16 C 5.262901 4.019785 -21.883822 0
M  V30 17 N 8.338510 5.190211 -16.035514 0
M  V30 18 C 9.833205 8.256344 -8.792562 0
M  V30 19 C 7.024223 4.914414 -20.335547 0
M  V30 20 C 9.369168 4.962753 -10.290987 0
M  V30 21 C 7.195645 2.567614 -20.924944 0
M  V30 22 C 9.639291 4.991631 -8.766884 0
M  V30 23 C 7.098304 4.833794 -13.930136 0
M  V30 24 C 10.786887 7.690623 -9.858377 0
M  V30 25 N 10.088240 7.294642 -11.077738 0
M  V30 26 O 9.785499 5.098040 -15.518645 0
M  V30 27 C 5.937933 5.067293 -21.020114 0
M  V30 28 C 10.468911 5.131790 -16.750939 0
M  V30 29 C 6.087695 6.608298 -12.392018 0
M  V30 30 O 5.357420 6.280932 -20.988281 0
M  V30 31 C 8.440801 5.455227 -17.361427 0
M  V30 32 C 7.168640 5.527631 -12.558865 0 CFG=2
M  V30 33 N 8.532338 6.075085 -12.366299 0 CHG=1
M  V30 34 C 6.330842 7.056020 -20.192948 0
M  V30 35 H 7.739772 6.746262 -14.802420 0
M  V30 36 H 10.327246 7.102987 -7.047965 0
M  V30 37 H 8.767447 7.853207 -6.971509 0
M  V30 38 H 10.053753 5.413950 -18.811430 0
M  V30 39 H 8.179598 6.772848 -10.459756 0
M  V30 40 H 5.169469 6.142132 -15.471151 0
M  V30 41 H 11.156746 7.476281 -12.634738 0
M  V30 42 H 8.459800 6.431499 -19.915883 0
M  V30 43 H 8.565033 5.496934 -6.992624 0
M  V30 44 H 7.775422 5.990703 -8.416413 0
M  V30 45 H 8.676288 3.573955 -19.837772 0
M  V30 46 H 6.526916 2.129151 -23.639658 0
M  V30 47 H 6.099972 0.698932 -22.698380 0
M  V30 48 H 4.835700 1.722226 -23.360546 0
M  V30 49 H 5.203171 6.174199 -17.900863 0
M  V30 50 H 4.182037 4.058227 -21.747511 0
M  V30 51 H 5.454460 4.309791 -22.917626 0
M  V30 52 H 10.356259 9.087084 -8.320900 0
M  V30 53 H 8.975409 8.722634 -9.265456 0
M  V30 54 H 10.175391 4.460072 -10.824206 0
M  V30 55 H 8.523158 4.288417 -10.404975 0
M  V30 56 H 10.672786 5.190422 -8.516937 0
M  V30 57 H 9.470785 3.990245 -8.385016 0
M  V30 58 H 7.819614 4.013982 -13.928761 0
M  V30 59 H 6.129291 4.345784 -14.046007 0
M  V30 60 H 11.413009 6.895602 -9.461747 0
M  V30 61 H 11.480708 8.483184 -10.142990 0
M  V30 62 H 11.540051 4.998455 -16.694270 0
M  V30 63 H 5.102610 6.208899 -12.629855 0
M  V30 64 H 6.038465 6.970108 -11.366444 0
M  V30 65 H 6.260656 7.468647 -13.038739 0
M  V30 66 H 6.975923 4.756115 -11.814825 0
M  V30 67 H 8.575035 6.964684 -12.837872 0
M  V30 68 H 5.822385 7.653661 -19.436611 0
M  V30 69 H 6.794234 7.776770 -20.868791 0
M  V30 70 H 9.206427 5.458668 -12.799293 0
M  V30 END ATOM
M  V30 BEGIN BOND
M  V30 1 1 6 1
M  V30 2 1 10 9
M  V30 3 1 11 3
M  V30 4 2 14 6
M  V30 5 1 14 9
M  V30 6 1 15 2 CFG=1
M  V30 7 1 15 13
M  V30 8 1 16 15
M  V30 9 1 17 1
M  V30 10 1 18 3
M  V30 11 1 19 10
M  V30 12 1 19 12
M  V30 13 1 20 5
M  V30 14 1 21 7
M  V30 15 2 21 12
M  V30 16 1 21 15
M  V30 17 1 22 11
M  V30 18 1 22 20
M  V30 19 1 23 1
M  V30 20 1 24 18
M  V30 21 1 25 5
M  V30 22 1 25 8
M  V30 23 1 25 24
M  V30 24 1 26 17
M  V30 25 1 27 16
M  V30 26 2 27 19
M  V30 27 2 28 4
M  V30 28 1 28 26
M  V30 29 1 30 27
M  V30 30 1 31 4
M  V30 31 2 31 9
M  V30 32 1 31 17
M  V30 33 1 32 23
M  V30 34 1 32 29
M  V30 35 1 33 5
M  V30 36 1 33 32
M  V30 37 1 34 10
M  V30 38 1 34 30
M  V30 39 1 1 35 CFG=1
M  V30 40 1 36 3
M  V30 41 1 37 3
M  V30 42 1 38 4
M  V30 43 1 5 39 CFG=1
M  V30 44 1 40 6
M  V30 45 1 41 8
M  V30 46 1 10 42 CFG=3
M  V30 47 1 43 11
M  V30 48 1 44 11
M  V30 49 1 45 12
M  V30 50 1 46 13
M  V30 51 1 47 13
M  V30 52 1 48 13
M  V30 53 1 49 14
M  V30 54 1 50 16
M  V30 55 1 51 16
M  V30 56 1 52 18
M  V30 57 1 53 18
M  V30 58 1 54 20
M  V30 59 1 55 20
M  V30 60 1 56 22
M  V30 61 1 57 22
M  V30 62 1 58 23
M  V30 63 1 59 23
M  V30 64 1 60 24
M  V30 65 1 61 24
M  V30 66 1 62 28
M  V30 67 1 63 29
M  V30 68 1 64 29
M  V30 69 1 65 29
M  V30 70 1 32 66 CFG=1
M  V30 71 1 67 33
M  V30 72 1 68 34
M  V30 73 1 69 34
M  V30 74 1 70 33
M  V30 END BOND
M  V30 END CTAB
M  END
>  <i_epik_Tot_Q>  (1) 
1

>  <i_epik_Tot_abs_Q>  (1) 
1

>  <i_i_glide_confnum>  (1) 
267

>  <i_i_glide_lignum>  (1) 
88

>  <i_i_glide_posenum>  (1) 
244

>  <i_i_glide_rotatable_bonds>  (1) 
6

>  <i_lp_mmshare_version>  (1) 
72125

>  <i_m_source_file_index>  (1) 
30

>  <i_f3d_flags>  (1) 
0

>  <num_sample>  (1) 
50

>  <b_lp_Chiralities_Consistent>  (1) 
1

>  <r_epik_Charging_Adjusted_Penalty>  (1) 
0.00017158895476856407

>  <r_epik_Ionization_Penalty>  (1) 
0.00032717489199656771

>  <r_epik_Ionization_Penalty_Charging>  (1) 
0.00017158895476856407

>  <r_epik_Ionization_Penalty_Neutral>  (1) 
0.00015558593722800364

>  <r_epik_State_Penalty>  (1) 
-0

>  <r_glide_ring_energy>  (1) 
0.12064896419407886

>  <r_i_docking_score>  (1) 
-4.0368774166870569

>  <r_i_glide_ecoul>  (1) 
-2.2178303203163177

>  <r_i_glide_eff_state_penalty>  (1) 
-0

>  <r_i_glide_einternal>  (1) 
15.48362581794184

>  <r_i_glide_emodel>  (1) 
-32.024515107701951

>  <r_i_glide_emodel_strain>  (1) 
0.058489803550202168

>  <r_i_glide_energy>  (1) 
-31.431077370878477

>  <r_i_glide_erotb>  (1) 
0.44578028893005395

>  <r_i_glide_esite>  (1) 
-0.11444465924108763

>  <r_i_glide_evdw>  (1) 
-29.21324705056216

>  <r_i_glide_gscore>  (1) 
-4.0368774166870569

>  <r_i_glide_gscore_strain>  (1) 
0

>  <r_i_glide_hbond>  (1) 
0

>  <r_i_glide_ligand_efficiency>  (1) 
-0.11873168872608991

>  <r_i_glide_ligand_efficiency_ln>  (1) 
-0.89185945192233373

>  <r_i_glide_ligand_efficiency_sa>  (1) 
-0.38464457998264562

>  <r_i_glide_lipo>  (1) 
-1.3797763551467581

>  <r_i_glide_metal>  (1) 
-0

>  <r_i_glide_rewards>  (1) 
-1.1950997906537093

>  <r_lp_Energy>  (1) 
36.679803

>  <r_lp_tautomer_probability>  (1) 
1

>  <s_epik_Chemistry_Notes>  (1) 
This compound contains an acetal/aminal-like group ( X-CH(R)-Y where X, Y are N, S, or O) that may be acid/base labile, releasing an aldehyde. This compound has a N-S or N-O group and may undergo hydrolysis at high or low pH.

>  <s_epik_cmdline>  (1) 
J2VwaWtfcHl0aG9uJywgJy1waHQnLCAnMS4wJywgJy1waCcsICc3LjQnLCAnLXRuJywgJzgnLCAnLW1hJywgJzUwMCcsICctaW1hZScsICc8aW5maWxlLm1hZT4nLCAnLW9tYWUnLCAnPG91dGZpbGUubWFlPic=

>  <s_epik_input>  (1) 
RkMoPVtDSF0xKVtDQF0oRikoW0NIM10pW0NIMl1DKD1DMTIpT1tDSDJdW0NASF0yQyg9QyhOMzQpW0NIXT1bQ0hdTzQpW0NIXT1bQ0hdW0NASF0zW0NIMl1bQ0BIXShbQ0gzXSlbTkhdW0NASF01W0NIMl1bQ0gyXVtDSDJdW0NIMl1bQ0gyXVtDSDJdTjVbT0hd

>  <s_glide_docking_method>  (1) 
confgen

>  <s_i_glide_gridfile>  (1) 
gpcr_drd2_6luq_protein_autoprepared_prepared

>  <s_lp_Force_Field>  (1) 
S-OPLS

>  <s_lp_Variant>  (1) 
DiffSBDD_29-1

>  <s_m_source_file>  (1) 
generated_generic_title2_ligand_DiffSBDD_2026-06-23_prepared.sdf

>  <GenAI_Model>  (1) 
DiffSBDD

>  <Protein>  (1) 
generic_title2

$$$$
DiffSBDD_0
     RDKit          3D

  0  0  0  0  0  0  0  0  0  0999 V3000
M  V30 BEGIN CTAB
M  V30 COUNTS 70 74 0 0 1
M  V30 BEGIN ATOM
M  V30 1 C 11.375430 6.574089 -7.110476 0
M  V30 2 N 7.540537 4.537526 -13.689402 0
M  V30 3 C 7.737544 5.590277 -17.754229 0 CFG=1
M  V30 4 C 8.713604 5.174633 -11.623647 0
M  V30 5 F 11.581459 9.590226 -9.185014 0
M  V30 6 C 6.940527 5.844365 -13.983239 0
M  V30 7 C 10.213131 5.888563 -7.844153 0
M  V30 8 C 9.025922 7.510578 -11.648745 0
M  V30 9 C 9.784772 8.045885 -9.196158 0 CFG=1
M  V30 10 C 10.256983 4.797761 -18.043037 0
M  V30 11 C 7.303499 3.526835 -14.707861 0 CFG=1
M  V30 12 C 7.296140 0.031243 -13.803434 0
M  V30 13 C 8.896876 5.085516 -18.612542 0 CFG=1
M  V30 14 O 8.139048 6.406361 -11.514243 0
M  V30 15 C 10.973361 8.674579 -8.435532 0 CFG=1
M  V30 16 C 7.688467 4.206216 -18.327338 0 CFG=1
M  V30 17 N 7.865092 5.425798 -16.281370 0 CFG=2 CHG=1
M  V30 18 C 10.175679 7.622886 -10.630860 0
M  V30 19 C 6.787321 1.463039 -13.706145 0
M  V30 20 C 8.051349 3.980857 -15.968715 0 CFG=2
M  V30 21 O 7.129085 -0.409770 -15.135969 0
M  V30 22 C 9.183146 6.900883 -8.347935 0
M  V30 23 N 10.964858 3.672529 -18.348692 0
M  V30 24 C 6.769162 6.070900 -15.506173 0
M  V30 25 N 10.843095 5.643222 -17.194791 0
M  V30 26 O 12.067582 5.027941 -16.892968 0
M  V30 27 C 12.044140 3.892241 -17.616283 0
M  V30 28 O 7.740833 2.252730 -14.395521 0
M  V30 29 N 13.172184 3.099241 -17.490079 0
M  V30 30 C 8.426409 4.315563 -12.623152 0
M  V30 31 C 12.014959 7.639166 -8.015069 0
M  V30 32 C 14.385243 3.274320 -16.711552 0
M  V30 33 C 7.647710 3.188700 -17.217479 0
M  V30 34 H 11.000384 7.044105 -6.199955 0
M  V30 35 H 12.114041 5.840144 -6.785018 0
M  V30 36 H 7.068647 6.368150 -18.117856 0
M  V30 37 H 9.406557 4.968246 -10.822352 0
M  V30 38 H 6.001145 5.973561 -13.444350 0
M  V30 39 H 7.608696 6.638213 -13.671325 0
M  V30 40 H 9.707883 5.190288 -7.184269 0
M  V30 41 H 10.575420 5.298390 -8.681289 0
M  V30 42 H 9.456425 7.475155 -12.649313 0
M  V30 43 H 8.424786 8.420349 -11.617589 0
M  V30 44 H 9.023699 8.821288 -9.293786 0
M  V30 45 H 6.228728 3.508883 -14.891689 0
M  V30 46 H 6.721293 -0.616126 -13.139786 0
M  V30 47 H 8.345447 -0.009784 -13.508203 0
M  V30 48 H 8.992084 5.496212 -19.615635 0
M  V30 49 H 10.609337 9.190201 -7.546376 0
M  V30 50 H 7.026768 4.013839 -19.169752 0
M  V30 51 H 10.792023 6.734160 -10.623985 0
M  V30 52 H 10.827340 8.390073 -11.037254 0
M  V30 53 H 5.786379 1.530502 -14.134374 0
M  V30 54 H 6.724559 1.786312 -12.666549 0
M  V30 55 H 9.115398 3.843485 -15.779246 0
M  V30 56 H 7.375417 -1.331734 -15.185069 0
M  V30 57 H 8.671072 7.331125 -7.486299 0
M  V30 58 H 8.423159 6.361904 -8.907589 0
M  V30 59 H 5.816827 5.651086 -15.834548 0
M  V30 60 H 6.726639 7.138936 -15.723560 0
M  V30 61 H 13.149987 2.247776 -18.030958 0
M  V30 62 H 8.897307 3.343658 -12.658362 0
M  V30 63 H 12.844573 8.133127 -7.511253 0
M  V30 64 H 12.425182 7.190228 -8.918017 0
M  V30 65 H 14.861285 2.310652 -16.530363 0
M  V30 66 H 15.086762 3.914594 -17.247149 0
M  V30 67 H 14.166227 3.735842 -15.747154 0
M  V30 68 H 6.637677 2.787091 -17.137288 0
M  V30 69 H 8.325777 2.357728 -17.416273 0
M  V30 70 H 8.719466 5.885347 -15.993098 0
M  V30 END ATOM
M  V30 BEGIN BOND
M  V30 1 1 6 2
M  V30 2 1 7 1
M  V30 3 1 11 2
M  V30 4 1 13 3
M  V30 5 1 13 10
M  V30 6 1 14 4
M  V30 7 1 14 8
M  V30 8 1 15 5
M  V30 9 1 15 9
M  V30 10 1 16 3
M  V30 11 1 16 13
M  V30 12 1 17 3
M  V30 13 1 18 8
M  V30 14 1 18 9
M  V30 15 1 19 12
M  V30 16 1 20 11
M  V30 17 1 20 17
M  V30 18 1 21 12
M  V30 19 1 22 7
M  V30 20 1 22 9
M  V30 21 1 23 10
M  V30 22 1 24 6
M  V30 23 1 24 17
M  V30 24 2 25 10
M  V30 25 1 26 25
M  V30 26 2 27 23
M  V30 27 1 27 26
M  V30 28 1 28 11
M  V30 29 1 28 19
M  V30 30 1 29 27
M  V30 31 1 30 2
M  V30 32 2 30 4
M  V30 33 1 31 1
M  V30 34 1 31 15
M  V30 35 1 32 29
M  V30 36 1 33 16
M  V30 37 1 33 20
M  V30 38 1 34 1
M  V30 39 1 35 1
M  V30 40 1 3 36 CFG=1
M  V30 41 1 37 4
M  V30 42 1 38 6
M  V30 43 1 39 6
M  V30 44 1 40 7
M  V30 45 1 41 7
M  V30 46 1 42 8
M  V30 47 1 43 8
M  V30 48 1 9 44 CFG=3
M  V30 49 1 11 45 CFG=3
M  V30 50 1 46 12
M  V30 51 1 47 12
M  V30 52 1 13 48 CFG=3
M  V30 53 1 15 49 CFG=1
M  V30 54 1 16 50 CFG=3
M  V30 55 1 51 18
M  V30 56 1 52 18
M  V30 57 1 53 19
M  V30 58 1 54 19
M  V30 59 1 20 55 CFG=1
M  V30 60 1 56 21
M  V30 61 1 57 22
M  V30 62 1 58 22
M  V30 63 1 59 24
M  V30 64 1 60 24
M  V30 65 1 61 29
M  V30 66 1 62 30
M  V30 67 1 63 31
M  V30 68 1 64 31
M  V30 69 1 65 32
M  V30 70 1 66 32
M  V30 71 1 67 32
M  V30 72 1 68 33
M  V30 73 1 69 33
M  V30 74 1 17 70 CFG=1
M  V30 END BOND
M  V30 END CTAB
M  END
>  <i_epik_Tot_Q>  (1) 
1

>  <i_epik_Tot_abs_Q>  (1) 
1

>  <i_i_glide_confnum>  (1) 
146

>  <i_i_glide_lignum>  (1) 
15

>  <i_i_glide_posenum>  (1) 
218

>  <i_i_glide_rotatable_bonds>  (1) 
11

>  <i_lp_mmshare_version>  (1) 
72125

>  <i_m_source_file_index>  (1) 
1

>  <i_f3d_flags>  (1) 
0

>  <num_sample>  (1) 
50

>  <b_lp_Chiralities_Consistent>  (1) 
1

>  <r_epik_Charging_Adjusted_Penalty>  (1) 
0.41344222577729461

>  <r_epik_Ionization_Penalty>  (1) 
0.0027644559619576371

>  <r_epik_Ionization_Penalty_Charging>  (1) 
0.0027623868246906495

>  <r_epik_Ionization_Penalty_Neutral>  (1) 
2.0691372669875143e-06

>  <r_epik_State_Penalty>  (1) 
0.41067983895260396

>  <r_glide_ring_energy>  (1) 
1.678368750750399

>  <r_i_docking_score>  (1) 
-4.0309435706722203

>  <r_i_glide_ecoul>  (1) 
-2.8309028164204388

>  <r_i_glide_eff_state_penalty>  (1) 
0.41067983895260396

>  <r_i_glide_einternal>  (1) 
12.904095379997059

>  <r_i_glide_emodel>  (1) 
-33.450106562027727

>  <r_i_glide_emodel_strain>  (1) 
0.83212436736106099

>  <r_i_glide_energy>  (1) 
-32.343647048640563

>  <r_i_glide_erotb>  (1) 
0.74142510397790429

>  <r_i_glide_esite>  (1) 
-0.0056318683563649592

>  <r_i_glide_evdw>  (1) 
-29.512744232220122

>  <r_i_glide_gscore>  (1) 
-4.4416234096248246

>  <r_i_glide_gscore_strain>  (1) 
0

>  <r_i_glide_hbond>  (1) 
-0.32000000000000001

>  <r_i_glide_ligand_efficiency>  (1) 
-0.12214980517188546

>  <r_i_glide_ligand_efficiency_ln>  (1) 
-0.89646097900869059

>  <r_i_glide_ligand_efficiency_sa>  (1) 
-0.39179969349112442

>  <r_i_glide_lipo>  (1) 
-1.8373169022336366

>  <r_i_glide_metal>  (1) 
-0

>  <r_i_glide_rewards>  (1) 
-1.1198271089386551

>  <r_lp_Energy>  (1) 
42.741957999999997

>  <r_lp_tautomer_probability>  (1) 
0.5

>  <s_epik_Chemistry_Notes>  (1) 
This compound has an imine and may undergo hydrolysis. This compound contains an acetal/aminal-like group ( X-CH(R)-Y where X, Y are N, S, or O) that may be acid/base labile, releasing an aldehyde.

>  <s_epik_cmdline>  (1) 
J2VwaWtfcHl0aG9uJywgJy1waHQnLCAnMS4wJywgJy1waCcsICc3LjQnLCAnLXRuJywgJzgnLCAnLW1hJywgJzUwMCcsICctaW1hZScsICc8aW5maWxlLm1hZT4nLCAnLW9tYWUnLCAnPG91dGZpbGUubWFlPic=

>  <s_epik_input>  (1) 
W0NIMl0xW0NIMl1bQ0gyXVtDSDJdW0NASF0oRilbQ0BIXTFbQ0gyXVtDSDJdTy9bQ0hdPVtDSF1cTihbQ0BIXTJPW0NIMl1bQ0gyXVtPSF0pW0NIMl1bQ0gyXU4zW0NAQEhdMltDSDJdW0NAQEhdKFtDQEBIXTM0KVtDQEBIXTRjNW5jKG9uNSlbTkhdW0NIM10=

>  <s_glide_docking_method>  (1) 
confgen

>  <s_i_glide_gridfile>  (1) 
gpcr_drd2_6luq_protein_autoprepared_prepared

>  <s_lp_Force_Field>  (1) 
S-OPLS

>  <s_lp_Variant>  (1) 
DiffSBDD_0-15

>  <s_m_source_file>  (1) 
generated_generic_title2_ligand_DiffSBDD_2026-06-23_prepared.sdf

>  <GenAI_Model>  (1) 
DiffSBDD

>  <Protein>  (1) 
generic_title2

$$$$
DiffSBDD_28
     RDKit          3D

  0  0  0  0  0  0  0  0  0  0999 V3000
M  V30 BEGIN CTAB
M  V30 COUNTS 79 86 0 0 1
M  V30 BEGIN ATOM
M  V30 1 F 12.887796 5.179071 -19.568546 0
M  V30 2 C 10.097030 6.525846 -9.067032 0 CFG=1
M  V30 3 C 7.444438 5.270026 -11.620606 0 CFG=2
M  V30 4 C 9.804943 8.116383 -6.850503 0 CFG=2
M  V30 5 C 8.882268 5.102017 -15.966682 0 CFG=1
M  V30 6 C 10.477622 5.448308 -8.036625 0
M  V30 7 C 7.417119 4.279463 -13.911249 0 CFG=2
M  V30 8 C 9.934661 4.348546 -18.932598 0 CFG=1
M  V30 9 C 6.802511 4.962719 -10.261276 0
M  V30 10 C 8.674938 3.830886 -16.769566 0 CFG=1
M  V30 11 C 11.002024 8.527503 -9.322804 0 CFG=1
M  V30 12 C 8.989732 3.604936 -12.175712 0
M  V30 13 C 10.120903 7.856406 -8.309806 0 CFG=1
M  V30 14 O 12.175428 9.115875 -8.844715 0
M  V30 15 C 11.815003 6.046201 -19.484621 0 CFG=1
M  V30 16 C 8.330279 5.308335 -14.570182 0 CFG=1
M  V30 17 O 9.691643 4.944533 -14.798472 0
M  V30 18 N 7.648450 4.081339 -12.467393 0
M  V30 19 O 11.972346 8.801432 -6.072122 0
M  V30 20 C 11.603480 6.842504 -20.715166 0
M  V30 21 O 8.975456 8.605135 -7.910808 0
M  V30 22 C 7.390230 3.162766 -16.241348 0
M  V30 23 C 11.153413 7.189783 -10.006061 0
M  V30 24 N 8.807737 6.221469 -9.798520 0 CFG=2 CHG=1
M  V30 25 C 10.598775 9.102795 -6.026689 0
M  V30 26 N 9.613681 4.197852 -20.374400 0 CHG=1
M  V30 27 C 7.386505 2.951479 -14.714922 0
M  V30 28 C 8.314746 3.520763 -20.509853 0
M  V30 29 C 7.894663 3.177874 -19.085607 0
M  V30 30 O 10.495893 6.857236 -21.254975 0
M  V30 31 C 9.775369 4.747539 -11.573342 0
M  V30 32 C 10.609761 5.706222 -18.616484 0
M  V30 33 O 12.066924 7.481854 -19.661735 0
M  V30 34 N 8.626421 4.144068 -18.237135 0 CFG=2 CHG=1
M  V30 35 C 7.863785 5.258032 -9.193557 0
M  V30 36 C 12.754465 9.820258 -5.480647 0
M  V30 37 C 8.808974 5.884457 -11.254707 0 CFG=1
M  V30 38 H 6.812312 6.000861 -12.128356 0
M  V30 39 H 9.339547 7.317835 -6.278008 0
M  V30 40 H 9.087472 5.990280 -16.532531 0
M  V30 41 H 11.403190 5.691789 -7.521897 0
M  V30 42 H 9.725092 5.360027 -7.253880 0
M  V30 43 H 10.575379 4.453840 -8.459286 0
M  V30 44 H 6.412706 4.692080 -14.010829 0
M  V30 45 H 10.605751 3.529244 -18.665496 0
M  V30 46 H 6.423718 3.944878 -10.181593 0
M  V30 47 H 5.948399 5.622900 -10.114305 0
M  V30 48 H 9.515549 3.160658 -16.587463 0
M  V30 49 H 10.459933 9.190151 -9.984697 0
M  V30 50 H 8.975397 2.790151 -11.460036 0
M  V30 51 H 9.499006 3.204899 -13.045013 0
M  V30 52 H 12.661050 9.455605 -9.585304 0
M  V30 53 H 8.193412 6.335140 -14.238017 0
M  V30 54 H 7.202234 2.204655 -16.725834 0
M  V30 55 H 6.575444 3.828212 -16.497073 0
M  V30 56 H 10.951949 7.247123 -11.072860 0
M  V30 57 H 12.153545 6.790523 -9.843186 0
M  V30 58 H 10.446716 10.111910 -6.384993 0
M  V30 59 H 10.267144 9.061453 -4.999118 0
M  V30 60 H 10.336247 3.669140 -20.845654 0
M  V30 61 H 8.216764 2.296238 -14.460678 0
M  V30 62 H 6.493863 2.394360 -14.428811 0
M  V30 63 H 8.378384 2.638298 -21.148222 0
M  V30 64 H 7.606215 4.214780 -20.964389 0
M  V30 65 H 8.220268 2.163311 -18.847664 0
M  V30 66 H 6.812628 3.229079 -18.954156 0
M  V30 67 H 10.175414 4.349431 -10.655031 0
M  V30 68 H 10.575506 5.080649 -12.229703 0
M  V30 69 H 9.873835 6.509277 -18.698372 0
M  V30 70 H 10.970733 5.714905 -17.588024 0
M  V30 71 H 8.401231 4.356187 -8.976683 0
M  V30 72 H 7.434634 5.590101 -8.252558 0
M  V30 73 H 13.816563 9.590254 -5.564598 0
M  V30 74 H 12.575322 10.771130 -5.984984 0
M  V30 75 H 12.517431 9.929873 -4.421765 0
M  V30 76 H 8.997234 6.759452 -11.876733 0
M  V30 77 H 8.254351 7.083217 -9.722605 0
M  V30 78 H 9.545689 5.111838 -20.812221 0
M  V30 79 H 8.108585 5.007984 -18.322091 0
M  V30 END ATOM
M  V30 BEGIN BOND
M  V30 1 1 2 6 CFG=1
M  V30 2 1 9 3
M  V30 3 1 10 5
M  V30 4 1 13 2
M  V30 5 1 13 4
M  V30 6 1 13 11
M  V30 7 1 14 11
M  V30 8 1 15 1 CFG=3
M  V30 9 1 16 5
M  V30 10 1 16 7
M  V30 11 1 17 5
M  V30 12 1 17 16
M  V30 13 1 18 3
M  V30 14 1 18 7
M  V30 15 1 18 12
M  V30 16 1 20 15
M  V30 17 1 21 4
M  V30 18 1 13 21 CFG=3
M  V30 19 1 22 10
M  V30 20 1 23 2
M  V30 21 1 23 11
M  V30 22 1 24 2
M  V30 23 1 25 4
M  V30 24 1 25 19
M  V30 25 1 26 8
M  V30 26 1 27 7
M  V30 27 1 27 22
M  V30 28 1 28 26
M  V30 29 1 29 28
M  V30 30 2 30 20
M  V30 31 1 31 12
M  V30 32 1 32 8
M  V30 33 1 32 15
M  V30 34 1 33 15
M  V30 35 1 33 20
M  V30 36 1 34 8
M  V30 37 1 34 10
M  V30 38 1 34 29
M  V30 39 1 35 9
M  V30 40 1 35 24
M  V30 41 1 36 19
M  V30 42 1 37 3
M  V30 43 1 37 24
M  V30 44 1 37 31
M  V30 45 1 3 38 CFG=3
M  V30 46 1 4 39 CFG=1
M  V30 47 1 5 40 CFG=3
M  V30 48 1 41 6
M  V30 49 1 42 6
M  V30 50 1 43 6
M  V30 51 1 7 44 CFG=1
M  V30 52 1 8 45 CFG=1
M  V30 53 1 46 9
M  V30 54 1 47 9
M  V30 55 1 10 48 CFG=3
M  V30 56 1 11 49 CFG=3
M  V30 57 1 50 12
M  V30 58 1 51 12
M  V30 59 1 52 14
M  V30 60 1 16 53 CFG=3
M  V30 61 1 54 22
M  V30 62 1 55 22
M  V30 63 1 56 23
M  V30 64 1 57 23
M  V30 65 1 58 25
M  V30 66 1 59 25
M  V30 67 1 60 26
M  V30 68 1 61 27
M  V30 69 1 62 27
M  V30 70 1 63 28
M  V30 71 1 64 28
M  V30 72 1 65 29
M  V30 73 1 66 29
M  V30 74 1 67 31
M  V30 75 1 68 31
M  V30 76 1 69 32
M  V30 77 1 70 32
M  V30 78 1 71 35
M  V30 79 1 72 35
M  V30 80 1 73 36
M  V30 81 1 74 36
M  V30 82 1 75 36
M  V30 83 1 37 76 CFG=3
M  V30 84 1 24 77 CFG=3
M  V30 85 1 78 26
M  V30 86 1 34 79 CFG=1
M  V30 END BOND
M  V30 END CTAB
M  END
>  <i_epik_Tot_Q>  (1) 
3

>  <i_epik_Tot_abs_Q>  (1) 
3

>  <i_i_glide_confnum>  (1) 
422

>  <i_i_glide_lignum>  (1) 
85

>  <i_i_glide_posenum>  (1) 
225

>  <i_i_glide_rotatable_bonds>  (1) 
8

>  <i_lp_mmshare_version>  (1) 
72125

>  <i_m_source_file_index>  (1) 
29

>  <i_f3d_flags>  (1) 
0

>  <num_sample>  (1) 
50

>  <b_lp_Chiralities_Consistent>  (1) 
1

>  <r_epik_Charging_Adjusted_Penalty>  (1) 
2.5479580004866769

>  <r_epik_Ionization_Penalty>  (1) 
1.853674345886815

>  <r_epik_Ionization_Penalty_Charging>  (1) 
1.8530809818743854

>  <r_epik_Ionization_Penalty_Neutral>  (1) 
0.00059336401242958479

>  <r_epik_State_Penalty>  (1) 
0.69487701861229134

>  <r_glide_ring_energy>  (1) 
0.81914574756082947

>  <r_i_docking_score>  (1) 
-4.0228591588995242

>  <r_i_glide_ecoul>  (1) 
-9.5147709788616037

>  <r_i_glide_eff_state_penalty>  (1) 
0.69487701861229134

>  <r_i_glide_einternal>  (1) 
16.863528531258979

>  <r_i_glide_emodel>  (1) 
-22.808524762067606

>  <r_i_glide_emodel_strain>  (1) 
3.849019622535252

>  <r_i_glide_energy>  (1) 
-29.669004502428216

>  <r_i_glide_erotb>  (1) 
0.44698704239028575

>  <r_i_glide_esite>  (1) 
-0.094113488835533554

>  <r_i_glide_evdw>  (1) 
-20.15423352356661

>  <r_i_glide_gscore>  (1) 
-4.7177361775118154

>  <r_i_glide_gscore_strain>  (1) 
0

>  <r_i_glide_hbond>  (1) 
-0.27428981745545733

>  <r_i_glide_ligand_efficiency>  (1) 
-0.10872592321350065

>  <r_i_glide_ligand_efficiency_ln>  (1) 
-0.8724638423659411

>  <r_i_glide_ligand_efficiency_sa>  (1) 
-0.36229889717240693

>  <r_i_glide_lipo>  (1) 
-1.8509748264703572

>  <r_i_glide_metal>  (1) 
-0

>  <r_i_glide_rewards>  (1) 
-0.51041776413318207

>  <r_lp_Energy>  (1) 
72.568534

>  <s_epik_Chemistry_Notes>  (1) 
This compound has an ester and may undergo hydrolysis at high or low pH. This compound contains an acetal/aminal-like group ( X-CH(R)-Y where X, Y are N, S, or O) that may be acid/base labile, releasing an aldehyde.

>  <s_epik_cmdline>  (1) 
J2VwaWtfcHl0aG9uJywgJy1waHQnLCAnMS4wJywgJy1waCcsICc3LjQnLCAnLXRuJywgJzgnLCAnLW1hJywgJzUwMCcsICctaW1hZScsICc8aW5maWxlLm1hZT4nLCAnLW9tYWUnLCAnPG91dGZpbGUubWFlPic=

>  <s_epik_input>  (1) 
Tz1DKE8xKUMxKEYpW0NIMl1bQ0BASF0yW05IXVtDSDJdW0NIMl1OMltDQEBIXTNbQ0gyXVtDSDJdW0NASF0oW0NAQEhdKE80KVtDQEhdMzQpTjVbQ0gyXVtDSDJdW0NAQEhdKFtDQEhdNTYpTihbQ0gyXVtDSDJdNilbQ0BAXShbQ0gzXSkoW0NIMl1bQ0BASF03W09IXSlbQ0BAXTc4W0NASF0oTzgpW0NIMl1PW0NIM10=

>  <s_glide_docking_method>  (1) 
confgen

>  <s_i_glide_gridfile>  (1) 
gpcr_drd2_6luq_protein_autoprepared_prepared

>  <s_lp_Force_Field>  (1) 
S-OPLS

>  <s_lp_Variant>  (1) 
DiffSBDD_28-8

>  <s_m_source_file>  (1) 
generated_generic_title2_ligand_DiffSBDD_2026-06-23_prepared.sdf

>  <GenAI_Model>  (1) 
DiffSBDD

>  <Protein>  (1) 
generic_title2

$$$$
DiffSBDD_22
     RDKit          3D

  0  0  0  0  0  0  0  0  0  0999 V3000
M  V30 BEGIN CTAB
M  V30 COUNTS 59 63 0 0 1
M  V30 BEGIN ATOM
M  V30 1 C 13.379109 4.128551 -18.095371 0
M  V30 2 C 11.829483 4.028492 -18.086160 0 CFG=1
M  V30 3 C 13.964707 5.500395 -17.678782 0 CFG=2
M  V30 4 C 8.526639 5.664673 -19.952981 0 CFG=1
M  V30 5 C 16.141937 6.193420 -18.649786 0 CFG=2
M  V30 6 C 16.481623 7.613745 -18.259191 0
M  V30 7 N 15.440115 5.466372 -17.616236 0
M  V30 8 C 13.325429 6.005605 -16.363626 0
M  V30 9 O 17.303913 4.790373 -16.488805 0
M  V30 10 C 11.217142 4.671450 -16.822140 0
M  V30 11 C 17.354582 5.613942 -19.371353 0 CFG=1
M  V30 12 C 9.783015 2.090967 -19.458536 0
M  V30 13 C 11.105860 4.326765 -19.447985 0 CFG=2
M  V30 14 C 11.018033 5.817045 -19.847820 0
M  V30 15 Cl 18.592888 9.310622 -18.702631 0
M  V30 16 C 5.602956 6.422724 -17.576100 0
M  V30 17 C 11.800894 6.050480 -16.475436 0
M  V30 18 C 4.761382 7.190225 -18.404145 0
M  V30 19 C 6.822962 5.926743 -18.076253 0
M  V30 20 C 16.036062 5.745316 -20.104588 0
M  V30 21 C 6.357652 6.966784 -20.237807 0
M  V30 22 C 16.079844 4.822036 -16.612459 0
M  V30 23 F 10.858759 1.573013 -20.053754 0
M  V30 24 C 17.819785 7.704470 -18.911567 0
M  V30 25 N 8.625289 4.228323 -19.715661 0
M  V30 26 N 18.296792 6.715276 -19.533862 0
M  V30 27 C 7.203629 6.197310 -19.410131 0
M  V30 28 C 5.138303 7.462360 -19.733986 0
M  V30 29 C 9.732917 3.607974 -19.557754 0
M  V30 30 C 9.709794 6.453793 -19.380742 0
M  V30 31 H 13.766703 3.829930 -19.069005 0
M  V30 32 H 13.750569 3.377051 -17.396942 0
M  V30 33 H 11.685350 2.960319 -17.929776 0
M  V30 34 H 13.705658 6.224331 -18.448463 0
M  V30 35 H 8.519346 5.814506 -21.033983 0
M  V30 36 H 15.772001 8.328964 -18.675641 0
M  V30 37 H 16.578173 7.736762 -17.185043 0
M  V30 38 H 13.577923 5.366058 -15.518425 0
M  V30 39 H 13.703809 7.000337 -16.123862 0
M  V30 40 H 11.421410 4.007410 -15.985066 0
M  V30 41 H 10.130394 4.717963 -16.889651 0
M  V30 42 H 17.780553 4.652970 -19.088917 0
M  V30 43 H 9.783398 1.775543 -18.415388 0
M  V30 44 H 8.908475 1.653564 -19.941019 0
M  V30 45 H 11.734090 3.871280 -20.214091 0
M  V30 46 H 11.869094 6.390575 -19.496617 0
M  V30 47 H 11.056422 5.888645 -20.935926 0
M  V30 48 H 5.313328 6.214615 -16.556630 0
M  V30 49 H 11.375459 6.389996 -15.531941 0
M  V30 50 H 11.527294 6.790215 -17.221008 0
M  V30 51 H 3.826453 7.571393 -18.019192 0
M  V30 52 H 7.467675 5.339125 -17.438784 0
M  V30 53 H 15.505956 4.820694 -20.320257 0
M  V30 54 H 15.944231 6.513267 -20.870901 0
M  V30 55 H 6.644274 7.177664 -21.257748 0
M  V30 56 H 15.368995 4.332798 -15.930952 0
M  V30 57 H 4.492292 8.051676 -20.367777 0
M  V30 58 H 9.661939 7.495677 -19.698682 0
M  V30 59 H 9.644986 6.457449 -18.296546 0
M  V30 END ATOM
M  V30 BEGIN BOND
M  V30 1 1 2 1
M  V30 2 1 3 1
M  V30 3 1 6 5
M  V30 4 1 7 3
M  V30 5 1 5 7 CFG=1
M  V30 6 1 8 3
M  V30 7 1 10 2
M  V30 8 1 11 5
M  V30 9 1 13 2
M  V30 10 1 14 13
M  V30 11 1 17 8
M  V30 12 1 17 10
M  V30 13 2 18 16
M  V30 14 1 19 16
M  V30 15 1 20 5
M  V30 16 1 20 11
M  V30 17 1 22 7
M  V30 18 2 22 9
M  V30 19 1 23 12
M  V30 20 1 24 6
M  V30 21 1 24 15
M  V30 22 1 25 4
M  V30 23 1 26 11
M  V30 24 2 26 24
M  V30 25 1 27 4
M  V30 26 2 27 19
M  V30 27 1 27 21
M  V30 28 1 28 18
M  V30 29 2 28 21
M  V30 30 1 29 12
M  V30 31 1 29 13
M  V30 32 2 29 25
M  V30 33 1 30 4
M  V30 34 1 30 14
M  V30 35 1 31 1
M  V30 36 1 32 1
M  V30 37 1 2 33 CFG=1
M  V30 38 1 3 34 CFG=3
M  V30 39 1 4 35 CFG=3
M  V30 40 1 36 6
M  V30 41 1 37 6
M  V30 42 1 38 8
M  V30 43 1 39 8
M  V30 44 1 40 10
M  V30 45 1 41 10
M  V30 46 1 11 42 CFG=1
M  V30 47 1 43 12
M  V30 48 1 44 12
M  V30 49 1 13 45 CFG=3
M  V30 50 1 46 14
M  V30 51 1 47 14
M  V30 52 1 48 16
M  V30 53 1 49 17
M  V30 54 1 50 17
M  V30 55 1 51 18
M  V30 56 1 52 19
M  V30 57 1 53 20
M  V30 58 1 54 20
M  V30 59 1 55 21
M  V30 60 1 56 22
M  V30 61 1 57 28
M  V30 62 1 58 30
M  V30 63 1 59 30
M  V30 END BOND
M  V30 END CTAB
M  END
>  <i_epik_Tot_Q>  (1) 
0

>  <i_epik_Tot_abs_Q>  (1) 
0

>  <i_i_glide_confnum>  (1) 
174

>  <i_i_glide_lignum>  (1) 
69

>  <i_i_glide_posenum>  (1) 
337

>  <i_i_glide_rotatable_bonds>  (1) 
6

>  <i_lp_mmshare_version>  (1) 
72125

>  <i_m_source_file_index>  (1) 
23

>  <i_f3d_flags>  (1) 
0

>  <num_sample>  (1) 
50

>  <b_lp_Chiralities_Consistent>  (1) 
1

>  <r_epik_Charging_Adjusted_Penalty>  (1) 
0

>  <r_epik_Ionization_Penalty>  (1) 
0.00052212265616106849

>  <r_epik_Ionization_Penalty_Charging>  (1) 
0

>  <r_epik_Ionization_Penalty_Neutral>  (1) 
0.00052212265616106849

>  <r_epik_State_Penalty>  (1) 
-0

>  <r_glide_ring_energy>  (1) 
1.9780561898571851

>  <r_i_docking_score>  (1) 
-4.0082362060798609

>  <r_i_glide_ecoul>  (1) 
-3.0973592476132481

>  <r_i_glide_eff_state_penalty>  (1) 
-0

>  <r_i_glide_einternal>  (1) 
10.084335828593147

>  <r_i_glide_emodel>  (1) 
-29.517393941315898

>  <r_i_glide_emodel_strain>  (1) 
0

>  <r_i_glide_energy>  (1) 
-28.156306527451861

>  <r_i_glide_erotb>  (1) 
0.43006818046137463

>  <r_i_glide_esite>  (1) 
-0.018833579096944233

>  <r_i_glide_evdw>  (1) 
-25.058947279838613

>  <r_i_glide_gscore>  (1) 
-4.0082362060798609

>  <r_i_glide_gscore_strain>  (1) 
0

>  <r_i_glide_hbond>  (1) 
-0.32000000000000001

>  <r_i_glide_ligand_efficiency>  (1) 
-0.13360787353599538

>  <r_i_glide_ligand_efficiency_ln>  (1) 
-0.91071493925276092

>  <r_i_glide_ligand_efficiency_sa>  (1) 
-0.41515072770241718

>  <r_i_glide_lipo>  (1) 
-1.7606587708583705

>  <r_i_glide_metal>  (1) 
-0

>  <r_i_glide_rewards>  (1) 
-0.62126078545200303

>  <r_lp_Energy>  (1) 
30.166556

>  <r_lp_tautomer_probability>  (1) 
1

>  <s_epik_Chemistry_Notes>  (1) 
This compound has an imine and may undergo hydrolysis.

>  <s_epik_cmdline>  (1) 
J2VwaWtfcHl0aG9uJywgJy1waHQnLCAnMS4wJywgJy1waCcsICc3LjQnLCAnLXRuJywgJzgnLCAnLW1hJywgJzUwMCcsICctaW1hZScsICc8aW5maWxlLm1hZT4nLCAnLW9tYWUnLCAnPG91dGZpbGUubWFlPic=

>  <s_epik_input>  (1) 
W0NIMl0xQyhDbCk9TltDQEhdKFtDSDJdMilbQ0BAXTEyTihbQ0hdPU8pW0NASF0oW0NIMl1bQ0gyXVtDSDJdMylbQ0gyXVtDQEBIXTNbQ0BIXShbQ0gyXVtDSDJdNClDKFtDSDJdRik9TltDQEhdNGM1W2NIXVtjSF1bY0hdW2NIXVtjSF01

>  <s_glide_docking_method>  (1) 
confgen

>  <s_i_glide_gridfile>  (1) 
gpcr_drd2_6luq_protein_autoprepared_prepared

>  <s_lp_Force_Field>  (1) 
S-OPLS

>  <s_lp_Variant>  (1) 
DiffSBDD_22-1

>  <s_m_source_file>  (1) 
generated_generic_title2_ligand_DiffSBDD_2026-06-23_prepared.sdf

>  <GenAI_Model>  (1) 
DiffSBDD

>  <Protein>  (1) 
generic_title2

$$$$
DiffSBDD_0
     RDKit          3D

  0  0  0  0  0  0  0  0  0  0999 V3000
M  V30 BEGIN CTAB
M  V30 COUNTS 70 74 0 0 1
M  V30 BEGIN ATOM
M  V30 1 C 9.732683 8.790216 -7.555441 0
M  V30 2 N 7.695925 4.183897 -14.097261 0
M  V30 3 C 7.790118 3.714698 -18.347488 0 CFG=1
M  V30 4 C 8.259000 5.676317 -12.251144 0
M  V30 5 F 11.375323 6.659796 -6.269934 0
M  V30 6 C 6.933941 5.173572 -14.880184 0
M  V30 7 C 9.935054 8.333831 -9.005071 0
M  V30 8 C 8.909251 4.790218 -10.133742 0
M  V30 9 C 10.255710 5.931156 -8.205381 0 CFG=1
M  V30 10 C 10.423337 4.062574 -18.190422 0
M  V30 11 C 7.800242 2.850175 -14.691692 0 CFG=2
M  V30 12 C 6.723686 0.221709 -13.406007 0
M  V30 13 C 9.212894 3.505643 -18.879651 0 CFG=1
M  V30 14 O 8.840441 5.895406 -11.028131 0
M  V30 15 C 10.155849 6.409718 -6.747294 0 CFG=2
M  V30 16 C 8.398028 2.329352 -18.366885 0 CFG=1
M  V30 17 N 7.520055 3.909084 -16.897545 0 CFG=1 CHG=1
M  V30 18 C 8.925953 5.303079 -8.688403 0
M  V30 19 C 6.134662 1.627834 -13.558403 0
M  V30 20 C 8.377457 3.028294 -16.100548 0 CFG=2
M  V30 21 O 6.100575 -0.409770 -12.317607 0
M  V30 22 C 10.812181 7.082174 -9.080326 0
M  V30 23 N 10.559741 5.386289 -17.886226 0
M  V30 24 C 7.432376 5.272551 -16.340050 0
M  V30 25 N 11.440027 3.274215 -17.838050 0
M  V30 26 O 12.330467 4.142266 -17.185046 0
M  V30 27 C 11.729402 5.344745 -17.268866 0
M  V30 28 O 6.575575 2.204615 -14.781692 0
M  V30 29 N 12.429125 6.386583 -16.684083 0
M  V30 30 C 8.277354 4.475365 -12.867111 0
M  V30 31 C 9.298203 7.669787 -6.607548 0
M  V30 32 C 13.697584 6.412560 -15.981118 0
M  V30 33 C 8.520591 1.772486 -16.956825 0
M  V30 34 H 10.668888 9.201905 -7.182017 0
M  V30 35 H 8.975423 9.574415 -7.543726 0
M  V30 36 H 6.958020 3.933849 -19.013411 0
M  V30 37 H 7.793102 6.565884 -12.642975 0
M  V30 38 H 5.889399 4.860101 -14.870322 0
M  V30 39 H 6.943234 6.168152 -14.442190 0
M  V30 40 H 10.389299 9.138096 -9.583474 0
M  V30 41 H 8.975454 8.133762 -9.474884 0
M  V30 42 H 8.018763 4.169887 -10.246250 0
M  V30 43 H 9.775398 4.163793 -10.344297 0
M  V30 44 H 10.975407 5.121571 -8.205054 0
M  V30 45 H 8.482888 2.249767 -14.088271 0
M  V30 46 H 7.801009 0.248736 -13.240416 0
M  V30 47 H 6.541488 -0.370787 -14.303979 0
M  V30 48 H 9.347774 3.579357 -19.956946 0
M  V30 49 H 9.750675 5.623659 -6.118242 0
M  V30 50 H 8.050845 1.624300 -19.120283 0
M  V30 51 H 8.094375 5.990259 -8.561557 0
M  V30 52 H 8.697853 4.462309 -8.032569 0
M  V30 53 H 5.046892 1.558945 -13.585028 0
M  V30 54 H 6.368576 2.253708 -12.695655 0
M  V30 55 H 9.345972 3.511226 -15.985027 0
M  V30 56 H 5.701350 -1.220343 -12.642519 0
M  V30 57 H 11.814630 7.337938 -8.735987 0
M  V30 58 H 10.933056 6.790224 -10.120952 0
M  V30 59 H 6.749422 5.878415 -16.936512 0
M  V30 60 H 8.408184 5.755476 -16.366664 0
M  V30 61 H 11.981375 7.288433 -16.755472 0
M  V30 62 H 8.768467 3.623539 -12.418488 0
M  V30 63 H 9.358004 8.028244 -5.584989 0
M  V30 64 H 8.254779 7.422530 -6.780886 0
M  V30 65 H 13.775414 7.323372 -15.389246 0
M  V30 66 H 13.784340 5.558415 -15.309039 0
M  V30 67 H 14.527331 6.381459 -16.687420 0
M  V30 68 H 7.708352 1.064846 -16.783720 0
M  V30 69 H 9.469656 1.257271 -16.807453 0
M  V30 70 H 6.599770 3.514697 -16.757197 0
M  V30 END ATOM
M  V30 BEGIN BOND
M  V30 1 1 6 2
M  V30 2 1 7 1
M  V30 3 1 11 2
M  V30 4 1 13 3
M  V30 5 1 13 10
M  V30 6 1 14 4
M  V30 7 1 14 8
M  V30 8 1 15 5
M  V30 9 1 15 9
M  V30 10 1 16 3
M  V30 11 1 16 13
M  V30 12 1 17 3
M  V30 13 1 18 8
M  V30 14 1 18 9
M  V30 15 1 19 12
M  V30 16 1 20 11
M  V30 17 1 20 17
M  V30 18 1 21 12
M  V30 19 1 22 7
M  V30 20 1 22 9
M  V30 21 1 23 10
M  V30 22 1 24 6
M  V30 23 1 24 17
M  V30 24 2 25 10
M  V30 25 1 26 25
M  V30 26 2 27 23
M  V30 27 1 27 26
M  V30 28 1 28 11
M  V30 29 1 28 19
M  V30 30 1 29 27
M  V30 31 1 30 2
M  V30 32 2 30 4
M  V30 33 1 31 1
M  V30 34 1 31 15
M  V30 35 1 32 29
M  V30 36 1 33 16
M  V30 37 1 33 20
M  V30 38 1 34 1
M  V30 39 1 35 1
M  V30 40 1 3 36 CFG=3
M  V30 41 1 37 4
M  V30 42 1 38 6
M  V30 43 1 39 6
M  V30 44 1 40 7
M  V30 45 1 41 7
M  V30 46 1 42 8
M  V30 47 1 43 8
M  V30 48 1 9 44 CFG=1
M  V30 49 1 11 45 CFG=1
M  V30 50 1 46 12
M  V30 51 1 47 12
M  V30 52 1 13 48 CFG=3
M  V30 53 1 15 49 CFG=1
M  V30 54 1 16 50 CFG=3
M  V30 55 1 51 18
M  V30 56 1 52 18
M  V30 57 1 53 19
M  V30 58 1 54 19
M  V30 59 1 20 55 CFG=1
M  V30 60 1 56 21
M  V30 61 1 57 22
M  V30 62 1 58 22
M  V30 63 1 59 24
M  V30 64 1 60 24
M  V30 65 1 61 29
M  V30 66 1 62 30
M  V30 67 1 63 31
M  V30 68 1 64 31
M  V30 69 1 65 32
M  V30 70 1 66 32
M  V30 71 1 67 32
M  V30 72 1 68 33
M  V30 73 1 69 33
M  V30 74 1 17 70 CFG=3
M  V30 END BOND
M  V30 END CTAB
M  END
>  <i_epik_Tot_Q>  (1) 
1

>  <i_epik_Tot_abs_Q>  (1) 
1

>  <i_i_glide_confnum>  (1) 
14

>  <i_i_glide_lignum>  (1) 
2

>  <i_i_glide_posenum>  (1) 
188

>  <i_i_glide_rotatable_bonds>  (1) 
11

>  <i_lp_mmshare_version>  (1) 
72125

>  <i_m_source_file_index>  (1) 
1

>  <i_f3d_flags>  (1) 
0

>  <num_sample>  (1) 
50

>  <b_lp_Chiralities_Consistent>  (1) 
1

>  <r_epik_Charging_Adjusted_Penalty>  (1) 
0.41344222577729461

>  <r_epik_Ionization_Penalty>  (1) 
0.0027644559619576371

>  <r_epik_Ionization_Penalty_Charging>  (1) 
0.0027623868246906495

>  <r_epik_Ionization_Penalty_Neutral>  (1) 
2.0691372669875143e-06

>  <r_epik_State_Penalty>  (1) 
0.41067983895260396

>  <r_glide_ring_energy>  (1) 
1.3007136337365988

>  <r_i_docking_score>  (1) 
-4.0013075928936974

>  <r_i_glide_ecoul>  (1) 
-3.9647514657245582

>  <r_i_glide_eff_state_penalty>  (1) 
0.41067983895260396

>  <r_i_glide_einternal>  (1) 
8.0671323309522833

>  <r_i_glide_emodel>  (1) 
-40.380713183020845

>  <r_i_glide_emodel_strain>  (1) 
1.3069163689153385

>  <r_i_glide_energy>  (1) 
-35.179107989475213

>  <r_i_glide_erotb>  (1) 
0.74142510397790429

>  <r_i_glide_esite>  (1) 
0

>  <r_i_glide_evdw>  (1) 
-31.214356523750656

>  <r_i_glide_gscore>  (1) 
-4.4119874318463017

>  <r_i_glide_gscore_strain>  (1) 
0

>  <r_i_glide_hbond>  (1) 
-0.16

>  <r_i_glide_ligand_efficiency>  (1) 
-0.12125174523920296

>  <r_i_glide_ligand_efficiency_ln>  (1) 
-0.88987009099762771

>  <r_i_glide_ligand_efficiency_sa>  (1) 
-0.38891913542665152

>  <r_i_glide_lipo>  (1) 
-1.4159238355782169

>  <r_i_glide_metal>  (1) 
-0

>  <r_i_glide_rewards>  (1) 
-1.4220581541997719

>  <r_lp_Energy>  (1) 
46.492728

>  <r_lp_tautomer_probability>  (1) 
0.5

>  <s_epik_Chemistry_Notes>  (1) 
This compound has an imine and may undergo hydrolysis. This compound contains an acetal/aminal-like group ( X-CH(R)-Y where X, Y are N, S, or O) that may be acid/base labile, releasing an aldehyde.

>  <s_epik_cmdline>  (1) 
J2VwaWtfcHl0aG9uJywgJy1waHQnLCAnMS4wJywgJy1waCcsICc3LjQnLCAnLXRuJywgJzgnLCAnLW1hJywgJzUwMCcsICctaW1hZScsICc8aW5maWxlLm1hZT4nLCAnLW9tYWUnLCAnPG91dGZpbGUubWFlPic=

>  <s_epik_input>  (1) 
W0NIMl0xW0NIMl1bQ0gyXVtDSDJdW0NASF0oRilbQ0BIXTFbQ0gyXVtDSDJdTy9bQ0hdPVtDSF0vTihbQ0BIXTJPW0NIMl1bQ0gyXVtPSF0pW0NIMl1bQ0gyXU4zW0NAQEhdMltDSDJdW0NAQEhdKFtDQEBIXTM0KVtDQEBIXTRjNW5jKG9uNSlbTkhdW0NIM10=

>  <s_glide_docking_method>  (1) 
confgen

>  <s_i_glide_gridfile>  (1) 
gpcr_drd2_6luq_protein_autoprepared_prepared

>  <s_lp_Force_Field>  (1) 
S-OPLS

>  <s_lp_Variant>  (1) 
DiffSBDD_0-2

>  <s_m_source_file>  (1) 
generated_generic_title2_ligand_DiffSBDD_2026-06-23_prepared.sdf

>  <GenAI_Model>  (1) 
DiffSBDD

>  <Protein>  (1) 
generic_title2

$$$$
DiffSBDD_44
     RDKit          3D

  0  0  0  0  0  0  0  0  0  0999 V3000
M  V30 BEGIN CTAB
M  V30 COUNTS 61 63 0 0 1
M  V30 BEGIN ATOM
M  V30 1 C 5.701087 3.057447 -20.371971 0
M  V30 2 C 8.043532 4.030380 -13.967915 0
M  V30 3 O 7.565789 4.099960 -22.521894 0
M  V30 4 O 4.689460 3.631429 -20.781846 0
M  V30 5 O 8.036229 1.365281 -14.798624 0
M  V30 6 C 7.167360 2.339849 -18.128318 0 CFG=2
M  V30 7 C 8.038574 3.547741 -21.312161 0
M  V30 8 C 8.963736 6.169562 -10.806376 0
M  V30 9 C 9.456054 4.786595 -16.980809 0
M  V30 10 C 6.712158 1.158280 -18.990856 0
M  V30 11 C 6.987796 5.319613 -16.569252 0
M  V30 12 C 5.131148 7.143450 -19.261640 0
M  V30 13 O 7.717107 3.379266 -18.950749 0
M  V30 14 C 5.999331 5.949826 -18.824319 0 CFG=1
M  V30 15 C 5.700955 1.552788 -20.073844 0 CFG=1
M  V30 16 N 8.175223 8.349847 -11.584935 0 CHG=1
M  V30 17 F 9.562823 6.539938 -8.538882 0
M  V30 18 C 7.901852 3.265912 -12.807569 0
M  V30 19 S 8.266941 5.721149 -13.525731 0
M  V30 20 O 4.426175 1.110596 -19.677960 0
M  V30 21 C 9.084586 5.757348 -9.522770 0
M  V30 22 C 6.786810 5.373745 -20.041027 0 CFG=1
M  V30 23 C 8.095791 4.592357 -16.297195 0
M  V30 24 C 9.368402 7.571302 -11.235308 0
M  V30 25 C 8.433057 5.264927 -11.856567 0
M  V30 26 N 8.043059 4.023102 -11.638447 0
M  V30 27 C 6.898635 6.386138 -17.637398 0
M  V30 28 F 8.744085 4.531639 -9.090983 0
M  V30 29 C 8.105374 2.267587 -15.628295 0
M  V30 30 C 8.252379 1.897865 -17.124183 0
M  V30 31 O 8.360968 2.185862 -21.486623 0
M  V30 32 F 7.911792 6.071841 -20.216887 0
M  V30 33 N 8.077469 3.607048 -15.287529 0
M  V30 34 C 7.033256 3.823400 -20.140574 0 CFG=2
M  V30 35 H 8.295085 4.195790 -23.114137 0
M  V30 36 H 6.306440 2.728235 -17.601362 0
M  V30 37 H 8.981718 4.043125 -21.078910 0
M  V30 38 H 9.373101 4.873553 -18.063146 0
M  V30 39 H 10.183603 4.004688 -16.741328 0
M  V30 40 H 9.891023 5.729944 -16.642147 0
M  V30 41 H 7.589943 0.720575 -19.465473 0
M  V30 42 H 6.298380 0.377066 -18.346893 0
M  V30 43 H 6.078413 5.126681 -16.021107 0
M  V30 44 H 5.743115 7.991696 -19.568603 0
M  V30 45 H 4.480158 7.476936 -18.452265 0
M  V30 46 H 4.490278 6.876517 -20.099978 0
M  V30 47 H 5.300155 5.191066 -18.470980 0
M  V30 48 H 5.947091 1.033670 -20.997386 0
M  V30 49 H 8.379293 9.328236 -11.713728 0
M  V30 50 H 7.535792 8.255847 -10.785027 0
M  V30 51 H 7.749685 2.204156 -12.718004 0
M  V30 52 H 3.869928 1.072434 -20.443918 0
M  V30 53 H 6.222182 5.647929 -20.932206 0
M  V30 54 H 9.851226 8.080969 -10.400441 0
M  V30 55 H 10.074535 7.558230 -12.061424 0
M  V30 56 H 7.875591 6.723943 -17.981040 0
M  V30 57 H 6.456945 7.247842 -17.133698 0
M  V30 58 H 8.273836 0.807235 -17.128757 0
M  V30 59 H 9.253709 2.136080 -17.476716 0
M  V30 60 H 7.586387 1.733875 -21.781441 0
M  V30 61 H 7.715858 7.953655 -12.393085 0
M  V30 END ATOM
M  V30 BEGIN BOND
M  V30 1 2 4 1
M  V30 2 1 7 3
M  V30 3 1 10 6
M  V30 4 1 13 6
M  V30 5 1 14 12
M  V30 6 1 15 1
M  V30 7 1 15 10
M  V30 8 2 18 2
M  V30 9 1 19 2
M  V30 10 1 20 15
M  V30 11 2 21 8
M  V30 12 1 21 17
M  V30 13 1 22 14
M  V30 14 1 23 9
M  V30 15 2 23 11
M  V30 16 1 24 8
M  V30 17 1 24 16
M  V30 18 1 25 8
M  V30 19 1 25 19
M  V30 20 1 26 18
M  V30 21 2 26 25
M  V30 22 1 27 11
M  V30 23 1 27 14
M  V30 24 1 28 21
M  V30 25 2 29 5
M  V30 26 1 30 6
M  V30 27 1 30 29
M  V30 28 1 31 7
M  V30 29 1 32 22
M  V30 30 1 33 2
M  V30 31 1 33 23
M  V30 32 1 33 29
M  V30 33 1 34 1
M  V30 34 1 34 7 CFG=3
M  V30 35 1 34 13
M  V30 36 1 34 22
M  V30 37 1 35 3
M  V30 38 1 6 36 CFG=1
M  V30 39 1 37 7
M  V30 40 1 38 9
M  V30 41 1 39 9
M  V30 42 1 40 9
M  V30 43 1 41 10
M  V30 44 1 42 10
M  V30 45 1 43 11
M  V30 46 1 44 12
M  V30 47 1 45 12
M  V30 48 1 46 12
M  V30 49 1 14 47 CFG=1
M  V30 50 1 15 48 CFG=3
M  V30 51 1 49 16
M  V30 52 1 50 16
M  V30 53 1 51 18
M  V30 54 1 52 20
M  V30 55 1 22 53 CFG=3
M  V30 56 1 54 24
M  V30 57 1 55 24
M  V30 58 1 56 27
M  V30 59 1 57 27
M  V30 60 1 58 30
M  V30 61 1 59 30
M  V30 62 1 60 31
M  V30 63 1 61 16
M  V30 END BOND
M  V30 END CTAB
M  END
>  <i_epik_Tot_Q>  (1) 
1

>  <i_epik_Tot_abs_Q>  (1) 
1

>  <i_i_glide_confnum>  (1) 
9

>  <i_i_glide_lignum>  (1) 
121

>  <i_i_glide_posenum>  (1) 
102

>  <i_i_glide_rotatable_bonds>  (1) 
7

>  <i_lp_mmshare_version>  (1) 
72125

>  <i_m_source_file_index>  (1) 
45

>  <i_f3d_flags>  (1) 
0

>  <num_sample>  (1) 
50

>  <b_lp_Chiralities_Consistent>  (1) 
1

>  <r_epik_Charging_Adjusted_Penalty>  (1) 
1.7853739982533117

>  <r_epik_Ionization_Penalty>  (1) 
0.89286729103917917

>  <r_epik_Ionization_Penalty_Charging>  (1) 
0.89268699912665583

>  <r_epik_Ionization_Penalty_Neutral>  (1) 
0.00018029191252335439

>  <r_epik_State_Penalty>  (1) 
0.89268699912665583

>  <r_glide_ring_energy>  (1) 
0

>  <r_i_docking_score>  (1) 
-4.0005420978262345

>  <r_i_glide_ecoul>  (1) 
-7.8744011694720699

>  <r_i_glide_eff_state_penalty>  (1) 
0.89268699912665583

>  <r_i_glide_einternal>  (1) 
3.2040672401001844

>  <r_i_glide_emodel>  (1) 
-40.624555199151459

>  <r_i_glide_emodel_strain>  (1) 
3.6462544502344372

>  <r_i_glide_energy>  (1) 
-32.665533706068274

>  <r_i_glide_erotb>  (1) 
0.31898952436158168

>  <r_i_glide_esite>  (1) 
-0.18841982888469763

>  <r_i_glide_evdw>  (1) 
-24.791132536596205

>  <r_i_glide_gscore>  (1) 
-4.89322909695289

>  <r_i_glide_gscore_strain>  (1) 
0

>  <r_i_glide_hbond>  (1) 
-0.34221941289821034

>  <r_i_glide_ligand_efficiency>  (1) 
-0.11766300287724218

>  <r_i_glide_ligand_efficiency_ln>  (1) 
-0.88383196081480564

>  <r_i_glide_ligand_efficiency_sa>  (1) 
-0.38118245269486034

>  <r_i_glide_lipo>  (1) 
-1.4358946180611989

>  <r_i_glide_metal>  (1) 
-0

>  <r_i_glide_rewards>  (1) 
-0.82496795921974497

>  <r_lp_Energy>  (1) 
47.678134

>  <s_epik_Chemistry_Notes>  (1) 
This compound contains an acetal/aminal-like group ( X-CH(R)-Y where X, Y are N, S, or O) that may be acid/base labile, releasing an aldehyde.

>  <s_epik_cmdline>  (1) 
J2VwaWtfcHl0aG9uJywgJy1waHQnLCAnMS4wJywgJy1waCcsICc3LjQnLCAnLXRuJywgJzgnLCAnLW1hJywgJzUwMCcsICctaW1hZScsICc8aW5maWxlLm1hZT4nLCAnLW9tYWUnLCAnPG91dGZpbGUubWFlPic=

>  <s_epik_input>  (1) 
W09IXVtDSF0oW09IXSlbQ0BAXTEyQyg9TylbQ0BIXShbT0hdKVtDSDJdW0NASF0oTzEpW0NIMl1DKD1PKU4oQyhcW0NIM10pPVtDSF1cW0NIMl1bQ0BASF0oW0NIM10pW0NASF0yRiljM1tjSF1uYyhzMylDKD1DKEYpRilbQ0gyXVtOSDJd

>  <s_glide_docking_method>  (1) 
confgen

>  <s_i_glide_gridfile>  (1) 
gpcr_drd2_6luq_protein_autoprepared_prepared

>  <s_lp_Force_Field>  (1) 
S-OPLS

>  <s_lp_Variant>  (1) 
DiffSBDD_44-2

>  <s_m_source_file>  (1) 
generated_generic_title2_ligand_DiffSBDD_2026-06-23_prepared.sdf

>  <GenAI_Model>  (1) 
DiffSBDD

>  <Protein>  (1) 
generic_title2

$$$$
DiffSBDD_0
     RDKit          3D

  0  0  0  0  0  0  0  0  0  0999 V3000
M  V30 BEGIN CTAB
M  V30 COUNTS 70 74 0 0 1
M  V30 BEGIN ATOM
M  V30 1 C 11.978332 8.093595 -7.484970 0
M  V30 2 N 7.615632 4.302002 -14.050965 0
M  V30 3 C 7.769814 4.005425 -18.325866 0 CFG=1
M  V30 4 C 8.869867 3.791996 -12.014622 0
M  V30 5 F 9.375416 8.297990 -10.066652 0
M  V30 6 C 6.821367 5.271549 -14.816667 0
M  V30 7 C 11.425997 6.913507 -6.657489 0
M  V30 8 C 9.002265 5.421766 -10.246709 0
M  V30 9 C 9.317292 6.860432 -8.098473 0 CFG=1
M  V30 10 C 10.402708 4.410541 -18.231956 0
M  V30 11 C 7.844236 3.006423 -14.708600 0 CFG=2
M  V30 12 C 7.355470 0.390297 -13.377310 0
M  V30 13 C 9.184233 3.851794 -18.900227 0 CFG=1
M  V30 14 O 9.341959 4.147740 -10.773267 0
M  V30 15 C 9.847762 8.124443 -8.833309 0 CFG=1
M  V30 16 C 8.425092 2.642001 -18.396873 0 CFG=1
M  V30 17 N 7.520831 4.139595 -16.865585 0 CFG=1 CHG=1
M  V30 18 C 9.529739 5.505909 -8.806335 0
M  V30 19 C 6.292558 1.437142 -13.758516 0
M  V30 20 C 8.424958 3.275446 -16.104360 0 CFG=2
M  V30 21 O 7.865384 -0.209638 -14.549990 0
M  V30 22 C 9.889207 6.861636 -6.667106 0
M  V30 23 N 11.481333 3.643991 -17.898894 0
M  V30 24 C 7.361249 5.471163 -16.253022 0
M  V30 25 N 10.494243 5.706404 -17.937541 0
M  V30 26 O 11.751344 5.826591 -17.322157 0
M  V30 27 C 12.244247 4.574605 -17.349814 0
M  V30 28 O 6.685762 2.256617 -14.859435 0
M  V30 29 N 13.499280 4.435543 -16.785058 0
M  V30 30 C 8.123346 4.613146 -12.790455 0
M  V30 31 C 11.378783 8.148599 -8.893460 0
M  V30 32 C 14.342111 3.268839 -16.608333 0
M  V30 33 C 8.623947 2.058334 -17.008810 0
M  V30 34 H 11.767023 9.029060 -6.965211 0
M  V30 35 H 13.060837 8.026852 -7.585018 0
M  V30 36 H 6.913888 4.208552 -18.966480 0
M  V30 37 H 9.165613 2.792019 -12.282786 0
M  V30 38 H 5.792221 4.911682 -14.850116 0
M  V30 39 H 6.791021 6.232801 -14.301889 0
M  V30 40 H 11.775409 6.983516 -5.627516 0
M  V30 41 H 11.820075 5.974475 -7.040833 0
M  V30 42 H 9.476333 6.164226 -10.884955 0
M  V30 43 H 7.923080 5.585703 -10.245767 0
M  V30 44 H 8.243456 6.926852 -7.984971 0
M  V30 45 H 8.575409 2.432197 -14.159332 0
M  V30 46 H 6.917829 -0.374617 -12.734353 0
M  V30 47 H 8.175508 0.827771 -12.810552 0
M  V30 48 H 9.287736 3.953364 -19.978602 0
M  V30 49 H 9.494294 9.001275 -8.291170 0
M  V30 50 H 8.085828 1.940789 -19.157109 0
M  V30 51 H 9.034964 4.730038 -8.221210 0
M  V30 52 H 10.575411 5.242914 -8.785027 0
M  V30 53 H 5.371493 0.926958 -14.041036 0
M  V30 54 H 6.051180 2.060819 -12.896829 0
M  V30 55 H 9.374761 3.790402 -15.966199 0
M  V30 56 H 7.375403 -0.999764 -14.742376 0
M  V30 57 H 9.500130 7.727128 -6.128789 0
M  V30 58 H 9.537878 5.990226 -6.115765 0
M  V30 59 H 6.671513 6.078373 -16.839831 0
M  V30 60 H 8.319320 5.990204 -16.229764 0
M  V30 61 H 13.894733 5.288984 -16.419041 0
M  V30 62 H 7.859975 5.608513 -12.465778 0
M  V30 63 H 11.718458 9.052164 -9.401343 0
M  V30 64 H 11.740353 7.307581 -9.486061 0
M  V30 65 H 15.036451 3.423191 -15.782297 0
M  V30 66 H 13.733562 2.391647 -16.385036 0
M  V30 67 H 14.913734 3.070446 -17.515013 0
M  V30 68 H 7.867378 1.291007 -16.843264 0
M  V30 69 H 9.608635 1.602893 -16.899114 0
M  V30 70 H 6.624734 3.692274 -16.728382 0
M  V30 END ATOM
M  V30 BEGIN BOND
M  V30 1 1 6 2
M  V30 2 1 7 1
M  V30 3 1 11 2
M  V30 4 1 13 3
M  V30 5 1 13 10
M  V30 6 1 14 4
M  V30 7 1 14 8
M  V30 8 1 15 5
M  V30 9 1 15 9
M  V30 10 1 16 3
M  V30 11 1 16 13
M  V30 12 1 17 3
M  V30 13 1 18 8
M  V30 14 1 18 9
M  V30 15 1 19 12
M  V30 16 1 20 11
M  V30 17 1 20 17
M  V30 18 1 21 12
M  V30 19 1 22 7
M  V30 20 1 22 9
M  V30 21 1 23 10
M  V30 22 1 24 6
M  V30 23 1 24 17
M  V30 24 2 25 10
M  V30 25 1 26 25
M  V30 26 2 27 23
M  V30 27 1 27 26
M  V30 28 1 28 11
M  V30 29 1 28 19
M  V30 30 1 29 27
M  V30 31 1 30 2
M  V30 32 2 30 4
M  V30 33 1 31 1
M  V30 34 1 31 15
M  V30 35 1 32 29
M  V30 36 1 33 16
M  V30 37 1 33 20
M  V30 38 1 34 1
M  V30 39 1 35 1
M  V30 40 1 3 36 CFG=3
M  V30 41 1 37 4
M  V30 42 1 38 6
M  V30 43 1 39 6
M  V30 44 1 40 7
M  V30 45 1 41 7
M  V30 46 1 42 8
M  V30 47 1 43 8
M  V30 48 1 9 44 CFG=1
M  V30 49 1 11 45 CFG=1
M  V30 50 1 46 12
M  V30 51 1 47 12
M  V30 52 1 13 48 CFG=3
M  V30 53 1 15 49 CFG=1
M  V30 54 1 16 50 CFG=3
M  V30 55 1 51 18
M  V30 56 1 52 18
M  V30 57 1 53 19
M  V30 58 1 54 19
M  V30 59 1 20 55 CFG=1
M  V30 60 1 56 21
M  V30 61 1 57 22
M  V30 62 1 58 22
M  V30 63 1 59 24
M  V30 64 1 60 24
M  V30 65 1 61 29
M  V30 66 1 62 30
M  V30 67 1 63 31
M  V30 68 1 64 31
M  V30 69 1 65 32
M  V30 70 1 66 32
M  V30 71 1 67 32
M  V30 72 1 68 33
M  V30 73 1 69 33
M  V30 74 1 17 70 CFG=3
M  V30 END BOND
M  V30 END CTAB
M  END
>  <i_epik_Tot_Q>  (1) 
1

>  <i_epik_Tot_abs_Q>  (1) 
1

>  <i_i_glide_confnum>  (1) 
153

>  <i_i_glide_lignum>  (1) 
10

>  <i_i_glide_posenum>  (1) 
61

>  <i_i_glide_rotatable_bonds>  (1) 
11

>  <i_lp_mmshare_version>  (1) 
72125

>  <i_m_source_file_index>  (1) 
1

>  <i_f3d_flags>  (1) 
0

>  <num_sample>  (1) 
50

>  <b_lp_Chiralities_Consistent>  (1) 
1

>  <r_epik_Charging_Adjusted_Penalty>  (1) 
0.41344222577729461

>  <r_epik_Ionization_Penalty>  (1) 
0.0027644559619576371

>  <r_epik_Ionization_Penalty_Charging>  (1) 
0.0027623868246906495

>  <r_epik_Ionization_Penalty_Neutral>  (1) 
2.0691372669875143e-06

>  <r_epik_State_Penalty>  (1) 
0.41067983895260396

>  <r_glide_ring_energy>  (1) 
1.7272227408313714

>  <r_i_docking_score>  (1) 
-3.9972960041575178

>  <r_i_glide_ecoul>  (1) 
-1.6804566886472987

>  <r_i_glide_eff_state_penalty>  (1) 
0.41067983895260396

>  <r_i_glide_einternal>  (1) 
3.1339326899811657

>  <r_i_glide_emodel>  (1) 
-37.512051485290989

>  <r_i_glide_emodel_strain>  (1) 
2.1620911634020246

>  <r_i_glide_energy>  (1) 
-31.780664992819325

>  <r_i_glide_erotb>  (1) 
0.74142510397790429

>  <r_i_glide_esite>  (1) 
-0.10000000000000001

>  <r_i_glide_evdw>  (1) 
-30.100208304172028

>  <r_i_glide_gscore>  (1) 
-4.4079758431101217

>  <r_i_glide_gscore_strain>  (1) 
0

>  <r_i_glide_hbond>  (1) 
-0.27817943438969833

>  <r_i_glide_ligand_efficiency>  (1) 
-0.12113018194416721

>  <r_i_glide_ligand_efficiency_ln>  (1) 
-0.88897793443359618

>  <r_i_glide_ligand_efficiency_sa>  (1) 
-0.38852921698455695

>  <r_i_glide_lipo>  (1) 
-2.0377819927866194

>  <r_i_glide_metal>  (1) 
-0

>  <r_i_glide_rewards>  (1) 
-0.97636060140601155

>  <r_lp_Energy>  (1) 
42.684458999999997

>  <r_lp_tautomer_probability>  (1) 
0.5

>  <s_epik_Chemistry_Notes>  (1) 
This compound has an imine and may undergo hydrolysis. This compound contains an acetal/aminal-like group ( X-CH(R)-Y where X, Y are N, S, or O) that may be acid/base labile, releasing an aldehyde.

>  <s_epik_cmdline>  (1) 
J2VwaWtfcHl0aG9uJywgJy1waHQnLCAnMS4wJywgJy1waCcsICc3LjQnLCAnLXRuJywgJzgnLCAnLW1hJywgJzUwMCcsICctaW1hZScsICc8aW5maWxlLm1hZT4nLCAnLW9tYWUnLCAnPG91dGZpbGUubWFlPic=

>  <s_epik_input>  (1) 
W0NIMl0xW0NIMl1bQ0gyXVtDSDJdW0NASF0oRilbQ0BIXTFbQ0gyXVtDSDJdTy9bQ0hdPVtDSF0vTihbQ0BIXTJPW0NIMl1bQ0gyXVtPSF0pW0NIMl1bQ0gyXU4zW0NAQEhdMltDSDJdW0NAQEhdKFtDQEBIXTM0KVtDQEBIXTRjNW5jKG9uNSlbTkhdW0NIM10=

>  <s_glide_docking_method>  (1) 
confgen

>  <s_i_glide_gridfile>  (1) 
gpcr_drd2_6luq_protein_autoprepared_prepared

>  <s_lp_Force_Field>  (1) 
S-OPLS

>  <s_lp_Variant>  (1) 
DiffSBDD_0-10

>  <s_m_source_file>  (1) 
generated_generic_title2_ligand_DiffSBDD_2026-06-23_prepared.sdf

>  <GenAI_Model>  (1) 
DiffSBDD

>  <Protein>  (1) 
generic_title2

$$$$
DiffSBDD_0
     RDKit          3D

  0  0  0  0  0  0  0  0  0  0999 V3000
M  V30 BEGIN CTAB
M  V30 COUNTS 70 74 0 0 1
M  V30 BEGIN ATOM
M  V30 1 C 10.864420 6.071677 -6.853492 0
M  V30 2 N 7.818283 4.569485 -13.701720 0
M  V30 3 C 7.604829 5.306141 -17.830714 0 CFG=1
M  V30 4 C 9.320264 5.284813 -11.886506 0
M  V30 5 F 9.749877 8.790227 -6.869388 0
M  V30 6 C 7.271549 5.892107 -14.026181 0
M  V30 7 C 9.978149 5.490505 -7.971121 0
M  V30 8 C 9.798376 7.590232 -11.628489 0
M  V30 9 C 9.734395 7.820900 -9.016945 0 CFG=1
M  V30 10 C 10.091521 4.578756 -18.259013 0
M  V30 11 C 7.404854 3.509601 -14.616196 0 CFG=1
M  V30 12 C 7.177228 0.205361 -13.035044 0
M  V30 13 C 8.685340 4.754066 -18.753366 0 CFG=1
M  V30 14 O 8.831056 6.558868 -11.795456 0
M  V30 15 C 10.561215 8.391791 -7.849607 0 CFG=2
M  V30 16 C 7.515618 3.886628 -18.296425 0 CFG=1
M  V30 17 N 7.901369 5.251306 -16.374799 0 CFG=2 CHG=1
M  V30 18 C 10.580426 7.640374 -10.296603 0
M  V30 19 C 6.762116 1.638429 -13.363424 0
M  V30 20 C 8.076186 3.827142 -15.963224 0 CFG=2
M  V30 21 O 6.175404 -0.409773 -12.255670 0
M  V30 22 C 9.024168 6.529977 -8.546674 0
M  V30 23 N 10.776550 3.404399 -18.373374 0
M  V30 24 C 6.938639 6.017423 -15.534494 0
M  V30 25 N 10.739633 5.578001 -17.657335 0
M  V30 26 O 11.974116 5.012699 -17.300063 0
M  V30 27 C 11.896530 3.748709 -17.760390 0
M  V30 28 O 7.728854 2.213675 -14.231870 0
M  V30 29 N 13.016164 2.970677 -17.516083 0
M  V30 30 C 8.840080 4.371381 -12.759276 0
M  V30 31 C 11.548586 7.382311 -7.267129 0
M  V30 32 C 14.263635 3.272681 -16.838377 0
M  V30 33 C 7.570741 2.952624 -17.114434 0
M  V30 34 H 10.248711 6.252454 -5.970826 0
M  V30 35 H 11.628071 5.351007 -6.560035 0
M  V30 36 H 6.893657 6.054409 -18.177359 0
M  V30 37 H 10.115086 5.093746 -11.184998 0
M  V30 38 H 6.407749 6.121268 -13.400761 0
M  V30 39 H 8.018413 6.660816 -13.847822 0
M  V30 40 H 9.375408 4.670995 -7.585047 0
M  V30 41 H 10.575411 5.074482 -8.772293 0
M  V30 42 H 10.507524 7.532681 -12.454670 0
M  V30 43 H 9.270387 8.535067 -11.760364 0
M  V30 44 H 8.975413 8.567874 -9.250419 0
M  V30 45 H 6.319891 3.577544 -14.717846 0
M  V30 46 H 8.118130 0.203320 -12.485498 0
M  V30 47 H 7.327132 -0.373876 -13.947271 0
M  V30 48 H 8.686046 5.095317 -19.786437 0
M  V30 49 H 11.111638 9.272590 -8.170682 0
M  V30 50 H 6.781446 3.635926 -19.059636 0
M  V30 51 H 11.243164 6.790228 -10.195807 0
M  V30 52 H 11.253946 8.493812 -10.377894 0
M  V30 53 H 5.783612 1.626085 -13.846522 0
M  V30 54 H 6.669169 2.226874 -12.448964 0
M  V30 55 H 9.147118 3.668912 -15.846912 0
M  V30 56 H 5.729149 -1.070285 -12.784433 0
M  V30 57 H 8.320890 6.782280 -7.756608 0
M  V30 58 H 8.435057 6.080009 -9.344223 0
M  V30 59 H 5.933472 5.634968 -15.720810 0
M  V30 60 H 6.925965 7.066921 -15.828206 0
M  V30 61 H 12.951859 2.021917 -17.854088 0
M  V30 62 H 9.247808 3.371307 -12.781454 0
M  V30 63 H 12.030879 7.837267 -6.404876 0
M  V30 64 H 12.330599 7.190229 -7.997318 0
M  V30 65 H 14.752561 2.353451 -16.515322 0
M  V30 66 H 14.937032 3.809022 -17.507246 0
M  V30 67 H 14.082859 3.892090 -15.959070 0
M  V30 68 H 6.575412 2.557308 -16.918438 0
M  V30 69 H 8.232063 2.108505 -17.313790 0
M  V30 70 H 8.800943 5.692997 -16.232678 0
M  V30 END ATOM
M  V30 BEGIN BOND
M  V30 1 1 6 2
M  V30 2 1 7 1
M  V30 3 1 11 2
M  V30 4 1 13 3
M  V30 5 1 13 10
M  V30 6 1 14 4
M  V30 7 1 14 8
M  V30 8 1 15 5
M  V30 9 1 15 9
M  V30 10 1 16 3
M  V30 11 1 16 13
M  V30 12 1 17 3
M  V30 13 1 18 8
M  V30 14 1 18 9
M  V30 15 1 19 12
M  V30 16 1 20 11
M  V30 17 1 20 17
M  V30 18 1 21 12
M  V30 19 1 22 7
M  V30 20 1 22 9
M  V30 21 1 23 10
M  V30 22 1 24 6
M  V30 23 1 24 17
M  V30 24 2 25 10
M  V30 25 1 26 25
M  V30 26 2 27 23
M  V30 27 1 27 26
M  V30 28 1 28 11
M  V30 29 1 28 19
M  V30 30 1 29 27
M  V30 31 1 30 2
M  V30 32 2 30 4
M  V30 33 1 31 1
M  V30 34 1 31 15
M  V30 35 1 32 29
M  V30 36 1 33 16
M  V30 37 1 33 20
M  V30 38 1 34 1
M  V30 39 1 35 1
M  V30 40 1 3 36 CFG=3
M  V30 41 1 37 4
M  V30 42 1 38 6
M  V30 43 1 39 6
M  V30 44 1 40 7
M  V30 45 1 41 7
M  V30 46 1 42 8
M  V30 47 1 43 8
M  V30 48 1 9 44 CFG=3
M  V30 49 1 11 45 CFG=3
M  V30 50 1 46 12
M  V30 51 1 47 12
M  V30 52 1 13 48 CFG=3
M  V30 53 1 15 49 CFG=3
M  V30 54 1 16 50 CFG=3
M  V30 55 1 51 18
M  V30 56 1 52 18
M  V30 57 1 53 19
M  V30 58 1 54 19
M  V30 59 1 20 55 CFG=1
M  V30 60 1 56 21
M  V30 61 1 57 22
M  V30 62 1 58 22
M  V30 63 1 59 24
M  V30 64 1 60 24
M  V30 65 1 61 29
M  V30 66 1 62 30
M  V30 67 1 63 31
M  V30 68 1 64 31
M  V30 69 1 65 32
M  V30 70 1 66 32
M  V30 71 1 67 32
M  V30 72 1 68 33
M  V30 73 1 69 33
M  V30 74 1 17 70 CFG=3
M  V30 END BOND
M  V30 END CTAB
M  END
>  <i_epik_Tot_Q>  (1) 
1

>  <i_epik_Tot_abs_Q>  (1) 
1

>  <i_i_glide_confnum>  (1) 
37

>  <i_i_glide_lignum>  (1) 
7

>  <i_i_glide_posenum>  (1) 
142

>  <i_i_glide_rotatable_bonds>  (1) 
11

>  <i_lp_mmshare_version>  (1) 
72125

>  <i_m_source_file_index>  (1) 
1

>  <i_f3d_flags>  (1) 
0

>  <num_sample>  (1) 
50

>  <b_lp_Chiralities_Consistent>  (1) 
1

>  <r_epik_Charging_Adjusted_Penalty>  (1) 
0.41344222577729461

>  <r_epik_Ionization_Penalty>  (1) 
0.0027644559619576371

>  <r_epik_Ionization_Penalty_Charging>  (1) 
0.0027623868246906495

>  <r_epik_Ionization_Penalty_Neutral>  (1) 
2.0691372669875143e-06

>  <r_epik_State_Penalty>  (1) 
0.41067983895260396

>  <r_glide_ring_energy>  (1) 
1.2887488819257911

>  <r_i_docking_score>  (1) 
-3.9944479516140183

>  <r_i_glide_ecoul>  (1) 
-2.0288761994505196

>  <r_i_glide_eff_state_penalty>  (1) 
0.41067983895260396

>  <r_i_glide_einternal>  (1) 
8.5265149488798802

>  <r_i_glide_emodel>  (1) 
-36.035701675062526

>  <r_i_glide_emodel_strain>  (1) 
1.1892377633820388

>  <r_i_glide_energy>  (1) 
-33.980253625171379

>  <r_i_glide_erotb>  (1) 
0.74142510397790429

>  <r_i_glide_esite>  (1) 
0

>  <r_i_glide_evdw>  (1) 
-31.951377425720857

>  <r_i_glide_gscore>  (1) 
-4.4051277905666222

>  <r_i_glide_gscore_strain>  (1) 
0

>  <r_i_glide_hbond>  (1) 
-0.16

>  <r_i_glide_ligand_efficiency>  (1) 
-0.12104387732163692

>  <r_i_glide_ligand_efficiency_ln>  (1) 
-0.88834454229434878

>  <r_i_glide_ligand_efficiency_sa>  (1) 
-0.3882523919449537

>  <r_i_glide_lipo>  (1) 
-1.8471384773647945

>  <r_i_glide_metal>  (1) 
-0

>  <r_i_glide_rewards>  (1) 
-1.2375141159761112

>  <r_lp_Energy>  (1) 
39.472059000000002

>  <r_lp_tautomer_probability>  (1) 
0.5

>  <s_epik_Chemistry_Notes>  (1) 
This compound has an imine and may undergo hydrolysis. This compound contains an acetal/aminal-like group ( X-CH(R)-Y where X, Y are N, S, or O) that may be acid/base labile, releasing an aldehyde.

>  <s_epik_cmdline>  (1) 
J2VwaWtfcHl0aG9uJywgJy1waHQnLCAnMS4wJywgJy1waCcsICc3LjQnLCAnLXRuJywgJzgnLCAnLW1hJywgJzUwMCcsICctaW1hZScsICc8aW5maWxlLm1hZT4nLCAnLW9tYWUnLCAnPG91dGZpbGUubWFlPic=

>  <s_epik_input>  (1) 
W0NIMl0xW0NIMl1bQ0gyXVtDSDJdW0NASF0oRilbQ0BIXTFbQ0gyXVtDSDJdTy9bQ0hdPVtDSF1cTihbQ0BIXTJPW0NIMl1bQ0gyXVtPSF0pW0NIMl1bQ0gyXU4zW0NAQEhdMltDSDJdW0NAQEhdKFtDQEBIXTM0KVtDQEBIXTRjNW5jKG9uNSlbTkhdW0NIM10=

>  <s_glide_docking_method>  (1) 
confgen

>  <s_i_glide_gridfile>  (1) 
gpcr_drd2_6luq_protein_autoprepared_prepared

>  <s_lp_Force_Field>  (1) 
S-OPLS

>  <s_lp_Variant>  (1) 
DiffSBDD_0-7

>  <s_m_source_file>  (1) 
generated_generic_title2_ligand_DiffSBDD_2026-06-23_prepared.sdf

>  <GenAI_Model>  (1) 
DiffSBDD

>  <Protein>  (1) 
generic_title2

$$$$
DiffSBDD_26
     RDKit          3D

  0  0  0  0  0  0  0  0  0  0999 V3000
M  V30 BEGIN CTAB
M  V30 COUNTS 76 80 0 0 1
M  V30 BEGIN ATOM
M  V30 1 C 12.602634 7.357311 -2.208665 0
M  V30 2 C 5.388935 7.490759 -19.251369 0
M  V30 3 O 11.775428 10.790188 -6.099799 0
M  V30 4 C 13.285131 8.390152 -1.296569 0
M  V30 5 N 7.838971 5.541368 -13.551923 0
M  V30 6 C 12.975399 5.899174 -1.972910 0
M  V30 7 F 4.571038 8.311526 -19.930052 0
M  V30 8 C 5.663536 6.053812 -15.947899 0
M  V30 9 C 7.395174 5.169584 -11.165890 0 CFG=2
M  V30 10 C 9.570367 4.518653 -11.968821 0
M  V30 11 C 5.094903 7.190408 -17.983863 0
M  V30 12 C 8.289946 3.964552 -16.413682 0
M  V30 13 C 9.236061 5.108537 -13.364054 0
M  V30 14 C 11.771388 8.472589 -5.904551 0 CFG=1
M  V30 15 C 10.608299 7.635207 -8.016726 0
M  V30 16 C 10.841615 6.786999 -4.426032 0
M  V30 17 O 10.963241 9.592049 -6.222820 0
M  V30 18 C 11.324380 9.402212 -3.560159 0
M  V30 19 C 10.389107 7.338105 -11.136611 0
M  V30 20 C 7.445967 3.590628 -15.187605 0
M  V30 21 C 9.451540 6.552527 -10.188224 0 CFG=2
M  V30 22 C 10.067241 6.373166 -8.762979 0
M  V30 23 C 11.690758 8.106339 -4.347142 0 CFG=2
M  V30 24 C 7.437076 6.109758 -19.266045 0
M  V30 25 C 5.721826 5.590190 -14.722357 0
M  V30 26 C 8.865270 5.201694 -10.756306 0 CFG=1
M  V30 27 O 12.848590 7.712525 -3.584974 0
M  V30 28 C 6.858747 4.686301 -14.222157 0 CFG=2
M  V30 29 C 7.089739 5.733782 -17.851008 0
M  V30 30 C 6.168740 6.012300 -11.497576 0
M  V30 31 C 7.390411 6.196202 -12.321581 0 CFG=2
M  V30 32 C 5.926570 6.319304 -17.207871 0
M  V30 33 O 8.432416 5.692409 -19.862892 0
M  V30 34 C 10.137047 6.863121 -5.761262 0
M  V30 35 C 7.897395 4.859326 -17.286190 0
M  V30 36 O 6.519521 6.975210 -19.847273 0
M  V30 37 N 11.152348 7.357808 -6.664887 0
M  V30 38 H 11.545908 7.367054 -1.944531 0
M  V30 39 H 12.035856 10.922501 -6.997365 0
M  V30 40 H 13.561832 7.982052 -0.331157 0
M  V30 41 H 14.175419 8.790343 -1.762413 0
M  V30 42 H 12.636557 9.240924 -1.098044 0
M  V30 43 H 12.975372 5.631620 -0.919178 0
M  V30 44 H 12.228532 5.284907 -2.458477 0
M  V30 45 H 13.929480 5.591096 -2.384984 0
M  V30 46 H 7.117284 4.131494 -11.345822 0
M  V30 47 H 10.640415 4.487475 -11.858643 0
M  V30 48 H 9.274037 3.468557 -11.986776 0
M  V30 49 H 4.205034 7.613550 -17.534977 0
M  V30 50 H 9.167333 3.360161 -16.595600 0
M  V30 51 H 9.856817 5.988605 -13.499975 0
M  V30 52 H 9.579039 4.438444 -14.147079 0
M  V30 53 H 12.754366 8.790211 -6.268731 0
M  V30 54 H 9.797836 8.364197 -7.954853 0
M  V30 55 H 11.396391 8.094468 -8.609953 0
M  V30 56 H 10.233146 6.390444 -3.602501 0
M  V30 57 H 11.558361 5.975709 -4.558651 0
M  V30 58 H 10.575410 10.036362 -4.013806 0
M  V30 59 H 10.975422 9.269120 -2.543442 0
M  V30 60 H 12.232083 9.990205 -3.484882 0
M  V30 61 H 11.296245 6.790729 -11.382430 0
M  V30 62 H 9.899934 7.603339 -12.072101 0
M  V30 63 H 10.696584 8.285502 -10.695513 0
M  V30 64 H 8.043187 2.896262 -14.596738 0
M  V30 65 H 6.620132 2.977929 -15.550613 0
M  V30 66 H 8.584453 7.189492 -10.064906 0
M  V30 67 H 10.862615 5.633639 -8.784636 0
M  V30 68 H 9.280730 5.925394 -8.155271 0
M  V30 69 H 4.974760 5.864555 -13.996595 0
M  V30 70 H 8.940589 4.477348 -9.944855 0
M  V30 71 H 6.387123 4.077832 -13.448581 0
M  V30 72 H 5.859173 6.781253 -10.796744 0
M  V30 73 H 5.324989 5.455110 -11.891715 0
M  V30 74 H 7.800451 7.186044 -12.141028 0
M  V30 75 H 9.296860 7.556758 -5.716151 0
M  V30 76 H 9.753753 5.893174 -6.066822 0
M  V30 END ATOM
M  V30 BEGIN BOND
M  V30 1 1 4 1
M  V30 2 1 6 1
M  V30 3 1 7 2
M  V30 4 2 11 2
M  V30 5 1 13 5
M  V30 6 1 13 10
M  V30 7 1 17 3
M  V30 8 1 17 14
M  V30 9 1 20 12
M  V30 10 1 21 19
M  V30 11 1 22 15
M  V30 12 1 22 21
M  V30 13 1 23 14
M  V30 14 1 23 16
M  V30 15 1 23 18
M  V30 16 2 25 8
M  V30 17 1 26 9
M  V30 18 1 26 10
M  V30 19 1 26 21
M  V30 20 1 27 1
M  V30 21 1 23 27 CFG=1
M  V30 22 1 28 5
M  V30 23 1 28 20
M  V30 24 1 28 25
M  V30 25 1 29 24
M  V30 26 1 30 9
M  V30 27 1 31 5
M  V30 28 1 31 9
M  V30 29 1 31 30
M  V30 30 2 32 8
M  V30 31 1 32 11
M  V30 32 1 32 29
M  V30 33 2 33 24
M  V30 34 1 34 16
M  V30 35 2 35 12
M  V30 36 2 35 29
M  V30 37 1 36 2
M  V30 38 1 36 24
M  V30 39 1 37 14
M  V30 40 1 37 15
M  V30 41 1 37 34
M  V30 42 1 38 1
M  V30 43 1 39 3
M  V30 44 1 40 4
M  V30 45 1 41 4
M  V30 46 1 42 4
M  V30 47 1 43 6
M  V30 48 1 44 6
M  V30 49 1 45 6
M  V30 50 1 9 46 CFG=3
M  V30 51 1 47 10
M  V30 52 1 48 10
M  V30 53 1 49 11
M  V30 54 1 50 12
M  V30 55 1 51 13
M  V30 56 1 52 13
M  V30 57 1 14 53 CFG=3
M  V30 58 1 54 15
M  V30 59 1 55 15
M  V30 60 1 56 16
M  V30 61 1 57 16
M  V30 62 1 58 18
M  V30 63 1 59 18
M  V30 64 1 60 18
M  V30 65 1 61 19
M  V30 66 1 62 19
M  V30 67 1 63 19
M  V30 68 1 64 20
M  V30 69 1 65 20
M  V30 70 1 21 66 CFG=1
M  V30 71 1 67 22
M  V30 72 1 68 22
M  V30 73 1 69 25
M  V30 74 1 26 70 CFG=1
M  V30 75 1 28 71 CFG=1
M  V30 76 1 72 30
M  V30 77 1 73 30
M  V30 78 1 31 74 CFG=1
M  V30 79 1 75 34
M  V30 80 1 76 34
M  V30 END BOND
M  V30 END CTAB
M  END
>  <i_epik_Tot_Q>  (1) 
0

>  <i_epik_Tot_abs_Q>  (1) 
0

>  <i_i_glide_confnum>  (1) 
236

>  <i_i_glide_lignum>  (1) 
76

>  <i_i_glide_posenum>  (1) 
7

>  <i_i_glide_rotatable_bonds>  (1) 
9

>  <i_lp_mmshare_version>  (1) 
72125

>  <i_m_source_file_index>  (1) 
27

>  <i_f3d_flags>  (1) 
0

>  <num_sample>  (1) 
50

>  <b_lp_Chiralities_Consistent>  (1) 
1

>  <r_epik_Charging_Adjusted_Penalty>  (1) 
0

>  <r_epik_Ionization_Penalty>  (1) 
0.071693018493777738

>  <r_epik_Ionization_Penalty_Charging>  (1) 
0

>  <r_epik_Ionization_Penalty_Neutral>  (1) 
0.071693018493777738

>  <r_epik_State_Penalty>  (1) 
-0

>  <r_glide_ring_energy>  (1) 
1.2337109712795384

>  <r_i_docking_score>  (1) 
-3.9807364580042766

>  <r_i_glide_ecoul>  (1) 
-0.66041945984771411

>  <r_i_glide_eff_state_penalty>  (1) 
-0

>  <r_i_glide_einternal>  (1) 
5.670988261139728

>  <r_i_glide_emodel>  (1) 
-28.924369259757974

>  <r_i_glide_emodel_strain>  (1) 
7.5317266565706973

>  <r_i_glide_energy>  (1) 
-32.751136433050775

>  <r_i_glide_erotb>  (1) 
0.54216957858083481

>  <r_i_glide_esite>  (1) 
0

>  <r_i_glide_evdw>  (1) 
-32.090716973203058

>  <r_i_glide_gscore>  (1) 
-3.9807364580042766

>  <r_i_glide_gscore_strain>  (1) 
0.88293166414267432

>  <r_i_glide_hbond>  (1) 
0

>  <r_i_glide_ligand_efficiency>  (1) 
-0.10758747183795342

>  <r_i_glide_ligand_efficiency_ln>  (1) 
-0.86332841603797772

>  <r_i_glide_ligand_efficiency_sa>  (1) 
-0.35850532462177204

>  <r_i_glide_lipo>  (1) 
-3.034559211856537

>  <r_i_glide_metal>  (1) 
-0

>  <r_i_glide_rewards>  (1) 
-0.66767972123393871

>  <r_lp_Energy>  (1) 
45.427697999999999

>  <r_lp_tautomer_probability>  (1) 
1

>  <s_epik_Chemistry_Notes>  (1) 
This compound contains an acetal/aminal-like group ( X-CH(R)-Y where X, Y are N, S, or O) that may be acid/base labile, releasing an aldehyde.

>  <s_epik_cmdline>  (1) 
J2VwaWtfcHl0aG9uJywgJy1waHQnLCAnMS4wJywgJy1waCcsICc3LjQnLCAnLXRuJywgJzgnLCAnLW1hJywgJzUwMCcsICctaW1hZScsICc8aW5maWxlLm1hZT4nLCAnLW9tYWUnLCAnPG91dGZpbGUubWFlPic=

>  <s_epik_input>  (1) 
W0NIM11bQ0hdKFtDSDNdKU9bQ0BAXTEoW0NIM10pW0NASF0oT1tPSF0pTihbQ0gyXVtDSDJdMSlbQ0gyXVtDSDJdW0NAQEhdKFtDSDNdKVtDQEBIXTJbQ0gyXVtDSDJdTihbQ0BIXShbQ0BASF0yMylbQ0gyXTMpW0NASF0oW0NIMl1bQ0hdPUM0KVtDSF09Qz1jKGM9NDUpW2NIXWMoRilvYzU9Tw==

>  <s_glide_docking_method>  (1) 
confgen

>  <s_i_glide_gridfile>  (1) 
gpcr_drd2_6luq_protein_autoprepared_prepared

>  <s_lp_Force_Field>  (1) 
S-OPLS

>  <s_lp_Variant>  (1) 
DiffSBDD_26-1

>  <s_m_source_file>  (1) 
generated_generic_title2_ligand_DiffSBDD_2026-06-23_prepared.sdf

>  <GenAI_Model>  (1) 
DiffSBDD

>  <Protein>  (1) 
generic_title2

$$$$
DiffSBDD_0
     RDKit          3D

  0  0  0  0  0  0  0  0  0  0999 V3000
M  V30 BEGIN CTAB
M  V30 COUNTS 70 74 0 0 1
M  V30 BEGIN ATOM
M  V30 1 C 11.512009 7.512656 -5.752757 0
M  V30 2 N 7.546993 4.257494 -13.852653 0
M  V30 3 C 7.606348 4.433665 -18.097722 0 CFG=1
M  V30 4 C 8.568822 5.486025 -12.007766 0
M  V30 5 F 11.517691 8.863943 -9.202008 0
M  V30 6 C 6.887740 5.421385 -14.460121 0
M  V30 7 C 10.124359 6.891903 -5.781739 0
M  V30 8 C 9.642245 6.785995 -10.351764 0
M  V30 9 C 9.637386 7.979306 -8.031202 0 CFG=1
M  V30 10 C 10.263786 4.365130 -17.981771 0
M  V30 11 C 7.434228 3.007088 -14.628109 0 CFG=1
M  V30 12 C 6.389014 0.200058 -13.498585 0
M  V30 13 C 8.972344 4.101128 -18.696083 0 CFG=1
M  V30 14 O 9.376858 5.501488 -10.907438 0
M  V30 15 C 11.040517 8.612627 -7.983937 0 CFG=1
M  V30 16 C 7.992397 2.992312 -18.348173 0 CFG=1
M  V30 17 N 7.376957 4.429705 -16.631592 0 CFG=1 CHG=1
M  V30 18 C 9.534333 6.654557 -8.830553 0
M  V30 19 C 7.362697 1.275641 -13.009061 0
M  V30 20 C 8.082106 3.309339 -15.991007 0 CFG=2
M  V30 21 O 5.775153 -0.409769 -12.386276 0
M  V30 22 C 9.157751 7.773101 -6.580588 0
M  V30 23 N 11.227922 3.413806 -17.822548 0
M  V30 24 C 7.471269 5.684933 -15.863994 0
M  V30 25 N 10.548503 5.572632 -17.493255 0
M  V30 26 O 11.841503 5.427685 -16.963715 0
M  V30 27 C 12.149039 4.141876 -17.212125 0
M  V30 28 O 8.065928 1.894834 -14.079269 0
M  V30 29 N 13.406662 3.755865 -16.785157 0
M  V30 30 C 8.357096 4.363436 -12.717780 0
M  V30 31 C 12.025431 7.767892 -7.184999 0
M  V30 32 C 14.080150 2.473405 -16.845399 0
M  V30 33 C 8.023082 2.207717 -17.044365 0
M  V30 34 H 11.489402 8.447487 -5.191329 0
M  V30 35 H 12.169370 6.829977 -5.208688 0
M  V30 36 H 6.812894 4.878721 -18.694482 0
M  V30 37 H 8.137398 6.451354 -12.225786 0
M  V30 38 H 5.821995 5.200193 -14.538107 0
M  V30 39 H 6.953444 6.327230 -13.864072 0
M  V30 40 H 9.775898 6.739164 -4.765479 0
M  V30 41 H 10.176259 5.900635 -6.224894 0
M  V30 42 H 10.649506 7.076542 -10.645797 0
M  V30 43 H 8.975273 7.574635 -10.700747 0
M  V30 44 H 8.975438 8.705420 -8.499045 0
M  V30 45 H 6.374184 2.783536 -14.744781 0
M  V30 46 H 6.923406 -0.563113 -14.064878 0
M  V30 47 H 5.620791 0.616095 -14.149824 0
M  V30 48 H 9.103257 4.322733 -19.753906 0
M  V30 49 H 10.985985 9.575989 -7.478949 0
M  V30 50 H 7.550971 2.474518 -19.197629 0
M  V30 51 H 8.564018 6.207354 -8.617320 0
M  V30 52 H 10.265978 5.926104 -8.485858 0
M  V30 53 H 6.845395 2.006254 -12.385046 0
M  V30 54 H 8.115009 0.799483 -12.384745 0
M  V30 55 H 9.116270 3.592819 -15.810840 0
M  V30 56 H 5.403753 -1.246565 -12.696217 0
M  V30 57 H 9.052851 8.739199 -6.088840 0
M  V30 58 H 8.175665 7.316202 -6.560318 0
M  V30 59 H 6.922105 6.480738 -16.366859 0
M  V30 60 H 8.514050 5.990495 -15.779023 0
M  V30 61 H 13.942116 4.483175 -16.334324 0
M  V30 62 H 8.828496 3.433035 -12.434837 0
M  V30 63 H 12.975224 8.300032 -7.185005 0
M  V30 64 H 12.174698 6.809232 -7.672418 0
M  V30 65 H 14.955983 2.462150 -16.196124 0
M  V30 66 H 13.401784 1.682908 -16.522382 0
M  V30 67 H 14.392186 2.255586 -17.865521 0
M  V30 68 H 7.107149 1.620805 -16.960068 0
M  V30 69 H 8.882117 1.536596 -16.999895 0
M  V30 70 H 6.405093 4.171077 -16.554604 0
M  V30 END ATOM
M  V30 BEGIN BOND
M  V30 1 1 6 2
M  V30 2 1 7 1
M  V30 3 1 11 2
M  V30 4 1 13 3
M  V30 5 1 13 10
M  V30 6 1 14 4
M  V30 7 1 14 8
M  V30 8 1 15 5
M  V30 9 1 15 9
M  V30 10 1 16 3
M  V30 11 1 16 13
M  V30 12 1 17 3
M  V30 13 1 18 8
M  V30 14 1 18 9
M  V30 15 1 19 12
M  V30 16 1 20 11
M  V30 17 1 20 17
M  V30 18 1 21 12
M  V30 19 1 22 7
M  V30 20 1 22 9
M  V30 21 1 23 10
M  V30 22 1 24 6
M  V30 23 1 24 17
M  V30 24 2 25 10
M  V30 25 1 26 25
M  V30 26 2 27 23
M  V30 27 1 27 26
M  V30 28 1 28 11
M  V30 29 1 28 19
M  V30 30 1 29 27
M  V30 31 1 30 2
M  V30 32 2 30 4
M  V30 33 1 31 1
M  V30 34 1 31 15
M  V30 35 1 32 29
M  V30 36 1 33 16
M  V30 37 1 33 20
M  V30 38 1 34 1
M  V30 39 1 35 1
M  V30 40 1 3 36 CFG=3
M  V30 41 1 37 4
M  V30 42 1 38 6
M  V30 43 1 39 6
M  V30 44 1 40 7
M  V30 45 1 41 7
M  V30 46 1 42 8
M  V30 47 1 43 8
M  V30 48 1 9 44 CFG=3
M  V30 49 1 11 45 CFG=3
M  V30 50 1 46 12
M  V30 51 1 47 12
M  V30 52 1 13 48 CFG=3
M  V30 53 1 15 49 CFG=1
M  V30 54 1 16 50 CFG=3
M  V30 55 1 51 18
M  V30 56 1 52 18
M  V30 57 1 53 19
M  V30 58 1 54 19
M  V30 59 1 20 55 CFG=1
M  V30 60 1 56 21
M  V30 61 1 57 22
M  V30 62 1 58 22
M  V30 63 1 59 24
M  V30 64 1 60 24
M  V30 65 1 61 29
M  V30 66 1 62 30
M  V30 67 1 63 31
M  V30 68 1 64 31
M  V30 69 1 65 32
M  V30 70 1 66 32
M  V30 71 1 67 32
M  V30 72 1 68 33
M  V30 73 1 69 33
M  V30 74 1 17 70 CFG=3
M  V30 END BOND
M  V30 END CTAB
M  END
>  <i_epik_Tot_Q>  (1) 
1

>  <i_epik_Tot_abs_Q>  (1) 
1

>  <i_i_glide_confnum>  (1) 
133

>  <i_i_glide_lignum>  (1) 
14

>  <i_i_glide_posenum>  (1) 
137

>  <i_i_glide_rotatable_bonds>  (1) 
11

>  <i_lp_mmshare_version>  (1) 
72125

>  <i_m_source_file_index>  (1) 
1

>  <i_f3d_flags>  (1) 
0

>  <num_sample>  (1) 
50

>  <b_lp_Chiralities_Consistent>  (1) 
1

>  <r_epik_Charging_Adjusted_Penalty>  (1) 
0.41344222577729461

>  <r_epik_Ionization_Penalty>  (1) 
0.0027644559619576371

>  <r_epik_Ionization_Penalty_Charging>  (1) 
0.0027623868246906495

>  <r_epik_Ionization_Penalty_Neutral>  (1) 
2.0691372669875143e-06

>  <r_epik_State_Penalty>  (1) 
0.41067983895260396

>  <r_glide_ring_energy>  (1) 
1.7272227408313596

>  <r_i_docking_score>  (1) 
-3.9582026218838027

>  <r_i_glide_ecoul>  (1) 
-3.4430512344147957

>  <r_i_glide_eff_state_penalty>  (1) 
0.41067983895260396

>  <r_i_glide_einternal>  (1) 
9.466100461388109

>  <r_i_glide_emodel>  (1) 
-36.60308882674537

>  <r_i_glide_emodel_strain>  (1) 
0.089742356688475411

>  <r_i_glide_energy>  (1) 
-32.573380401494816

>  <r_i_glide_erotb>  (1) 
0.74142510397790429

>  <r_i_glide_esite>  (1) 
0

>  <r_i_glide_evdw>  (1) 
-29.130329167080024

>  <r_i_glide_gscore>  (1) 
-4.3688824608364065

>  <r_i_glide_gscore_strain>  (1) 
0

>  <r_i_glide_hbond>  (1) 
-0.16

>  <r_i_glide_ligand_efficiency>  (1) 
-0.11994553399647886

>  <r_i_glide_ligand_efficiency_ln>  (1) 
-0.88028376863062241

>  <r_i_glide_ligand_efficiency_sa>  (1) 
-0.3847294180233875

>  <r_i_glide_lipo>  (1) 
-1.5948736637561469

>  <r_i_glide_metal>  (1) 
-0

>  <r_i_glide_rewards>  (1) 
-1.3824597575419431

>  <r_lp_Energy>  (1) 
49.633499

>  <r_lp_tautomer_probability>  (1) 
0.5

>  <s_epik_Chemistry_Notes>  (1) 
This compound has an imine and may undergo hydrolysis. This compound contains an acetal/aminal-like group ( X-CH(R)-Y where X, Y are N, S, or O) that may be acid/base labile, releasing an aldehyde.

>  <s_epik_cmdline>  (1) 
J2VwaWtfcHl0aG9uJywgJy1waHQnLCAnMS4wJywgJy1waCcsICc3LjQnLCAnLXRuJywgJzgnLCAnLW1hJywgJzUwMCcsICctaW1hZScsICc8aW5maWxlLm1hZT4nLCAnLW9tYWUnLCAnPG91dGZpbGUubWFlPic=

>  <s_epik_input>  (1) 
W0NIMl0xW0NIMl1bQ0gyXVtDSDJdW0NASF0oRilbQ0BIXTFbQ0gyXVtDSDJdTy9bQ0hdPVtDSF0vTihbQ0BIXTJPW0NIMl1bQ0gyXVtPSF0pW0NIMl1bQ0gyXU4zW0NAQEhdMltDSDJdW0NAQEhdKFtDQEBIXTM0KVtDQEBIXTRjNW5jKG9uNSlbTkhdW0NIM10=

>  <s_glide_docking_method>  (1) 
confgen

>  <s_i_glide_gridfile>  (1) 
gpcr_drd2_6luq_protein_autoprepared_prepared

>  <s_lp_Force_Field>  (1) 
S-OPLS

>  <s_lp_Variant>  (1) 
DiffSBDD_0-14

>  <s_m_source_file>  (1) 
generated_generic_title2_ligand_DiffSBDD_2026-06-23_prepared.sdf

>  <GenAI_Model>  (1) 
DiffSBDD

>  <Protein>  (1) 
generic_title2

$$$$
DiffSBDD_11
     RDKit          3D

  0  0  0  0  0  0  0  0  0  0999 V3000
M  V30 BEGIN CTAB
M  V30 COUNTS 45 46 0 0 1
M  V30 BEGIN ATOM
M  V30 1 N 7.821383 5.550326 -14.373143 0
M  V30 2 O 9.375409 8.638123 -8.468803 0
M  V30 3 C 7.738722 4.491952 -16.183211 0
M  V30 4 C 12.226200 8.059299 -8.042651 0
M  V30 5 O 7.725527 6.933072 -12.516898 0
M  V30 6 N 8.285380 4.436963 -14.982652 0
M  V30 7 C 6.175904 5.990211 -17.563956 0
M  V30 8 N 7.965949 3.517569 -17.151730 0
M  V30 9 C 6.975933 6.297334 -15.208131 0
M  V30 10 C 8.186982 5.903957 -13.004227 0
M  V30 11 C 6.903157 5.628667 -16.400446 0
M  V30 12 C 11.785647 8.832569 -6.817120 0
M  V30 13 C 9.647818 7.505676 -7.676948 0 CFG=1
M  V30 14 C 9.245416 6.230539 -8.465188 0
M  V30 15 C 10.859151 6.484026 -4.956822 0
M  V30 16 C 9.144031 4.975702 -12.226349 0
M  V30 17 C 9.512289 6.259793 -9.983670 0
M  V30 18 C 6.328613 7.587367 -14.786436 0
M  V30 19 N 11.375431 6.390225 -6.318478 0
M  V30 20 N 5.581001 6.286506 -18.511074 0
M  V30 21 C 11.095901 7.533853 -7.182331 0
M  V30 22 C 8.976236 4.999100 -10.690114 0
M  V30 23 H 8.497896 8.499678 -8.833451 0
M  V30 24 H 13.203900 7.590235 -7.985021 0
M  V30 25 H 11.976195 8.480961 -9.014298 0
M  V30 26 H 7.544893 3.573198 -18.067576 0
M  V30 27 H 8.565180 2.725865 -16.969757 0
M  V30 28 H 11.258636 9.765344 -6.975331 0
M  V30 29 H 12.449478 8.838799 -5.956847 0
M  V30 30 H 8.996326 7.580575 -6.805554 0
M  V30 31 H 9.705227 5.345040 -8.026897 0
M  V30 32 H 8.175481 6.079181 -8.325893 0
M  V30 33 H 11.123872 5.594757 -4.385156 0
M  V30 34 H 11.268823 7.347877 -4.433335 0
M  V30 35 H 9.775406 6.560916 -4.949253 0
M  V30 36 H 10.172441 5.220364 -12.497150 0
M  V30 37 H 8.980089 3.949323 -12.554776 0
M  V30 38 H 9.026605 7.132456 -10.414459 0
M  V30 39 H 10.575341 6.390634 -10.169987 0
M  V30 40 H 5.685767 7.982957 -15.572654 0
M  V30 41 H 5.701501 7.457177 -13.903738 0
M  V30 42 H 7.088162 8.344644 -14.590831 0
M  V30 43 H 12.374703 6.217299 -6.293323 0
M  V30 44 H 9.481508 4.126544 -10.275196 0
M  V30 45 H 7.920297 4.872277 -10.444667 0
M  V30 END ATOM
M  V30 BEGIN BOND
M  V30 1 1 6 1
M  V30 2 2 6 3
M  V30 3 1 8 3
M  V30 4 1 9 1
M  V30 5 1 10 1
M  V30 6 2 10 5
M  V30 7 1 11 3
M  V30 8 1 11 7
M  V30 9 2 11 9
M  V30 10 1 12 4
M  V30 11 1 13 2
M  V30 12 1 14 13
M  V30 13 1 16 10
M  V30 14 1 17 14
M  V30 15 1 18 9
M  V30 16 1 19 15
M  V30 17 3 20 7
M  V30 18 1 21 4
M  V30 19 1 21 12
M  V30 20 1 21 13
M  V30 21 1 21 19
M  V30 22 1 22 16
M  V30 23 1 22 17
M  V30 24 1 23 2
M  V30 25 1 24 4
M  V30 26 1 25 4
M  V30 27 1 26 8
M  V30 28 1 27 8
M  V30 29 1 28 12
M  V30 30 1 29 12
M  V30 31 1 13 30 CFG=1
M  V30 32 1 31 14
M  V30 33 1 32 14
M  V30 34 1 33 15
M  V30 35 1 34 15
M  V30 36 1 35 15
M  V30 37 1 36 16
M  V30 38 1 37 16
M  V30 39 1 38 17
M  V30 40 1 39 17
M  V30 41 1 40 18
M  V30 42 1 41 18
M  V30 43 1 42 18
M  V30 44 1 43 19
M  V30 45 1 44 22
M  V30 46 1 45 22
M  V30 END BOND
M  V30 END CTAB
M  END
>  <i_epik_Tot_Q>  (1) 
0

>  <i_epik_Tot_abs_Q>  (1) 
0

>  <i_i_glide_confnum>  (1) 
210

>  <i_i_glide_lignum>  (1) 
47

>  <i_i_glide_posenum>  (1) 
261

>  <i_i_glide_rotatable_bonds>  (1) 
9

>  <i_lp_mmshare_version>  (1) 
72125

>  <i_m_source_file_index>  (1) 
12

>  <i_f3d_flags>  (1) 
0

>  <num_sample>  (1) 
50

>  <b_lp_Chiralities_Consistent>  (1) 
1

>  <r_epik_Charging_Adjusted_Penalty>  (1) 
0.42979424815249201

>  <r_epik_Ionization_Penalty>  (1) 
0.43485796908512792

>  <r_epik_Ionization_Penalty_Charging>  (1) 
0

>  <r_epik_Ionization_Penalty_Neutral>  (1) 
0.43485796908512792

>  <r_epik_State_Penalty>  (1) 
0.42979424815249201

>  <r_glide_ring_energy>  (1) 
0

>  <r_i_docking_score>  (1) 
-3.9504056470543394

>  <r_i_glide_ecoul>  (1) 
-3.0741698640751491

>  <r_i_glide_eff_state_penalty>  (1) 
0.42979424815249201

>  <r_i_glide_einternal>  (1) 
6.0924846550244123

>  <r_i_glide_emodel>  (1) 
-38.484244355585176

>  <r_i_glide_emodel_strain>  (1) 
0.76910799980620936

>  <r_i_glide_energy>  (1) 
-32.94901011522601

>  <r_i_glide_erotb>  (1) 
1.3853326947408005

>  <r_i_glide_esite>  (1) 
0

>  <r_i_glide_evdw>  (1) 
-29.874840251150861

>  <r_i_glide_gscore>  (1) 
-4.3801998952068315

>  <r_i_glide_gscore_strain>  (1) 
0

>  <r_i_glide_hbond>  (1) 
-0.16

>  <r_i_glide_ligand_efficiency>  (1) 
-0.17956389304792453

>  <r_i_glide_ligand_efficiency_ln>  (1) 
-0.96562323468715694

>  <r_i_glide_ligand_efficiency_sa>  (1) 
-0.50314509068588198

>  <r_i_glide_lipo>  (1) 
-1.747232019330442

>  <r_i_glide_metal>  (1) 
-0

>  <r_i_glide_rewards>  (1) 
-1.9034330784483746

>  <r_lp_Energy>  (1) 
19.305067999999999

>  <s_epik_cmdline>  (1) 
J2VwaWtfcHl0aG9uJywgJy1waHQnLCAnMS4wJywgJy1waCcsICc3LjQnLCAnLXRuJywgJzgnLCAnLW1hJywgJzUwMCcsICctaW1hZScsICc8aW5maWxlLm1hZT4nLCAnLW9tYWUnLCAnPG91dGZpbGUubWFlPic=

>  <s_epik_input>  (1) 
W0NIM11jMWMoQyNOKWMoW05IMl0pbm4xQyg9TylbQ0gyXVtDSDJdW0NIMl1bQ0gyXVtDQEhdKFtPSF0pQzIoW0NIMl1bQ0gyXTIpW05IXVtDSDNd

>  <s_glide_docking_method>  (1) 
confgen

>  <s_i_glide_gridfile>  (1) 
gpcr_drd2_6luq_protein_autoprepared_prepared

>  <s_lp_Force_Field>  (1) 
S-OPLS

>  <s_lp_Variant>  (1) 
DiffSBDD_11-2

>  <s_m_source_file>  (1) 
generated_generic_title2_ligand_DiffSBDD_2026-06-23_prepared.sdf

>  <GenAI_Model>  (1) 
DiffSBDD

>  <Protein>  (1) 
generic_title2

$$$$
DiffSBDD_18
     RDKit          3D

  0  0  0  0  0  0  0  0  0  0999 V3000
M  V30 BEGIN CTAB
M  V30 COUNTS 61 65 0 0 1
M  V30 BEGIN ATOM
M  V30 1 C 7.506523 7.181064 -21.058594 0
M  V30 2 C 6.312994 1.983529 -18.585581 0
M  V30 3 C 10.423862 5.745266 -18.745114 0 CFG=1
M  V30 4 C 9.740935 6.547126 -19.895329 0 CFG=2
M  V30 5 C 7.307189 4.753646 -15.420593 0 CFG=2
M  V30 6 C 8.575375 5.507454 -15.001619 0
M  V30 7 C 7.234204 3.226240 -18.634335 0 CFG=1
M  V30 8 C 8.230713 6.198800 -20.111008 0 CFG=1
M  V30 9 C 12.585092 7.145609 -19.065467 0
M  V30 10 O 8.175403 2.476737 -15.098616 0
M  V30 11 O 7.897450 2.957831 -19.854502 0
M  V30 12 C 11.695606 7.512020 -21.271471 0
M  V30 13 O 8.853924 2.414753 -12.785014 0
M  V30 14 S 6.200900 4.731033 -18.785028 0
M  V30 15 C 6.374491 4.643194 -14.206805 0
M  V30 16 C 7.404550 6.098073 -18.800060 0
M  V30 17 C 10.571182 6.461164 -21.200468 0
M  V30 18 O 10.046363 4.370721 -18.797753 0
M  V30 19 C 6.448771 2.119906 -13.311152 0
M  V30 20 O 12.822948 7.206755 -20.463814 0
M  V30 21 C 11.963479 5.790117 -18.699370 0
M  V30 22 C 9.675095 3.812979 -17.540276 0 CFG=2
M  V30 23 C 7.820902 2.556923 -13.715716 0 CFG=2
M  V30 24 C 9.458135 2.331773 -17.585748 0
M  V30 25 C 8.245098 3.261148 -17.432910 0 CFG=2
M  V30 26 C 7.543308 3.339936 -16.038500 0 CFG=2
M  V30 27 C 6.838949 3.596029 -13.227502 0 CFG=1
M  V30 28 H 7.585889 8.209379 -20.705721 0
M  V30 29 H 7.885869 7.149661 -22.077677 0
M  V30 30 H 6.444928 6.939969 -21.124614 0
M  V30 31 H 6.889799 1.061848 -18.490083 0
M  V30 32 H 5.601618 1.990242 -17.765047 0
M  V30 33 H 5.711493 1.899266 -19.492943 0
M  V30 34 H 10.096732 6.202151 -17.813425 0
M  V30 35 H 9.749595 7.590214 -19.582695 0
M  V30 36 H 6.779401 5.378985 -16.135207 0
M  V30 37 H 9.238829 4.894389 -14.390891 0
M  V30 38 H 9.139330 5.867300 -15.854892 0
M  V30 39 H 8.314294 6.390333 -14.417838 0
M  V30 40 H 8.214709 5.236160 -20.612298 0
M  V30 41 H 11.994424 7.990106 -18.708405 0
M  V30 42 H 13.558745 7.224101 -18.581392 0
M  V30 43 H 8.126492 2.042473 -19.878144 0
M  V30 44 H 11.319608 8.507401 -21.032107 0
M  V30 45 H 12.056062 7.568034 -22.298809 0
M  V30 46 H 8.972616 1.502553 -12.562570 0
M  V30 47 H 6.282208 5.600724 -13.692456 0
M  V30 48 H 5.375412 4.390204 -14.524257 0
M  V30 49 H 8.016097 5.988019 -17.916778 0
M  V30 50 H 6.857948 7.025849 -18.630306 0
M  V30 51 H 9.941085 6.630220 -22.069057 0
M  V30 52 H 10.970157 5.455507 -21.340270 0
M  V30 53 H 5.775419 1.797803 -14.098410 0
M  V30 54 H 6.351247 1.567475 -12.380339 0
M  V30 55 H 12.276833 5.516664 -17.690965 0
M  V30 56 H 12.383399 5.021604 -19.350128 0
M  V30 57 H 10.261053 4.150477 -16.687876 0
M  V30 58 H 9.787262 1.755454 -16.727589 0
M  V30 59 H 9.664128 1.843342 -18.534566 0
M  V30 60 H 6.575415 2.879389 -16.139291 0
M  V30 61 H 6.979828 3.979775 -12.217466 0
M  V30 END ATOM
M  V30 BEGIN BOND
M  V30 1 1 4 3
M  V30 2 1 6 5
M  V30 3 1 7 2
M  V30 4 1 8 1
M  V30 5 1 8 4
M  V30 6 1 7 11 CFG=3
M  V30 7 1 14 7
M  V30 8 1 15 5
M  V30 9 1 16 8
M  V30 10 1 16 14
M  V30 11 1 17 4
M  V30 12 1 17 12
M  V30 13 1 18 3
M  V30 14 1 20 9
M  V30 15 1 20 12
M  V30 16 1 21 3
M  V30 17 1 21 9
M  V30 18 1 22 18
M  V30 19 1 23 10
M  V30 20 1 23 13 CFG=1
M  V30 21 1 23 19
M  V30 22 1 24 22
M  V30 23 1 25 7
M  V30 24 1 25 22
M  V30 25 1 25 24 CFG=1
M  V30 26 1 26 5
M  V30 27 1 26 10
M  V30 28 1 26 25
M  V30 29 1 27 15
M  V30 30 1 27 19
M  V30 31 1 27 23
M  V30 32 1 28 1
M  V30 33 1 29 1
M  V30 34 1 30 1
M  V30 35 1 31 2
M  V30 36 1 32 2
M  V30 37 1 33 2
M  V30 38 1 3 34 CFG=1
M  V30 39 1 4 35 CFG=1
M  V30 40 1 5 36 CFG=3
M  V30 41 1 37 6
M  V30 42 1 38 6
M  V30 43 1 39 6
M  V30 44 1 8 40 CFG=3
M  V30 45 1 41 9
M  V30 46 1 42 9
M  V30 47 1 43 11
M  V30 48 1 44 12
M  V30 49 1 45 12
M  V30 50 1 46 13
M  V30 51 1 47 15
M  V30 52 1 48 15
M  V30 53 1 49 16
M  V30 54 1 50 16
M  V30 55 1 51 17
M  V30 56 1 52 17
M  V30 57 1 53 19
M  V30 58 1 54 19
M  V30 59 1 55 21
M  V30 60 1 56 21
M  V30 61 1 22 57 CFG=1
M  V30 62 1 58 24
M  V30 63 1 59 24
M  V30 64 1 26 60 CFG=3
M  V30 65 1 27 61 CFG=1
M  V30 END BOND
M  V30 END CTAB
M  END
>  <i_epik_Tot_Q>  (1) 
0

>  <i_epik_Tot_abs_Q>  (1) 
0

>  <i_i_glide_confnum>  (1) 
2

>  <i_i_glide_lignum>  (1) 
62

>  <i_i_glide_posenum>  (1) 
323

>  <i_i_glide_rotatable_bonds>  (1) 
3

>  <i_lp_mmshare_version>  (1) 
72125

>  <i_m_source_file_index>  (1) 
19

>  <i_f3d_flags>  (1) 
0

>  <num_sample>  (1) 
50

>  <b_lp_Chiralities_Consistent>  (1) 
1

>  <r_epik_Charging_Adjusted_Penalty>  (1) 
0

>  <r_epik_Ionization_Penalty>  (1) 
6.7783705848961877e-07

>  <r_epik_Ionization_Penalty_Charging>  (1) 
0

>  <r_epik_Ionization_Penalty_Neutral>  (1) 
6.7783705848961877e-07

>  <r_epik_State_Penalty>  (1) 
-0

>  <r_glide_ring_energy>  (1) 
0

>  <r_i_docking_score>  (1) 
-3.948699681807939

>  <r_i_glide_ecoul>  (1) 
-1.9582543080908896

>  <r_i_glide_eff_state_penalty>  (1) 
-0

>  <r_i_glide_einternal>  (1) 
0.067150860621139508

>  <r_i_glide_emodel>  (1) 
-24.885078505075558

>  <r_i_glide_emodel_strain>  (1) 
0.17450216383521422

>  <r_i_glide_energy>  (1) 
-21.611122523018476

>  <r_i_glide_erotb>  (1) 
0.12329427839652905

>  <r_i_glide_esite>  (1) 
0

>  <r_i_glide_evdw>  (1) 
-19.652868214927587

>  <r_i_glide_gscore>  (1) 
-3.948699681807939

>  <r_i_glide_gscore_strain>  (1) 
0

>  <r_i_glide_hbond>  (1) 
-0.12744155111743388

>  <r_i_glide_ligand_efficiency>  (1) 
-0.14624813636325701

>  <r_i_glide_ligand_efficiency_ln>  (1) 
-0.91919218652283885

>  <r_i_glide_ligand_efficiency_sa>  (1) 
-0.43874440908977108

>  <r_i_glide_lipo>  (1) 
-1.651911621323183

>  <r_i_glide_metal>  (1) 
-0

>  <r_i_glide_rewards>  (1) 
-1.0162592308038381

>  <r_lp_Energy>  (1) 
41.521923000000001

>  <r_lp_tautomer_probability>  (1) 
1

>  <s_epik_cmdline>  (1) 
J2VwaWtfcHl0aG9uJywgJy1waHQnLCAnMS4wJywgJy1waCcsICc3LjQnLCAnLXRuJywgJzgnLCAnLW1hJywgJzUwMCcsICctaW1hZScsICc8aW5maWxlLm1hZT4nLCAnLW9tYWUnLCAnPG91dGZpbGUubWFlPic=

>  <s_epik_input>  (1) 
W0NIM11bQ0BAXTEoW09IXSlTW0NIMl1bQ0BASF0oW0NIM10pW0NASF0oW0NIMl1bQ0gyXU9bQ0gyXVtDSDJdMilbQ0BASF0yT1tDQEhdKFtDSDJdMylDMTNbQ0BASF0oTzQpW0NASF0oW0NIM10pW0NIMl1bQ0BASF0oW0NIMl01KUM0NVtPSF0=

>  <s_glide_docking_method>  (1) 
confgen

>  <s_i_glide_gridfile>  (1) 
gpcr_drd2_6luq_protein_autoprepared_prepared

>  <s_lp_Force_Field>  (1) 
S-OPLS

>  <s_lp_Variant>  (1) 
DiffSBDD_18-2

>  <s_m_source_file>  (1) 
generated_generic_title2_ligand_DiffSBDD_2026-06-23_prepared.sdf

>  <GenAI_Model>  (1) 
DiffSBDD

>  <Protein>  (1) 
generic_title2

$$$$
DiffSBDD_8
     RDKit          3D

  0  0  0  0  0  0  0  0  0  0999 V3000
M  V30 BEGIN CTAB
M  V30 COUNTS 69 72 0 0 1
M  V30 BEGIN ATOM
M  V30 1 N 5.552266 6.656069 -15.537730 0
M  V30 2 C 4.762765 6.672970 -18.658339 0
M  V30 3 C 8.685056 5.932287 -14.446554 0 CFG=1
M  V30 4 N 6.007368 4.867116 -19.523388 0
M  V30 5 O 6.534186 4.972578 -12.243205 0
M  V30 6 C 10.030139 7.411736 -10.309241 0
M  V30 7 F 8.075828 5.301058 -18.610480 0
M  V30 8 C 9.774196 6.655346 -8.987949 0
M  V30 9 N 9.744052 6.593701 -11.512480 0 CHG=1
M  V30 10 C 8.309268 6.432808 -11.834631 0 CFG=1
M  V30 11 C 6.948017 5.867995 -19.042460 0 CFG=2
M  V30 12 C 12.236742 9.344577 -4.408349 0
M  V30 13 C 7.906123 6.589654 -13.303796 0 CFG=2
M  V30 14 O 8.581057 4.041199 -11.664948 0
M  V30 15 O 6.513268 4.406996 -20.787479 0
M  V30 16 C 9.705550 7.568062 -7.746208 0
M  V30 17 C 5.376981 6.899748 -12.918318 0
M  V30 18 C 5.008975 8.001533 -15.734175 0
M  V30 19 C 5.383865 6.070766 -14.217630 0 CFG=2
M  V30 20 C 6.140951 6.626206 -17.966074 0 CFG=2
M  V30 21 C 6.109218 5.960620 -16.565052 0
M  V30 22 C 9.990276 5.190366 -14.369797 0
M  V30 23 C 7.673646 5.093121 -11.438131 0 CFG=2
M  V30 24 C 6.531520 6.007612 -13.230942 0 CFG=2
M  V30 25 O 11.375812 9.988120 -3.494509 0
M  V30 26 O 6.575507 4.836284 -16.413850 0
M  V30 27 C 11.947290 9.870245 -5.819881 0
M  V30 28 C 6.388533 2.994849 -20.782230 0
M  V30 29 C 4.853532 5.693706 -19.839548 0
M  V30 30 O 10.844749 9.168570 -6.377932 0
M  V30 31 C 11.013056 8.257907 -7.352027 0
M  V30 32 N 8.723166 4.484514 -14.398285 0
M  V30 33 O 12.087240 7.984772 -7.890835 0
M  V30 34 H 3.949352 6.385235 -17.991516 0
M  V30 35 H 4.540498 7.678540 -19.017998 0
M  V30 36 H 8.474715 6.374903 -15.415106 0
M  V30 37 H 9.443045 8.331091 -10.346449 0
M  V30 38 H 11.076496 7.717880 -10.359559 0
M  V30 39 H 10.526778 5.879856 -8.836210 0
M  V30 40 H 8.818716 6.135946 -9.041197 0
M  V30 41 H 10.178827 7.047406 -12.302810 0
M  V30 42 H 7.751774 7.196544 -11.292514 0
M  V30 43 H 7.233188 6.541738 -19.854138 0
M  V30 44 H 13.263336 9.589320 -4.133862 0
M  V30 45 H 12.135958 8.260929 -4.344914 0
M  V30 46 H 7.838533 7.652211 -13.541408 0
M  V30 47 H 8.680153 3.964734 -12.613846 0
M  V30 48 H 9.360739 6.983141 -6.890966 0
M  V30 49 H 8.952969 8.341193 -7.904015 0
M  V30 50 H 4.837062 6.575660 -12.033980 0
M  V30 51 H 5.562263 7.967804 -12.932848 0
M  V30 52 H 4.206195 8.009028 -16.469465 0
M  V30 53 H 4.574166 8.392258 -14.822876 0
M  V30 54 H 5.781241 8.707481 -16.042637 0
M  V30 55 H 4.738173 5.195912 -14.222545 0
M  V30 56 H 6.586061 7.590476 -17.839937 0
M  V30 57 H 10.594462 5.122443 -15.271184 0
M  V30 58 H 10.562514 5.195686 -13.445073 0
M  V30 59 H 7.381478 5.057589 -10.387237 0
M  V30 60 H 11.652645 9.772423 -2.615846 0
M  V30 61 H 11.727488 10.938351 -5.794084 0
M  V30 62 H 12.841833 9.750889 -6.430421 0
M  V30 63 H 6.734651 2.584933 -21.730672 0
M  V30 64 H 6.991398 2.551545 -19.988200 0
M  V30 65 H 5.350478 2.687678 -20.647288 0
M  V30 66 H 3.953372 5.096481 -19.986022 0
M  V30 67 H 5.033855 6.247083 -20.764785 0
M  V30 68 H 8.444310 4.026825 -15.261511 0
M  V30 69 H 10.133402 5.667018 -11.408746 0
M  V30 END ATOM
M  V30 BEGIN BOND
M  V30 1 1 8 6
M  V30 2 1 9 6
M  V30 3 1 10 9
M  V30 4 1 11 4
M  V30 5 1 11 7
M  V30 6 1 13 3
M  V30 7 1 13 10
M  V30 8 1 15 4
M  V30 9 1 16 8
M  V30 10 1 18 1
M  V30 11 1 19 1
M  V30 12 1 19 17
M  V30 13 1 20 2
M  V30 14 1 20 11
M  V30 15 1 21 1
M  V30 16 1 21 20
M  V30 17 1 22 3
M  V30 18 1 23 5
M  V30 19 1 23 10
M  V30 20 1 23 14
M  V30 21 1 24 5 CFG=1
M  V30 22 1 24 13
M  V30 23 1 24 17
M  V30 24 1 24 19
M  V30 25 1 25 12
M  V30 26 2 26 21
M  V30 27 1 27 12
M  V30 28 1 28 15
M  V30 29 1 29 2
M  V30 30 1 29 4
M  V30 31 1 30 27
M  V30 32 1 31 16
M  V30 33 1 31 30
M  V30 34 1 32 3
M  V30 35 1 32 22
M  V30 36 2 33 31
M  V30 37 1 34 2
M  V30 38 1 35 2
M  V30 39 1 3 36 CFG=3
M  V30 40 1 37 6
M  V30 41 1 38 6
M  V30 42 1 39 8
M  V30 43 1 40 8
M  V30 44 1 41 9
M  V30 45 1 10 42 CFG=1
M  V30 46 1 11 43 CFG=3
M  V30 47 1 44 12
M  V30 48 1 45 12
M  V30 49 1 13 46 CFG=3
M  V30 50 1 47 14
M  V30 51 1 48 16
M  V30 52 1 49 16
M  V30 53 1 50 17
M  V30 54 1 51 17
M  V30 55 1 52 18
M  V30 56 1 53 18
M  V30 57 1 54 18
M  V30 58 1 19 55 CFG=3
M  V30 59 1 20 56 CFG=1
M  V30 60 1 57 22
M  V30 61 1 58 22
M  V30 62 1 23 59 CFG=1
M  V30 63 1 60 25
M  V30 64 1 61 27
M  V30 65 1 62 27
M  V30 66 1 63 28
M  V30 67 1 64 28
M  V30 68 1 65 28
M  V30 69 1 66 29
M  V30 70 1 67 29
M  V30 71 1 68 32
M  V30 72 1 69 9
M  V30 END BOND
M  V30 END CTAB
M  END
>  <i_epik_Tot_Q>  (1) 
1

>  <i_epik_Tot_abs_Q>  (1) 
1

>  <i_i_glide_confnum>  (1) 
1705

>  <i_i_glide_lignum>  (1) 
34

>  <i_i_glide_posenum>  (1) 
45

>  <i_i_glide_rotatable_bonds>  (1) 
15

>  <i_lp_mmshare_version>  (1) 
72125

>  <i_m_source_file_index>  (1) 
9

>  <i_f3d_flags>  (1) 
0

>  <num_sample>  (1) 
50

>  <b_lp_Chiralities_Consistent>  (1) 
1

>  <r_epik_Charging_Adjusted_Penalty>  (1) 
0.31458683345696248

>  <r_epik_Ionization_Penalty>  (1) 
0.14300301403106822

>  <r_epik_Ionization_Penalty_Charging>  (1) 
0.065080964065447874

>  <r_epik_Ionization_Penalty_Neutral>  (1) 
0.077922049965620341

>  <r_epik_State_Penalty>  (1) 
0.24950586939151459

>  <r_glide_ring_energy>  (1) 
0

>  <r_i_docking_score>  (1) 
-3.9480640315752025

>  <r_i_glide_ecoul>  (1) 
-4.0193145886953197

>  <r_i_glide_eff_state_penalty>  (1) 
0.24950586939151459

>  <r_i_glide_einternal>  (1) 
41.177968542981425

>  <r_i_glide_emodel>  (1) 
-20.545677186393814

>  <r_i_glide_emodel_strain>  (1) 
1.5533342870873668

>  <r_i_glide_energy>  (1) 
-31.116114345542499

>  <r_i_glide_erotb>  (1) 
1.0741905119875848

>  <r_i_glide_esite>  (1) 
-0.053442582319530391

>  <r_i_glide_evdw>  (1) 
-27.096799756847179

>  <r_i_glide_gscore>  (1) 
-4.1975699009667169

>  <r_i_glide_gscore_strain>  (1) 
0

>  <r_i_glide_hbond>  (1) 
0

>  <r_i_glide_ligand_efficiency>  (1) 
-0.11963830398712735

>  <r_i_glide_ligand_efficiency_ln>  (1) 
-0.87802899864080086

>  <r_i_glide_ligand_efficiency_sa>  (1) 
-0.38374396722118759

>  <r_i_glide_lipo>  (1) 
-1.6916898173057855

>  <r_i_glide_metal>  (1) 
-0

>  <r_i_glide_rewards>  (1) 
-1.5688908371823287

>  <r_lp_Energy>  (1) 
39.880201

>  <s_epik_Chemistry_Notes>  (1) 
This compound has an ester and may undergo hydrolysis at high or low pH. This compound contains an acetal/aminal-like group ( X-CH(R)-Y where X, Y are N, S, or O) that may be acid/base labile, releasing an aldehyde. This compound has a N-S or N-O group and may undergo hydrolysis at high or low pH.

>  <s_epik_cmdline>  (1) 
J2VwaWtfcHl0aG9uJywgJy1waHQnLCAnMS4wJywgJy1waCcsICc3LjQnLCAnLXRuJywgJzgnLCAnLW1hJywgJzUwMCcsICctaW1hZScsICc8aW5maWxlLm1hZT4nLCAnLW9tYWUnLCAnPG91dGZpbGUubWFlPic=

>  <s_epik_input>  (1) 
W0NIM11PTjFbQ0BIXShGKVtDQEBIXShbQ0gyXVtDSDJdMSlDKD1PKU4oW0NIM10pW0NASF0yW0NIMl1DMjNPW0NAQEhdKFtPSF0pW0NASF0oW0NASF0zW0NASF00W0NIMl1bTkhdNClbTkhdW0NIMl1bQ0gyXVtDSDJdQyg9TylPW0NIMl1bQ0gyXVtPSF0=

>  <s_glide_docking_method>  (1) 
confgen

>  <s_i_glide_gridfile>  (1) 
gpcr_drd2_6luq_protein_autoprepared_prepared

>  <s_lp_Force_Field>  (1) 
S-OPLS

>  <s_lp_Variant>  (1) 
DiffSBDD_8-3

>  <s_m_source_file>  (1) 
generated_generic_title2_ligand_DiffSBDD_2026-06-23_prepared.sdf

>  <GenAI_Model>  (1) 
DiffSBDD

>  <Protein>  (1) 
generic_title2

$$$$
DiffSBDD_16
     RDKit          3D

  0  0  0  0  0  0  0  0  0  0999 V3000
M  V30 BEGIN CTAB
M  V30 COUNTS 40 42 0 0 1
M  V30 BEGIN ATOM
M  V30 1 O 8.521557 6.278144 -12.384989 0 CHG=-1
M  V30 2 O 5.748540 5.990288 -11.374794 0
M  V30 3 C 4.983160 -1.027588 -18.454265 0
M  V30 4 C 7.617379 2.246489 -14.359475 0 CFG=1
M  V30 5 C 6.616867 0.333432 -19.831654 0
M  V30 6 S 5.775401 3.990175 -13.184884 0
M  V30 7 F 3.775677 -1.609071 -18.385031 0
M  V30 8 C 6.982898 1.391077 -18.784036 0
M  V30 9 C 7.390973 3.414386 -13.412104 0
M  V30 10 C 6.460078 5.212874 -12.006087 0
M  V30 11 C 5.297377 -0.363167 -19.581011 0
M  V30 12 C 6.610064 1.097953 -14.184845 0
M  V30 13 C 8.440477 1.797276 -16.747124 0
M  V30 14 C 6.816892 -0.086555 -15.139402 0
M  V30 15 C 8.348324 4.035370 -12.745204 0
M  V30 16 C 8.017592 5.192822 -11.849817 0 CFG=1
M  V30 17 C 6.400908 0.152794 -16.615467 0 CFG=2
M  V30 18 C 5.916747 -1.173806 -17.260052 0
M  V30 19 C 7.530326 0.787564 -17.476067 0 CFG=1
M  V30 20 C 7.735606 2.775622 -15.801325 0
M  V30 21 H 8.575623 1.826782 -14.069566 0
M  V30 22 H 6.531953 0.822183 -20.802613 0
M  V30 23 H 7.407530 -0.409745 -19.939621 0
M  V30 24 H 7.746435 2.022686 -19.238544 0
M  V30 25 H 6.137795 2.052144 -18.584820 0
M  V30 26 H 4.575477 -0.316094 -20.382478 0
M  V30 27 H 6.698830 0.730148 -13.161344 0
M  V30 28 H 5.584223 1.436534 -14.271102 0
M  V30 29 H 9.013979 2.368502 -17.477816 0
M  V30 30 H 9.200301 1.248701 -16.194894 0
M  V30 31 H 7.839935 -0.458889 -15.078248 0
M  V30 32 H 6.196237 -0.879859 -14.726269 0
M  V30 33 H 9.383154 3.736737 -12.833979 0
M  V30 34 H 8.231122 4.878440 -10.827696 0
M  V30 35 H 5.545653 0.829535 -16.591256 0
M  V30 36 H 5.351792 -1.754243 -16.529599 0
M  V30 37 H 6.761923 -1.805557 -17.535462 0
M  V30 38 H 8.214177 -0.013310 -17.762524 0
M  V30 39 H 8.331037 3.689939 -15.779785 0
M  V30 40 H 6.763858 3.069038 -16.192346 0
M  V30 END ATOM
M  V30 BEGIN BOND
M  V30 1 1 7 3
M  V30 2 1 8 5
M  V30 3 1 9 4
M  V30 4 1 9 6
M  V30 5 2 10 2
M  V30 6 1 10 6
M  V30 7 2 11 3
M  V30 8 1 11 5
M  V30 9 1 12 4
M  V30 10 1 14 12
M  V30 11 2 15 9
M  V30 12 1 16 1
M  V30 13 1 16 10
M  V30 14 1 16 15
M  V30 15 1 17 14
M  V30 16 1 18 3
M  V30 17 1 18 17
M  V30 18 1 19 8
M  V30 19 1 19 13
M  V30 20 1 19 17
M  V30 21 1 20 4
M  V30 22 1 20 13
M  V30 23 1 4 21 CFG=1
M  V30 24 1 22 5
M  V30 25 1 23 5
M  V30 26 1 24 8
M  V30 27 1 25 8
M  V30 28 1 26 11
M  V30 29 1 27 12
M  V30 30 1 28 12
M  V30 31 1 29 13
M  V30 32 1 30 13
M  V30 33 1 31 14
M  V30 34 1 32 14
M  V30 35 1 33 15
M  V30 36 1 16 34 CFG=1
M  V30 37 1 17 35 CFG=1
M  V30 38 1 36 18
M  V30 39 1 37 18
M  V30 40 1 19 38 CFG=3
M  V30 41 1 39 20
M  V30 42 1 40 20
M  V30 END BOND
M  V30 END CTAB
M  END
>  <i_epik_Tot_Q>  (1) 
-1

>  <i_epik_Tot_abs_Q>  (1) 
1

>  <i_i_glide_confnum>  (1) 
2

>  <i_i_glide_lignum>  (1) 
58

>  <i_i_glide_posenum>  (1) 
243

>  <i_i_glide_rotatable_bonds>  (1) 
1

>  <i_lp_mmshare_version>  (1) 
72125

>  <i_m_source_file_index>  (1) 
17

>  <i_f3d_flags>  (1) 
0

>  <num_sample>  (1) 
50

>  <b_lp_Chiralities_Consistent>  (1) 
1

>  <r_epik_Charging_Adjusted_Penalty>  (1) 
0.29503530446885118

>  <r_epik_Ionization_Penalty>  (1) 
0.14751765223442562

>  <r_epik_Ionization_Penalty_Charging>  (1) 
0.14751765223442562

>  <r_epik_Ionization_Penalty_Neutral>  (1) 
0

>  <r_epik_State_Penalty>  (1) 
0.14751765223442559

>  <r_glide_ring_energy>  (1) 
0

>  <r_i_docking_score>  (1) 
-3.945033821832403

>  <r_i_glide_ecoul>  (1) 
2.3088159183488868

>  <r_i_glide_eff_state_penalty>  (1) 
0.14751765223442559

>  <r_i_glide_einternal>  (1) 
0.40613046207205217

>  <r_i_glide_emodel>  (1) 
-32.879160671010936

>  <r_i_glide_emodel_strain>  (1) 
0.1558086260636955

>  <r_i_glide_energy>  (1) 
-26.731590925833498

>  <r_i_glide_erotb>  (1) 
0.20975943134131059

>  <r_i_glide_esite>  (1) 
-0.01648719961371551

>  <r_i_glide_evdw>  (1) 
-29.040406844182385

>  <r_i_glide_gscore>  (1) 
-4.0925514740668287

>  <r_i_glide_gscore_strain>  (1) 
0

>  <r_i_glide_hbond>  (1) 
0

>  <r_i_glide_ligand_efficiency>  (1) 
-0.19725169109162016

>  <r_i_glide_ligand_efficiency_ln>  (1) 
-0.9873118496809361

>  <r_i_glide_ligand_efficiency_sa>  (1) 
-0.53542346520223039

>  <r_i_glide_lipo>  (1) 
-1.4374361972785958

>  <r_i_glide_metal>  (1) 
-0

>  <r_i_glide_rewards>  (1) 
-1.7426895540590417

>  <r_lp_Energy>  (1) 
23.813070999999997

>  <s_epik_cmdline>  (1) 
J2VwaWtfcHl0aG9uJywgJy1waHQnLCAnMS4wJywgJy1waCcsICc3LjQnLCAnLXRuJywgJzgnLCAnLW1hJywgJzUwMCcsICctaW1hZScsICc8aW5maWxlLm1hZT4nLCAnLW9tYWUnLCAnPG91dGZpbGUubWFlPic=

>  <s_epik_input>  (1) 
Tz1DKFMxKVtDQEhdKFtPSF0pW0NIXT1DMVtDQEBIXShbQ0gyXVtDSDJdMilbQ0gyXVtDSDJdW0NAQEhdKFtDQEhdMjMpW0NIMl1bQ0gyXVtDSF09QyhGKVtDSDJdMw==

>  <s_glide_docking_method>  (1) 
confgen

>  <s_i_glide_gridfile>  (1) 
gpcr_drd2_6luq_protein_autoprepared_prepared

>  <s_lp_Force_Field>  (1) 
S-OPLS

>  <s_lp_Variant>  (1) 
DiffSBDD_16-1

>  <s_m_source_file>  (1) 
generated_generic_title2_ligand_DiffSBDD_2026-06-23_prepared.sdf

>  <GenAI_Model>  (1) 
DiffSBDD

>  <Protein>  (1) 
generic_title2

$$$$
DiffSBDD_20
     RDKit          3D

  0  0  0  0  0  0  0  0  0  0999 V3000
M  V30 BEGIN CTAB
M  V30 COUNTS 71 73 0 0 1
M  V30 BEGIN ATOM
M  V30 1 C 13.034181 4.901150 -18.982429 0
M  V30 2 C 6.039794 6.846420 -16.026126 0
M  V30 3 C 8.904051 5.069801 -16.910287 0 CFG=1
M  V30 4 C 11.805831 5.112637 -19.465135 0
M  V30 5 C 13.355377 4.442800 -17.617203 0 CFG=1
M  V30 6 C 7.804634 5.453979 -8.426855 0
M  V30 7 C 8.710394 5.311865 -11.590762 0 CFG=1
M  V30 8 F 14.676980 4.436861 -17.444452 0
M  V30 9 C 6.719662 4.385696 -12.958662 0
M  V30 10 O 9.775424 4.609927 -8.785033 0
M  V30 11 C 8.647105 3.943572 -15.896948 0
M  V30 12 C 7.161497 5.150982 -11.677277 0 CFG=2
M  V30 13 C 9.365154 8.257600 -7.786417 0
M  V30 14 C 10.536106 5.008485 -18.726205 0
M  V30 15 C 10.346011 5.143231 -17.384603 0
M  V30 16 C 11.403189 5.439700 -16.393572 0
M  V30 17 C 9.318817 6.227496 -10.486116 0 CFG=2
M  V30 18 C 7.047186 6.161077 -18.367418 0
M  V30 19 N 7.274286 4.004818 -15.345954 0 CHG=1
M  V30 20 C 5.834027 6.193717 -17.413778 0
M  V30 21 C 10.482153 6.348779 -6.692127 0
M  V30 22 C 7.021480 5.059815 -14.333184 0 CFG=1
M  V30 23 O 6.450367 6.375510 -11.652577 0
M  V30 24 C 9.188410 5.868343 -8.952132 0 CFG=1
M  V30 25 S 9.078902 4.783266 -19.640075 0
M  V30 26 C 12.711164 5.173136 -16.504701 0
M  V30 27 C 10.012315 6.885836 -8.056861 0
M  V30 28 C 5.838366 5.941582 -14.789951 0
M  V30 29 C 7.998933 4.961405 -18.182367 0 CFG=1
M  V30 30 O 8.975416 7.556948 -10.785033 0
M  V30 31 N 9.374226 4.000410 -11.602373 0
M  V30 32 H 13.876192 5.011011 -19.648306 0
M  V30 33 H 5.287906 7.634105 -15.946665 0
M  V30 34 H 6.975215 7.387482 -15.956307 0
M  V30 35 H 8.716520 5.990197 -16.388046 0
M  V30 36 H 11.736241 5.374634 -20.510064 0
M  V30 37 H 13.066473 3.393621 -17.539642 0
M  V30 38 H 7.014258 5.989934 -8.910991 0
M  V30 39 H 7.733923 5.590334 -7.347976 0
M  V30 40 H 7.544333 4.410542 -8.621766 0
M  V30 41 H 9.010148 5.804463 -12.512629 0
M  V30 42 H 7.185159 3.399138 -12.929860 0
M  V30 43 H 5.651629 4.173977 -12.891279 0
M  V30 44 H 10.707808 4.687436 -8.930810 0
M  V30 45 H 8.795889 2.974086 -16.375245 0
M  V30 46 H 9.353087 4.007237 -15.070461 0
M  V30 47 H 6.818758 4.572812 -10.818830 0
M  V30 48 H 8.550617 8.165600 -7.071799 0
M  V30 49 H 8.975462 8.758544 -8.667641 0
M  V30 50 H 10.093096 8.937531 -7.346088 0
M  V30 51 H 11.086918 5.913594 -15.475494 0
M  V30 52 H 10.383958 6.261954 -10.698524 0
M  V30 53 H 6.642456 6.095012 -19.379469 0
M  V30 54 H 7.594938 7.102855 -18.353086 0
M  V30 55 H 6.633669 4.149050 -16.112709 0
M  V30 56 H 5.416218 5.197292 -17.330072 0
M  V30 57 H 5.051235 6.764295 -17.916927 0
M  V30 58 H 9.645435 5.989892 -6.094882 0
M  V30 59 H 10.975377 7.126938 -6.108333 0
M  V30 60 H 11.217948 5.556246 -6.804953 0
M  V30 61 H 7.899505 5.697813 -14.253167 0
M  V30 62 H 6.575757 6.821106 -10.816921 0
M  V30 63 H 13.364839 5.451257 -15.690425 0
M  V30 64 H 10.929306 7.102867 -8.605645 0
M  V30 65 H 5.566561 6.607252 -13.971383 0
M  V30 66 H 4.975501 5.306930 -14.927319 0
M  V30 67 H 7.402858 4.047922 -18.151075 0
M  V30 68 H 8.148801 7.746271 -10.315583 0
M  V30 69 H 9.476345 3.666719 -10.640165 0
M  V30 70 H 8.816742 3.304225 -12.091592 0
M  V30 71 H 7.061795 3.112682 -14.923094 0
M  V30 END ATOM
M  V30 BEGIN BOND
M  V30 1 2 4 1
M  V30 2 1 5 1
M  V30 3 1 8 5
M  V30 4 1 11 3
M  V30 5 1 12 7
M  V30 6 1 12 9
M  V30 7 1 14 4
M  V30 8 1 15 3
M  V30 9 2 15 14
M  V30 10 1 16 15
M  V30 11 1 17 7
M  V30 12 1 19 11
M  V30 13 1 20 2
M  V30 14 1 20 18
M  V30 15 1 22 9
M  V30 16 1 22 19
M  V30 17 1 23 12
M  V30 18 1 24 6
M  V30 19 1 24 10 CFG=3
M  V30 20 1 24 17
M  V30 21 1 25 14
M  V30 22 1 26 5
M  V30 23 2 26 16
M  V30 24 1 27 13
M  V30 25 1 27 21
M  V30 26 1 27 24
M  V30 27 1 28 2
M  V30 28 1 28 22
M  V30 29 1 29 3
M  V30 30 1 29 18
M  V30 31 1 29 25
M  V30 32 1 30 17
M  V30 33 1 31 7
M  V30 34 1 32 1
M  V30 35 1 33 2
M  V30 36 1 34 2
M  V30 37 1 3 35 CFG=1
M  V30 38 1 36 4
M  V30 39 1 5 37 CFG=3
M  V30 40 1 38 6
M  V30 41 1 39 6
M  V30 42 1 40 6
M  V30 43 1 7 41 CFG=3
M  V30 44 1 42 9
M  V30 45 1 43 9
M  V30 46 1 44 10
M  V30 47 1 45 11
M  V30 48 1 46 11
M  V30 49 1 12 47 CFG=1
M  V30 50 1 48 13
M  V30 51 1 49 13
M  V30 52 1 50 13
M  V30 53 1 51 16
M  V30 54 1 17 52 CFG=3
M  V30 55 1 53 18
M  V30 56 1 54 18
M  V30 57 1 55 19
M  V30 58 1 56 20
M  V30 59 1 57 20
M  V30 60 1 58 21
M  V30 61 1 59 21
M  V30 62 1 60 21
M  V30 63 1 22 61 CFG=1
M  V30 64 1 62 23
M  V30 65 1 63 26
M  V30 66 1 64 27
M  V30 67 1 65 28
M  V30 68 1 66 28
M  V30 69 1 29 67 CFG=1
M  V30 70 1 68 30
M  V30 71 1 69 31
M  V30 72 1 70 31
M  V30 73 1 71 19
M  V30 END BOND
M  V30 END CTAB
M  END
>  <i_epik_Tot_Q>  (1) 
1

>  <i_epik_Tot_abs_Q>  (1) 
1

>  <i_i_glide_confnum>  (1) 
5

>  <i_i_glide_lignum>  (1) 
66

>  <i_i_glide_posenum>  (1) 
283

>  <i_i_glide_rotatable_bonds>  (1) 
9

>  <i_lp_mmshare_version>  (1) 
72125

>  <i_m_source_file_index>  (1) 
21

>  <i_f3d_flags>  (1) 
0

>  <num_sample>  (1) 
50

>  <b_lp_Chiralities_Consistent>  (1) 
1

>  <r_epik_Charging_Adjusted_Penalty>  (1) 
1.0900107648315034

>  <r_epik_Ionization_Penalty>  (1) 
1.0648013143729294

>  <r_epik_Ionization_Penalty_Charging>  (1) 
0.018420486395911647

>  <r_epik_Ionization_Penalty_Neutral>  (1) 
1.0463808279770177

>  <r_epik_State_Penalty>  (1) 
1.0715902784355917

>  <r_glide_ring_energy>  (1) 
0

>  <r_i_docking_score>  (1) 
-3.9450207318122192

>  <r_i_glide_ecoul>  (1) 
-11.860646549959082

>  <r_i_glide_eff_state_penalty>  (1) 
1.0715902784355917

>  <r_i_glide_einternal>  (1) 
4.1974030035297929

>  <r_i_glide_emodel>  (1) 
-35.584792099869887

>  <r_i_glide_emodel_strain>  (1) 
2.569534135157852

>  <r_i_glide_energy>  (1) 
-30.478918493764141

>  <r_i_glide_erotb>  (1) 
0.38705737007943358

>  <r_i_glide_esite>  (1) 
-0.0021093136079407587

>  <r_i_glide_evdw>  (1) 
-18.618271943805059

>  <r_i_glide_gscore>  (1) 
-5.0166110102478108

>  <r_i_glide_gscore_strain>  (1) 
0

>  <r_i_glide_hbond>  (1) 
-0.29763459581291896

>  <r_i_glide_ligand_efficiency>  (1) 
-0.12725873328426512

>  <r_i_glide_ligand_efficiency_ln>  (1) 
-0.88972307538950068

>  <r_i_glide_ligand_efficiency_sa>  (1) 
-0.39976812258702715

>  <r_i_glide_lipo>  (1) 
-1.7114299954304339

>  <r_i_glide_metal>  (1) 
-0

>  <r_i_glide_rewards>  (1) 
-0.68248389579183533

>  <r_lp_Energy>  (1) 
43.646164999999996

>  <s_epik_cmdline>  (1) 
J2VwaWtfcHl0aG9uJywgJy1waHQnLCAnMS4wJywgJy1waCcsICc3LjQnLCAnLXRuJywgJzgnLCAnLW1hJywgJzUwMCcsICctaW1hZScsICc8aW5maWxlLm1hZT4nLCAnLW9tYWUnLCAnPG91dGZpbGUubWFlPic=

>  <s_epik_input>  (1) 
W0NIXTE9W0NIXVtDQEhdKEYpW0NIXT1bQ0hdQyg9QzFbQ0BIXTIzKVNbQ0BASF0zW0NIMl1bQ0gyXVtDSDJdW0NIMl1bQ0BIXShbTkhdW0NIMl0yKVtDSDJdW0NASF0oW09IXSlbQ0BIXShbTkgyXSlbQ0BASF0oW09IXSlbQ0BAXShbQ0gzXSkoW09IXSlbQ0hdKFtDSDNdKVtDSDNd

>  <s_glide_docking_method>  (1) 
confgen

>  <s_i_glide_gridfile>  (1) 
gpcr_drd2_6luq_protein_autoprepared_prepared

>  <s_lp_Force_Field>  (1) 
S-OPLS

>  <s_lp_Variant>  (1) 
DiffSBDD_20-3

>  <s_m_source_file>  (1) 
generated_generic_title2_ligand_DiffSBDD_2026-06-23_prepared.sdf

>  <GenAI_Model>  (1) 
DiffSBDD

>  <Protein>  (1) 
generic_title2

$$$$
DiffSBDD_28
     RDKit          3D

  0  0  0  0  0  0  0  0  0  0999 V3000
M  V30 BEGIN CTAB
M  V30 COUNTS 78 85 0 0 1
M  V30 BEGIN ATOM
M  V30 1 F 8.026612 -0.409622 -16.083479 0
M  V30 2 C 11.849032 8.868061 -7.097518 0 CFG=1
M  V30 3 C 10.213711 7.153010 -10.003146 0 CFG=2
M  V30 4 C 11.740575 7.030518 -4.958055 0 CFG=2
M  V30 5 C 8.773217 4.227557 -13.271965 0 CFG=1
M  V30 6 C 13.247603 8.519978 -7.585023 0
M  V30 7 C 8.518993 6.021466 -11.432948 0 CFG=2
M  V30 8 C 7.264247 2.914603 -15.751866 0 CFG=1
M  V30 9 C 9.972800 8.602787 -10.299001 0
M  V30 10 C 7.299311 4.307211 -13.657090 0 CFG=1
M  V30 11 C 11.215175 9.694988 -5.148594 0 CFG=1
M  V30 12 C 9.038725 5.392312 -8.998588 0
M  V30 13 C 11.493332 8.327720 -5.692861 0 CFG=1
M  V30 14 O 11.764515 9.990225 -3.898105 0
M  V30 15 C 6.935527 0.382187 -15.777774 0 CFG=1
M  V30 16 C 9.366145 4.969217 -12.106982 0 CFG=1
M  V30 17 O 8.993290 3.600676 -11.991745 0
M  V30 18 N 8.975419 6.390231 -10.070290 0 CFG=1 CHG=1
M  V30 19 O 12.551332 5.964435 -2.921005 0
M  V30 20 C 5.597378 -0.241776 -15.869970 0
M  V30 21 O 10.447314 7.384652 -5.474143 0
M  V30 22 C 6.605720 5.519725 -13.009040 0
M  V30 23 C 11.851115 10.263605 -6.387642 0
M  V30 24 N 10.826736 8.526537 -8.125426 0
M  V30 25 C 11.929814 7.084315 -3.454414 0
M  V30 26 N 8.575447 3.063864 -16.405861 0 CHG=1
M  V30 27 C 7.009710 5.725145 -11.542995 0
M  V30 28 C 8.766939 4.499844 -16.680869 0
M  V30 29 C 7.613314 5.194499 -15.953389 0
M  V30 30 O 4.563306 -0.010134 -15.244712 0
M  V30 31 C 9.679495 6.199902 -7.862695 0
M  V30 32 C 7.089632 1.628254 -14.922063 0
M  V30 33 O 5.964601 0.493221 -16.882275 0
M  V30 34 N 6.990543 4.194632 -15.096018 0
M  V30 35 C 11.035075 9.196245 -9.404160 0
M  V30 36 C 12.586683 5.990226 -1.539726 0
M  V30 37 C 10.711570 7.115843 -8.553767 0 CFG=1
M  V30 38 H 10.987019 6.790369 -10.673940 0
M  V30 39 H 12.175394 6.179253 -5.476494 0
M  V30 40 H 9.476591 3.990215 -14.049119 0
M  V30 41 H 13.972550 8.949583 -6.896876 0
M  V30 42 H 13.375465 7.446169 -7.629146 0
M  V30 43 H 13.520191 8.937915 -8.548579 0
M  V30 44 H 8.662051 6.923427 -12.028116 0
M  V30 45 H 6.575438 2.851090 -16.590192 0
M  V30 46 H 8.979139 8.936920 -9.987722 0
M  V30 47 H 10.094229 8.790204 -11.363595 0
M  V30 48 H 6.835454 3.458479 -13.154567 0
M  V30 49 H 10.175512 9.979321 -5.175632 0
M  V30 50 H 9.677266 4.558226 -9.291828 0
M  V30 51 H 8.052586 5.007932 -8.734527 0
M  V30 52 H 12.636762 9.627351 -3.879808 0
M  V30 53 H 10.439703 5.141225 -12.130206 0
M  V30 54 H 5.524644 5.394421 -13.072827 0
M  V30 55 H 6.827888 6.435867 -13.555448 0
M  V30 56 H 11.375425 11.137275 -6.785016 0
M  V30 57 H 12.859257 10.583305 -6.131674 0
M  V30 58 H 12.586941 7.909493 -3.193716 0
M  V30 59 H 10.975421 7.189905 -2.959902 0
M  V30 60 H 8.622476 2.519613 -17.255765 0
M  V30 61 H 6.731301 4.860576 -10.939026 0
M  V30 62 H 6.427810 6.570257 -11.184928 0
M  V30 63 H 8.725263 4.689762 -17.753693 0
M  V30 64 H 9.738519 4.830833 -16.311865 0
M  V30 65 H 6.881939 5.532539 -16.688444 0
M  V30 66 H 7.945551 6.077414 -15.407014 0
M  V30 67 H 10.127923 5.561763 -7.105917 0
M  V30 68 H 8.903909 6.800261 -7.382644 0
M  V30 69 H 7.915933 1.482775 -14.225988 0
M  V30 70 H 6.196524 1.730208 -14.305211 0
M  V30 71 H 11.013858 10.275284 -9.353312 0
M  V30 72 H 11.994638 8.941834 -9.851191 0
M  V30 73 H 13.219567 5.190462 -1.156940 0
M  V30 74 H 12.975403 6.943960 -1.185036 0
M  V30 75 H 11.567913 5.849786 -1.185040 0
M  V30 76 H 11.681301 6.628252 -8.558683 0
M  V30 77 H 8.254686 7.039075 -9.735065 0
M  V30 78 H 9.297432 2.756720 -15.773569 0
M  V30 END ATOM
M  V30 BEGIN BOND
M  V30 1 1 2 6 CFG=3
M  V30 2 1 9 3
M  V30 3 1 10 5
M  V30 4 1 13 2
M  V30 5 1 13 4
M  V30 6 1 13 11
M  V30 7 1 14 11
M  V30 8 1 15 1 CFG=3
M  V30 9 1 16 5
M  V30 10 1 16 7
M  V30 11 1 17 5
M  V30 12 1 17 16
M  V30 13 1 18 3
M  V30 14 1 18 7
M  V30 15 1 18 12
M  V30 16 1 20 15
M  V30 17 1 21 4
M  V30 18 1 13 21 CFG=3
M  V30 19 1 22 10
M  V30 20 1 23 2
M  V30 21 1 23 11
M  V30 22 1 24 2
M  V30 23 1 25 4
M  V30 24 1 25 19
M  V30 25 1 26 8
M  V30 26 1 27 7
M  V30 27 1 27 22
M  V30 28 1 28 26
M  V30 29 1 29 28
M  V30 30 2 30 20
M  V30 31 1 31 12
M  V30 32 1 32 8
M  V30 33 1 32 15
M  V30 34 1 33 15
M  V30 35 1 33 20
M  V30 36 1 34 8
M  V30 37 1 34 10
M  V30 38 1 34 29
M  V30 39 1 35 9
M  V30 40 1 35 24
M  V30 41 1 36 19
M  V30 42 1 37 3
M  V30 43 1 37 24
M  V30 44 1 37 31
M  V30 45 1 3 38 CFG=3
M  V30 46 1 4 39 CFG=3
M  V30 47 1 5 40 CFG=3
M  V30 48 1 41 6
M  V30 49 1 42 6
M  V30 50 1 43 6
M  V30 51 1 7 44 CFG=3
M  V30 52 1 8 45 CFG=3
M  V30 53 1 46 9
M  V30 54 1 47 9
M  V30 55 1 10 48 CFG=1
M  V30 56 1 11 49 CFG=1
M  V30 57 1 50 12
M  V30 58 1 51 12
M  V30 59 1 52 14
M  V30 60 1 16 53 CFG=3
M  V30 61 1 54 22
M  V30 62 1 55 22
M  V30 63 1 56 23
M  V30 64 1 57 23
M  V30 65 1 58 25
M  V30 66 1 59 25
M  V30 67 1 60 26
M  V30 68 1 61 27
M  V30 69 1 62 27
M  V30 70 1 63 28
M  V30 71 1 64 28
M  V30 72 1 65 29
M  V30 73 1 66 29
M  V30 74 1 67 31
M  V30 75 1 68 31
M  V30 76 1 69 32
M  V30 77 1 70 32
M  V30 78 1 71 35
M  V30 79 1 72 35
M  V30 80 1 73 36
M  V30 81 1 74 36
M  V30 82 1 75 36
M  V30 83 1 37 76 CFG=3
M  V30 84 1 18 77 CFG=1
M  V30 85 1 78 26
M  V30 END BOND
M  V30 END CTAB
M  END
>  <i_epik_Tot_Q>  (1) 
2

>  <i_epik_Tot_abs_Q>  (1) 
2

>  <i_i_glide_confnum>  (1) 
503

>  <i_i_glide_lignum>  (1) 
86

>  <i_i_glide_posenum>  (1) 
385

>  <i_i_glide_rotatable_bonds>  (1) 
8

>  <i_lp_mmshare_version>  (1) 
72125

>  <i_m_source_file_index>  (1) 
29

>  <i_f3d_flags>  (1) 
0

>  <num_sample>  (1) 
50

>  <b_lp_Chiralities_Consistent>  (1) 
1

>  <r_epik_Charging_Adjusted_Penalty>  (1) 
1.0492181154286748

>  <r_epik_Ionization_Penalty>  (1) 
0.8301501805432685

>  <r_epik_Ionization_Penalty_Charging>  (1) 
0.211122083805314

>  <r_epik_Ionization_Penalty_Neutral>  (1) 
0.61902809673795445

>  <r_epik_State_Penalty>  (1) 
0.83809603162336077

>  <r_glide_ring_energy>  (1) 
0.81914574756082614

>  <r_i_docking_score>  (1) 
-3.9440952893359871

>  <r_i_glide_ecoul>  (1) 
-5.5195149752413082

>  <r_i_glide_eff_state_penalty>  (1) 
0.83809603162336077

>  <r_i_glide_einternal>  (1) 
10.894450195570712

>  <r_i_glide_emodel>  (1) 
-16.252696674925229

>  <r_i_glide_emodel_strain>  (1) 
4.9236773890176551

>  <r_i_glide_energy>  (1) 
-23.255349377149358

>  <r_i_glide_erotb>  (1) 
0.44856850619138583

>  <r_i_glide_esite>  (1) 
-0.13880441429373588

>  <r_i_glide_evdw>  (1) 
-17.73583440190805

>  <r_i_glide_gscore>  (1) 
-4.7821913209593481

>  <r_i_glide_gscore_strain>  (1) 
0.23091934725441376

>  <r_i_glide_hbond>  (1) 
-0.20000000000000001

>  <r_i_glide_ligand_efficiency>  (1) 
-0.10659716998205371

>  <r_i_glide_ligand_efficiency_ln>  (1) 
-0.85538180554469379

>  <r_i_glide_ligand_efficiency_sa>  (1) 
-0.35520541913781745

>  <r_i_glide_lipo>  (1) 
-2.355917245637511

>  <r_i_glide_metal>  (1) 
-0

>  <r_i_glide_rewards>  (1) 
-1.0522385480923016

>  <r_lp_Energy>  (1) 
60.259107999999998

>  <s_epik_Chemistry_Notes>  (1) 
This compound has an ester and may undergo hydrolysis at high or low pH. This compound contains an acetal/aminal-like group ( X-CH(R)-Y where X, Y are N, S, or O) that may be acid/base labile, releasing an aldehyde.

>  <s_epik_cmdline>  (1) 
J2VwaWtfcHl0aG9uJywgJy1waHQnLCAnMS4wJywgJy1waCcsICc3LjQnLCAnLXRuJywgJzgnLCAnLW1hJywgJzUwMCcsICctaW1hZScsICc8aW5maWxlLm1hZT4nLCAnLW9tYWUnLCAnPG91dGZpbGUubWFlPic=

>  <s_epik_input>  (1) 
Tz1DKE8xKUMxKEYpW0NIMl1bQ0BASF0yW05IXVtDSDJdW0NIMl1OMltDQEBIXTNbQ0gyXVtDSDJdW0NASF0oW0NAQEhdKE80KVtDQEhdMzQpTjVbQ0gyXVtDSDJdW0NAQEhdKFtDQEhdNTYpTihbQ0gyXVtDSDJdNilbQ0BAXShbQ0gzXSkoW0NIMl1bQ0BASF03W09IXSlbQ0BAXTc4W0NASF0oTzgpW0NIMl1PW0NIM10=

>  <s_glide_docking_method>  (1) 
confgen

>  <s_i_glide_gridfile>  (1) 
gpcr_drd2_6luq_protein_autoprepared_prepared

>  <s_lp_Force_Field>  (1) 
S-OPLS

>  <s_lp_Variant>  (1) 
DiffSBDD_28-9

>  <s_m_source_file>  (1) 
generated_generic_title2_ligand_DiffSBDD_2026-06-23_prepared.sdf

>  <GenAI_Model>  (1) 
DiffSBDD

>  <Protein>  (1) 
generic_title2

$$$$
DiffSBDD_0
     RDKit          3D

  0  0  0  0  0  0  0  0  0  0999 V3000
M  V30 BEGIN CTAB
M  V30 COUNTS 70 74 0 0 1
M  V30 BEGIN ATOM
M  V30 1 C 9.970521 7.742392 -6.014612 0
M  V30 2 N 7.762448 5.920304 -14.169143 0
M  V30 3 C 7.845268 4.535748 -18.155375 0 CFG=1
M  V30 4 C 8.375547 7.830321 -12.785026 0
M  V30 5 F 9.750404 5.325503 -8.805036 0
M  V30 6 C 6.887569 6.667841 -15.071375 0
M  V30 7 C 10.994117 8.726443 -6.607161 0
M  V30 8 C 9.715766 7.473914 -10.844822 0
M  V30 9 C 11.130626 7.285442 -8.722296 0 CFG=1
M  V30 10 C 10.457402 4.300770 -18.196375 0
M  V30 11 C 7.829775 4.485377 -14.405192 0 CFG=2
M  V30 12 C 6.203339 4.483063 -11.927208 0
M  V30 13 C 9.109712 3.880421 -18.701044 0 CFG=1
M  V30 14 O 9.071960 8.377231 -11.731290 0
M  V30 15 C 10.339286 6.186103 -7.977697 0 CFG=1
M  V30 16 C 8.097463 3.084141 -17.883776 0 CFG=1
M  V30 17 N 7.975237 5.237122 -16.847840 0 CFG=2 CHG=1
M  V30 18 C 10.307004 8.212833 -9.644945 0
M  V30 19 C 6.177742 3.424245 -13.048539 0
M  V30 20 C 8.415088 4.256913 -15.816491 0 CFG=2
M  V30 21 O 5.556000 3.990228 -10.785028 0
M  V30 22 C 11.906616 8.089134 -7.670807 0
M  V30 23 N 11.392501 3.413539 -17.749677 0
M  V30 24 C 6.768459 6.016787 -16.470428 0
M  V30 25 N 10.800542 5.588786 -18.143745 0
M  V30 26 O 12.077342 5.574295 -17.561785 0
M  V30 27 C 12.331711 4.265093 -17.372832 0
M  V30 28 O 6.571069 3.904893 -14.328633 0
M  V30 29 N 13.554302 3.990393 -16.785024 0
M  V30 30 C 8.447119 6.521565 -13.122306 0
M  V30 31 C 9.312381 6.800345 -7.030075 0
M  V30 32 C 14.611944 4.868423 -16.320028 0
M  V30 33 C 8.183973 2.851800 -16.397096 0
M  V30 34 H 10.431961 7.156103 -5.218953 0
M  V30 35 H 9.169449 8.331644 -5.585022 0
M  V30 36 H 7.038347 4.845707 -18.817525 0
M  V30 37 H 7.775455 8.563310 -13.296273 0
M  V30 38 H 5.901842 6.777156 -14.616627 0
M  V30 39 H 7.285129 7.675208 -15.185024 0
M  V30 40 H 11.599599 9.142079 -5.801284 0
M  V30 41 H 10.467551 9.579154 -7.026050 0
M  V30 42 H 8.978452 6.750081 -10.497518 0
M  V30 43 H 10.515625 6.947106 -11.368608 0
M  V30 44 H 11.862699 6.790234 -9.356039 0
M  V30 45 H 8.481904 4.021978 -13.660907 0
M  V30 46 H 5.713089 5.406106 -12.240514 0
M  V30 47 H 7.225338 4.716154 -11.634802 0
M  V30 48 H 9.153082 3.680174 -19.769691 0
M  V30 49 H 11.030818 5.577553 -7.393575 0
M  V30 50 H 7.522256 2.345608 -18.438699 0
M  V30 51 H 10.968281 8.997630 -10.010388 0
M  V30 52 H 9.510477 8.723173 -9.103288 0
M  V30 53 H 6.787206 2.560836 -12.776538 0
M  V30 54 H 5.161298 3.057698 -13.185027 0
M  V30 55 H 9.488493 4.413854 -15.709870 0
M  V30 56 H 5.646691 4.612904 -10.073748 0
M  V30 57 H 12.575408 7.389523 -7.185053 0
M  V30 58 H 12.535530 8.846303 -8.139275 0
M  V30 59 H 5.915103 5.339930 -16.470382 0
M  V30 60 H 6.560705 6.777361 -17.223903 0
M  V30 61 H 13.735309 3.010210 -16.628894 0
M  V30 62 H 9.066174 5.829393 -12.573398 0
M  V30 63 H 8.758373 6.019266 -6.508008 0
M  V30 64 H 8.575411 7.351641 -7.605795 0
M  V30 65 H 15.457840 4.284404 -15.959036 0
M  V30 66 H 14.954341 5.518024 -17.125846 0
M  V30 67 H 14.250819 5.492328 -15.501703 0
M  V30 68 H 7.240350 2.413271 -16.074169 0
M  V30 69 H 8.975285 2.143682 -16.157988 0
M  V30 70 H 8.725051 5.910585 -16.933155 0
M  V30 END ATOM
M  V30 BEGIN BOND
M  V30 1 1 6 2
M  V30 2 1 7 1
M  V30 3 1 11 2
M  V30 4 1 13 3
M  V30 5 1 13 10
M  V30 6 1 14 4
M  V30 7 1 14 8
M  V30 8 1 15 5
M  V30 9 1 15 9
M  V30 10 1 16 3
M  V30 11 1 16 13
M  V30 12 1 17 3
M  V30 13 1 18 8
M  V30 14 1 18 9
M  V30 15 1 19 12
M  V30 16 1 20 11
M  V30 17 1 20 17
M  V30 18 1 21 12
M  V30 19 1 22 7
M  V30 20 1 22 9
M  V30 21 1 23 10
M  V30 22 1 24 6
M  V30 23 1 24 17
M  V30 24 2 25 10
M  V30 25 1 26 25
M  V30 26 2 27 23
M  V30 27 1 27 26
M  V30 28 1 28 11
M  V30 29 1 28 19
M  V30 30 1 29 27
M  V30 31 1 30 2
M  V30 32 2 30 4
M  V30 33 1 31 1
M  V30 34 1 31 15
M  V30 35 1 32 29
M  V30 36 1 33 16
M  V30 37 1 33 20
M  V30 38 1 34 1
M  V30 39 1 35 1
M  V30 40 1 3 36 CFG=3
M  V30 41 1 37 4
M  V30 42 1 38 6
M  V30 43 1 39 6
M  V30 44 1 40 7
M  V30 45 1 41 7
M  V30 46 1 42 8
M  V30 47 1 43 8
M  V30 48 1 9 44 CFG=3
M  V30 49 1 11 45 CFG=1
M  V30 50 1 46 12
M  V30 51 1 47 12
M  V30 52 1 13 48 CFG=3
M  V30 53 1 15 49 CFG=1
M  V30 54 1 16 50 CFG=3
M  V30 55 1 51 18
M  V30 56 1 52 18
M  V30 57 1 53 19
M  V30 58 1 54 19
M  V30 59 1 20 55 CFG=1
M  V30 60 1 56 21
M  V30 61 1 57 22
M  V30 62 1 58 22
M  V30 63 1 59 24
M  V30 64 1 60 24
M  V30 65 1 61 29
M  V30 66 1 62 30
M  V30 67 1 63 31
M  V30 68 1 64 31
M  V30 69 1 65 32
M  V30 70 1 66 32
M  V30 71 1 67 32
M  V30 72 1 68 33
M  V30 73 1 69 33
M  V30 74 1 17 70 CFG=3
M  V30 END BOND
M  V30 END CTAB
M  END
>  <i_epik_Tot_Q>  (1) 
1

>  <i_epik_Tot_abs_Q>  (1) 
1

>  <i_i_glide_confnum>  (1) 
389

>  <i_i_glide_lignum>  (1) 
9

>  <i_i_glide_posenum>  (1) 
368

>  <i_i_glide_rotatable_bonds>  (1) 
11

>  <i_lp_mmshare_version>  (1) 
72125

>  <i_m_source_file_index>  (1) 
1

>  <i_f3d_flags>  (1) 
0

>  <num_sample>  (1) 
50

>  <b_lp_Chiralities_Consistent>  (1) 
1

>  <r_epik_Charging_Adjusted_Penalty>  (1) 
0.41344222577729461

>  <r_epik_Ionization_Penalty>  (1) 
0.0027644559619576371

>  <r_epik_Ionization_Penalty_Charging>  (1) 
0.0027623868246906495

>  <r_epik_Ionization_Penalty_Neutral>  (1) 
2.0691372669875143e-06

>  <r_epik_State_Penalty>  (1) 
0.41067983895260396

>  <r_glide_ring_energy>  (1) 
1.7903676985451424

>  <r_i_docking_score>  (1) 
-3.9433941687873459

>  <r_i_glide_ecoul>  (1) 
-2.5065586310804062

>  <r_i_glide_eff_state_penalty>  (1) 
0.41067983895260396

>  <r_i_glide_einternal>  (1) 
2.265888055902936

>  <r_i_glide_emodel>  (1) 
-43.976294356866148

>  <r_i_glide_emodel_strain>  (1) 
0.16861988906907754

>  <r_i_glide_energy>  (1) 
-34.850769190020145

>  <r_i_glide_erotb>  (1) 
0.74142510397790429

>  <r_i_glide_esite>  (1) 
-0.0013981651100338527

>  <r_i_glide_evdw>  (1) 
-32.344210558939736

>  <r_i_glide_gscore>  (1) 
-4.3540740077399498

>  <r_i_glide_gscore_strain>  (1) 
0

>  <r_i_glide_hbond>  (1) 
-0.19831523187560787

>  <r_i_glide_ligand_efficiency>  (1) 
-0.11949679299355594

>  <r_i_glide_ligand_efficiency_ln>  (1) 
-0.87699044533603698

>  <r_i_glide_ligand_efficiency_sa>  (1) 
-0.38329006585123543

>  <r_i_glide_lipo>  (1) 
-1.7451843465784467

>  <r_i_glide_metal>  (1) 
-0

>  <r_i_glide_rewards>  (1) 
-1.1574070455447172

>  <r_lp_Energy>  (1) 
39.700505

>  <r_lp_tautomer_probability>  (1) 
0.5

>  <s_epik_Chemistry_Notes>  (1) 
This compound has an imine and may undergo hydrolysis. This compound contains an acetal/aminal-like group ( X-CH(R)-Y where X, Y are N, S, or O) that may be acid/base labile, releasing an aldehyde.

>  <s_epik_cmdline>  (1) 
J2VwaWtfcHl0aG9uJywgJy1waHQnLCAnMS4wJywgJy1waCcsICc3LjQnLCAnLXRuJywgJzgnLCAnLW1hJywgJzUwMCcsICctaW1hZScsICc8aW5maWxlLm1hZT4nLCAnLW9tYWUnLCAnPG91dGZpbGUubWFlPic=

>  <s_epik_input>  (1) 
W0NIMl0xW0NIMl1bQ0gyXVtDSDJdW0NASF0oRilbQ0BIXTFbQ0gyXVtDSDJdTy9bQ0hdPVtDSF0vTihbQ0BIXTJPW0NIMl1bQ0gyXVtPSF0pW0NIMl1bQ0gyXU4zW0NAQEhdMltDSDJdW0NAQEhdKFtDQEBIXTM0KVtDQEBIXTRjNW5jKG9uNSlbTkhdW0NIM10=

>  <s_glide_docking_method>  (1) 
confgen

>  <s_i_glide_gridfile>  (1) 
gpcr_drd2_6luq_protein_autoprepared_prepared

>  <s_lp_Force_Field>  (1) 
S-OPLS

>  <s_lp_Variant>  (1) 
DiffSBDD_0-9

>  <s_m_source_file>  (1) 
generated_generic_title2_ligand_DiffSBDD_2026-06-23_prepared.sdf

>  <GenAI_Model>  (1) 
DiffSBDD

>  <Protein>  (1) 
generic_title2

$$$$
DiffSBDD_13
     RDKit          3D

  0  0  0  0  0  0  0  0  0  0999 V3000
M  V30 BEGIN CTAB
M  V30 COUNTS 48 50 0 0 1
M  V30 BEGIN ATOM
M  V30 1 O 10.812606 5.826731 -19.759369 0
M  V30 2 C 11.563165 5.960496 -18.862933 0
M  V30 3 C 8.014416 5.190222 -9.971965 0
M  V30 4 F 16.071609 5.929608 -16.935368 0
M  V30 5 C 10.165666 6.726528 -11.200621 0
M  V30 6 F 5.297461 4.164423 -13.072814 0
M  V30 7 C 12.395771 6.114583 -17.855380 0
M  V30 8 C 8.077733 4.464930 -13.605913 0
M  V30 9 C 6.015938 4.763173 -12.122337 0
M  V30 10 C 11.381257 7.109810 -11.690322 0
M  V30 11 C 14.310499 8.187488 -18.931229 0
M  V30 12 F 5.465552 4.440966 -10.953809 0
M  V30 13 C 11.930060 6.395013 -16.506793 0
M  V30 14 C 13.909595 5.991682 -18.134616 0 CFG=1
M  V30 15 C 12.259863 6.790227 -14.164369 0
M  V30 16 C 9.188384 5.705267 -9.128174 0
M  V30 17 C 9.317993 5.308072 -13.371823 0
M  V30 18 C 10.863295 7.603237 -8.841367 0
M  V30 19 N 14.391699 6.935232 -19.145299 0
M  V30 20 C 12.774920 6.508249 -15.465050 0
M  V30 21 C 14.199972 6.332551 -15.645094 0
M  V30 22 C 11.797786 6.909979 -13.039757 0
M  V30 23 C 9.058296 6.021460 -12.040970 0 CFG=1
M  V30 24 C 14.739383 6.089573 -16.850687 0
M  V30 25 F 5.929899 6.081605 -12.302587 0
M  V30 26 C 7.479291 4.253397 -12.211767 0 CFG=2
M  V30 27 C 9.775890 6.986625 -9.742974 0 CFG=1
M  V30 28 N 8.464958 4.890266 -11.324672 0
M  V30 29 H 7.584850 4.302766 -9.510390 0
M  V30 30 H 7.226652 5.938886 -10.013886 0
M  V30 31 H 8.320587 3.520527 -14.092877 0
M  V30 32 H 7.381429 4.998093 -14.253888 0
M  V30 33 H 12.089587 7.598311 -11.041673 0
M  V30 34 H 14.667764 8.901819 -19.677199 0
M  V30 35 H 13.882299 8.569974 -17.999814 0
M  V30 36 H 10.870735 6.514583 -16.338663 0
M  V30 37 H 14.076802 4.982003 -18.513003 0
M  V30 38 H 9.953979 4.934313 -9.037387 0
M  V30 39 H 8.830607 5.910919 -8.118420 0
M  V30 40 H 10.175414 4.645897 -13.289663 0
M  V30 41 H 9.463472 5.987678 -14.203499 0
M  V30 42 H 11.181905 8.578672 -9.210385 0
M  V30 43 H 10.481929 7.757098 -7.831627 0
M  V30 44 H 11.739210 6.960304 -8.765478 0
M  V30 45 H 14.849763 6.390218 -14.785074 0
M  V30 46 H 8.281424 6.772344 -12.191674 0
M  V30 47 H 7.477603 3.190228 -11.985222 0
M  V30 48 H 8.975417 7.723085 -9.797662 0
M  V30 END ATOM
M  V30 BEGIN BOND
M  V30 1 2 2 1
M  V30 2 2 7 2
M  V30 3 1 9 6
M  V30 4 2 10 5
M  V30 5 1 12 9
M  V30 6 1 13 7
M  V30 7 1 14 7
M  V30 8 1 16 3
M  V30 9 1 17 8
M  V30 10 2 19 11
M  V30 11 1 19 14
M  V30 12 2 20 13
M  V30 13 1 20 15
M  V30 14 1 21 20
M  V30 15 1 22 10
M  V30 16 3 22 15
M  V30 17 1 23 5
M  V30 18 1 23 17
M  V30 19 1 24 4
M  V30 20 1 24 14
M  V30 21 2 24 21
M  V30 22 1 25 9
M  V30 23 1 26 8
M  V30 24 1 26 9
M  V30 25 1 27 5
M  V30 26 1 27 16
M  V30 27 1 27 18
M  V30 28 1 28 3
M  V30 29 1 28 23
M  V30 30 1 28 26
M  V30 31 1 29 3
M  V30 32 1 30 3
M  V30 33 1 31 8
M  V30 34 1 32 8
M  V30 35 1 33 10
M  V30 36 1 34 11
M  V30 37 1 35 11
M  V30 38 1 36 13
M  V30 39 1 14 37 CFG=3
M  V30 40 1 38 16
M  V30 41 1 39 16
M  V30 42 1 40 17
M  V30 43 1 41 17
M  V30 44 1 42 18
M  V30 45 1 43 18
M  V30 46 1 44 18
M  V30 47 1 45 21
M  V30 48 1 23 46 CFG=3
M  V30 49 1 26 47 CFG=1
M  V30 50 1 27 48 CFG=3
M  V30 END BOND
M  V30 END CTAB
M  END
>  <i_epik_Tot_Q>  (1) 
0

>  <i_epik_Tot_abs_Q>  (1) 
0

>  <i_i_glide_confnum>  (1) 
3

>  <i_i_glide_lignum>  (1) 
51

>  <i_i_glide_posenum>  (1) 
19

>  <i_i_glide_rotatable_bonds>  (1) 
4

>  <i_lp_mmshare_version>  (1) 
72125

>  <i_m_source_file_index>  (1) 
14

>  <i_f3d_flags>  (1) 
0

>  <num_sample>  (1) 
50

>  <b_lp_Chiralities_Consistent>  (1) 
1

>  <r_epik_Charging_Adjusted_Penalty>  (1) 
0

>  <r_epik_Ionization_Penalty>  (1) 
0.00020645461892998548

>  <r_epik_Ionization_Penalty_Charging>  (1) 
0

>  <r_epik_Ionization_Penalty_Neutral>  (1) 
0.00020645461892998548

>  <r_epik_State_Penalty>  (1) 
-0

>  <r_glide_ring_energy>  (1) 
0

>  <r_i_docking_score>  (1) 
-3.9392468544337831

>  <r_i_glide_ecoul>  (1) 
-1.9628566598353379

>  <r_i_glide_eff_state_penalty>  (1) 
-0

>  <r_i_glide_einternal>  (1) 
4.2594523773316286

>  <r_i_glide_emodel>  (1) 
-33.232725089112868

>  <r_i_glide_emodel_strain>  (1) 
0

>  <r_i_glide_energy>  (1) 
-28.926010248660027

>  <r_i_glide_erotb>  (1) 
0.38039990127662543

>  <r_i_glide_esite>  (1) 
-0.082355384808991766

>  <r_i_glide_evdw>  (1) 
-26.963153588824689

>  <r_i_glide_gscore>  (1) 
-3.9392468544337831

>  <r_i_glide_gscore_strain>  (1) 
0

>  <r_i_glide_hbond>  (1) 
0

>  <r_i_glide_ligand_efficiency>  (1) 
-0.1406873876583494

>  <r_i_glide_ligand_efficiency_ln>  (1) 
-0.90929383531676133

>  <r_i_glide_ligand_efficiency_sa>  (1) 
-0.42720976984534004

>  <r_i_glide_lipo>  (1) 
-1.0901979670485309

>  <r_i_glide_metal>  (1) 
-0

>  <r_i_glide_rewards>  (1) 
-1.5045072254363505

>  <r_lp_Energy>  (1) 
25.917797999999998

>  <r_lp_tautomer_probability>  (1) 
1

>  <s_epik_Chemistry_Notes>  (1) 
This compound has an imine and may undergo hydrolysis.

>  <s_epik_cmdline>  (1) 
J2VwaWtfcHl0aG9uJywgJy1waHQnLCAnMS4wJywgJy1waCcsICc3LjQnLCAnLXRuJywgJzgnLCAnLW1hJywgJzUwMCcsICctaW1hZScsICc8aW5maWxlLm1hZT4nLCAnLW9tYWUnLCAnPG91dGZpbGUubWFlPic=

>  <s_epik_input>  (1) 
W0NIMl09TltDQEhdMUMoRik9W0NIXUMoPVtDSF1DMT1DPU8pQyNDL1tDSF09Q1wyW0NASF0oW0NIM10pW0NIMl1bQ0gyXU4oW0NAQEhdMjMpW0NAQEhdKEMoRikoRilGKVtDSDJdW0NIMl0z

>  <s_glide_docking_method>  (1) 
confgen

>  <s_i_glide_gridfile>  (1) 
gpcr_drd2_6luq_protein_autoprepared_prepared

>  <s_lp_Force_Field>  (1) 
S-OPLS

>  <s_lp_Variant>  (1) 
DiffSBDD_13-2

>  <s_m_source_file>  (1) 
generated_generic_title2_ligand_DiffSBDD_2026-06-23_prepared.sdf

>  <GenAI_Model>  (1) 
DiffSBDD

>  <Protein>  (1) 
generic_title2

$$$$
DiffSBDD_16
     RDKit          3D

  0  0  0  0  0  0  0  0  0  0999 V3000
M  V30 BEGIN CTAB
M  V30 COUNTS 41 43 0 0 1
M  V30 BEGIN ATOM
M  V30 1 O 10.976795 8.961837 -9.184999 0
M  V30 2 O 10.930695 6.802816 -7.155658 0
M  V30 3 C 6.948149 5.765749 -17.160963 0
M  V30 4 C 8.219363 5.794753 -11.427134 0 CFG=1
M  V30 5 C 7.555948 3.338946 -16.706072 0
M  V30 6 S 9.130204 5.589548 -8.783768 0
M  V30 7 F 6.974898 6.789135 -18.028255 0
M  V30 8 C 8.143393 3.501184 -15.302385 0
M  V30 9 C 9.230527 6.268543 -10.383188 0
M  V30 10 C 10.496693 6.726514 -8.304623 0
M  V30 11 C 7.509317 4.602266 -17.544863 0
M  V30 12 C 7.734412 6.922662 -12.366959 0
M  V30 13 C 7.579877 3.769682 -12.841878 0
M  V30 14 C 6.613554 6.520339 -13.346448 0
M  V30 15 C 10.162845 7.187417 -10.586220 0
M  V30 16 C 11.078412 7.586785 -9.465607 0 CFG=1
M  V30 17 C 7.128808 5.705508 -14.559751 0 CFG=2
M  V30 18 C 6.272611 5.993430 -15.814730 0
M  V30 19 C 7.210365 4.180990 -14.287929 0 CFG=1
M  V30 20 C 8.726366 4.551559 -12.178413 0
M  V30 21 H 10.060328 9.164676 -9.054320 0
M  V30 22 H 7.348538 5.495961 -10.838946 0
M  V30 23 H 8.188164 2.636230 -17.250104 0
M  V30 24 H 6.575410 2.864830 -16.668153 0
M  V30 25 H 8.356990 2.490596 -14.956056 0
M  V30 26 H 9.102956 4.017094 -15.344311 0
M  V30 27 H 7.958442 4.536234 -18.525571 0
M  V30 28 H 7.360312 7.737329 -11.744461 0
M  V30 29 H 8.567288 7.344073 -12.928318 0
M  V30 30 H 7.832028 2.709185 -12.823809 0
M  V30 31 H 6.689459 3.830668 -12.214625 0
M  V30 32 H 5.801830 6.004192 -12.831266 0
M  V30 33 H 6.173333 7.453541 -13.697005 0
M  V30 34 H 10.286267 7.666729 -11.544745 0
M  V30 35 H 12.109404 7.303847 -9.679275 0
M  V30 36 H 8.133153 6.072490 -14.775834 0
M  V30 37 H 5.992359 7.046335 -15.824716 0
M  V30 38 H 5.329200 5.458897 -15.774957 0
M  V30 39 H 6.215743 3.758063 -14.436400 0
M  V30 40 H 9.199534 3.886207 -11.454405 0
M  V30 41 H 9.505679 4.808055 -12.897096 0
M  V30 END ATOM
M  V30 BEGIN BOND
M  V30 1 1 7 3
M  V30 2 1 8 5
M  V30 3 1 9 4
M  V30 4 1 9 6
M  V30 5 2 10 2
M  V30 6 1 10 6
M  V30 7 2 11 3
M  V30 8 1 11 5
M  V30 9 1 12 4
M  V30 10 1 14 12
M  V30 11 2 15 9
M  V30 12 1 16 1
M  V30 13 1 16 10
M  V30 14 1 16 15
M  V30 15 1 17 14
M  V30 16 1 18 3
M  V30 17 1 18 17
M  V30 18 1 19 8
M  V30 19 1 19 13
M  V30 20 1 19 17
M  V30 21 1 20 4
M  V30 22 1 20 13
M  V30 23 1 21 1
M  V30 24 1 4 22 CFG=1
M  V30 25 1 23 5
M  V30 26 1 24 5
M  V30 27 1 25 8
M  V30 28 1 26 8
M  V30 29 1 27 11
M  V30 30 1 28 12
M  V30 31 1 29 12
M  V30 32 1 30 13
M  V30 33 1 31 13
M  V30 34 1 32 14
M  V30 35 1 33 14
M  V30 36 1 34 15
M  V30 37 1 16 35 CFG=3
M  V30 38 1 17 36 CFG=3
M  V30 39 1 37 18
M  V30 40 1 38 18
M  V30 41 1 19 39 CFG=3
M  V30 42 1 40 20
M  V30 43 1 41 20
M  V30 END BOND
M  V30 END CTAB
M  END
>  <i_epik_Tot_Q>  (1) 
0

>  <i_epik_Tot_abs_Q>  (1) 
0

>  <i_i_glide_confnum>  (1) 
2

>  <i_i_glide_lignum>  (1) 
59

>  <i_i_glide_posenum>  (1) 
208

>  <i_i_glide_rotatable_bonds>  (1) 
2

>  <i_lp_mmshare_version>  (1) 
72125

>  <i_m_source_file_index>  (1) 
17

>  <i_f3d_flags>  (1) 
0

>  <num_sample>  (1) 
50

>  <b_lp_Chiralities_Consistent>  (1) 
1

>  <r_epik_Charging_Adjusted_Penalty>  (1) 
0.89600900946001893

>  <r_epik_Ionization_Penalty>  (1) 
0.89600900946003292

>  <r_epik_Ionization_Penalty_Charging>  (1) 
0

>  <r_epik_Ionization_Penalty_Neutral>  (1) 
0.89600900946003292

>  <r_epik_State_Penalty>  (1) 
0.89600900946001893

>  <r_glide_ring_energy>  (1) 
0

>  <r_i_docking_score>  (1) 
-3.9263704341368753

>  <r_i_glide_ecoul>  (1) 
-0.70514068242958872

>  <r_i_glide_eff_state_penalty>  (1) 
0.89600900946001893

>  <r_i_glide_einternal>  (1) 
0.32572550309821247

>  <r_i_glide_emodel>  (1) 
-37.193108788861409

>  <r_i_glide_emodel_strain>  (1) 
0.16953365335170645

>  <r_i_glide_energy>  (1) 
-28.864368630452997

>  <r_i_glide_erotb>  (1) 
0.20851456216113889

>  <r_i_glide_esite>  (1) 
-0.029024866137979638

>  <r_i_glide_evdw>  (1) 
-28.159227948023407

>  <r_i_glide_gscore>  (1) 
-4.8223794435968941

>  <r_i_glide_gscore_strain>  (1) 
0

>  <r_i_glide_hbond>  (1) 
0

>  <r_i_glide_ligand_efficiency>  (1) 
-0.19631852170684377

>  <r_i_glide_ligand_efficiency_ln>  (1) 
-0.98264101930046932

>  <r_i_glide_ligand_efficiency_sa>  (1) 
-0.53289045378492628

>  <r_i_glide_lipo>  (1) 
-1.338747096330404

>  <r_i_glide_metal>  (1) 
-0

>  <r_i_glide_rewards>  (1) 
-2.1493895435240402

>  <r_lp_Energy>  (1) 
22.466232999999999

>  <s_epik_cmdline>  (1) 
J2VwaWtfcHl0aG9uJywgJy1waHQnLCAnMS4wJywgJy1waCcsICc3LjQnLCAnLXRuJywgJzgnLCAnLW1hJywgJzUwMCcsICctaW1hZScsICc8aW5maWxlLm1hZT4nLCAnLW9tYWUnLCAnPG91dGZpbGUubWFlPic=

>  <s_epik_input>  (1) 
Tz1DKFMxKVtDQEhdKFtPSF0pW0NIXT1DMVtDQEBIXShbQ0gyXVtDSDJdMilbQ0gyXVtDSDJdW0NAQEhdKFtDQEhdMjMpW0NIMl1bQ0gyXVtDSF09QyhGKVtDSDJdMw==

>  <s_glide_docking_method>  (1) 
confgen

>  <s_i_glide_gridfile>  (1) 
gpcr_drd2_6luq_protein_autoprepared_prepared

>  <s_lp_Force_Field>  (1) 
S-OPLS

>  <s_lp_Variant>  (1) 
DiffSBDD_16-2

>  <s_m_source_file>  (1) 
generated_generic_title2_ligand_DiffSBDD_2026-06-23_prepared.sdf

>  <GenAI_Model>  (1) 
DiffSBDD

>  <Protein>  (1) 
generic_title2

$$$$
DiffSBDD_28
     RDKit          3D

  0  0  0  0  0  0  0  0  0  0999 V3000
M  V30 BEGIN CTAB
M  V30 COUNTS 79 86 0 0 1
M  V30 BEGIN ATOM
M  V30 1 F 7.507226 0.241807 -20.091010 0
M  V30 2 C 10.519066 7.592390 -9.301228 0 CFG=1
M  V30 3 C 9.213855 5.040527 -11.843598 0 CFG=2
M  V30 4 C 11.152462 6.397593 -6.834198 0 CFG=2
M  V30 5 C 5.748938 1.791950 -13.495417 0 CFG=1
M  V30 6 C 11.967417 8.041613 -9.499034 0
M  V30 7 C 7.671204 3.294413 -12.511602 0 CFG=2
M  V30 8 C 7.000531 -0.413079 -16.470715 0 CFG=1
M  V30 9 C 9.556755 6.272444 -12.686490 0
M  V30 10 C 6.550956 1.447562 -14.754157 0 CFG=1
M  V30 11 C 9.171296 8.012825 -7.631393 0 CFG=1
M  V30 12 C 7.120298 5.044871 -10.784777 0
M  V30 13 C 10.288438 7.059122 -7.879950 0 CFG=1
M  V30 14 O 9.380188 8.790258 -6.496362 0
M  V30 15 C 7.981832 0.109642 -18.799684 0 CFG=1
M  V30 16 C 6.275375 2.715844 -12.423388 0 CFG=1
M  V30 17 O 5.375519 3.190116 -13.400470 0
M  V30 18 N 7.814542 4.664829 -12.013417 0
M  V30 19 O 11.775510 5.990220 -4.495141 0
M  V30 20 C 9.459402 0.234227 -18.713197 0
M  V30 21 O 10.158224 5.667984 -7.585211 0
M  V30 22 C 8.038925 1.757322 -14.507711 0
M  V30 23 C 9.464546 8.655485 -8.995050 0
M  V30 24 N 10.084823 6.772187 -10.471696 0 CFG=2 CHG=1
M  V30 25 C 10.879672 6.650037 -5.351954 0
M  V30 26 N 6.178569 -1.550820 -16.943759 0 CHG=1
M  V30 27 C 8.148647 3.198247 -13.963875 0
M  V30 28 C 4.772283 -1.218098 -16.676124 0
M  V30 29 C 4.817808 -0.143968 -15.589209 0
M  V30 30 O 9.972713 1.024316 -17.923363 0
M  V30 31 C 8.141160 5.233584 -9.681427 0
M  V30 32 C 7.147496 0.621204 -17.625332 0
M  V30 33 O 8.959470 -0.962250 -18.531227 0
M  V30 34 N 6.249584 0.077233 -15.276378 0 CFG=1 CHG=1
M  V30 35 C 9.550919 7.419799 -11.684891 0
M  V30 36 C 11.624816 6.364314 -3.133399 0
M  V30 37 C 9.488740 5.413003 -10.378703 0 CFG=1
M  V30 38 H 9.889077 4.226784 -12.116797 0
M  V30 39 H 12.179300 6.199524 -7.104460 0
M  V30 40 H 4.968465 1.101291 -13.187128 0
M  V30 41 H 12.315134 8.655597 -8.668623 0
M  V30 42 H 12.642763 7.191123 -9.585663 0
M  V30 43 H 12.084145 8.648676 -10.396763 0
M  V30 44 H 8.351333 2.634796 -11.985054 0
M  V30 45 H 7.982217 -0.761342 -16.144806 0
M  V30 46 H 8.852037 6.407879 -13.508625 0
M  V30 47 H 10.552712 6.155051 -13.117636 0
M  V30 48 H 6.220019 2.136495 -15.529949 0
M  V30 49 H 8.226232 7.500050 -7.555556 0
M  V30 50 H 6.632193 6.003889 -10.956351 0
M  V30 51 H 6.330910 4.364597 -10.479221 0
M  V30 52 H 10.276902 9.087148 -6.520020 0
M  V30 53 H 5.824593 2.608944 -11.439701 0
M  V30 54 H 8.606072 1.678820 -15.429719 0
M  V30 55 H 8.484243 1.045723 -13.809791 0
M  V30 56 H 8.633430 8.790594 -9.676716 0
M  V30 57 H 9.986054 9.590203 -8.958391 0
M  V30 58 H 11.018165 7.710352 -5.148548 0
M  V30 59 H 9.848392 6.387622 -5.112492 0
M  V30 60 H 6.432103 -2.365480 -16.395670 0
M  V30 61 H 7.573982 3.878408 -14.594305 0
M  V30 62 H 9.150802 3.591317 -13.985050 0
M  V30 63 H 4.218381 -2.107098 -16.384263 0
M  V30 64 H 4.308233 -0.823090 -17.580739 0
M  V30 65 H 4.242229 -0.411599 -14.704276 0
M  V30 66 H 4.406378 0.780525 -15.983742 0
M  V30 67 H 7.851194 5.990241 -8.983405 0
M  V30 68 H 8.179764 4.357529 -9.054952 0
M  V30 69 H 6.167647 0.907634 -18.008266 0
M  V30 70 H 7.584974 1.558723 -17.289147 0
M  V30 71 H 8.524215 7.757200 -11.536836 0
M  V30 72 H 10.152917 8.262687 -12.015108 0
M  V30 73 H 12.365460 5.843327 -2.528688 0
M  V30 74 H 11.777955 7.433873 -2.984370 0
M  V30 75 H 10.636786 6.091966 -2.757083 0
M  V30 76 H 10.175345 4.716806 -9.911884 0
M  V30 77 H 10.996672 6.518565 -10.819538 0
M  V30 78 H 6.338930 -1.768124 -17.918953 0
M  V30 79 H 6.465737 -0.566110 -14.524571 0
M  V30 END ATOM
M  V30 BEGIN BOND
M  V30 1 1 2 6 CFG=3
M  V30 2 1 9 3
M  V30 3 1 10 5
M  V30 4 1 13 2
M  V30 5 1 13 4
M  V30 6 1 13 11
M  V30 7 1 14 11
M  V30 8 1 15 1 CFG=3
M  V30 9 1 16 5
M  V30 10 1 16 7
M  V30 11 1 17 5
M  V30 12 1 17 16
M  V30 13 1 18 3
M  V30 14 1 18 7
M  V30 15 1 18 12
M  V30 16 1 20 15
M  V30 17 1 21 4
M  V30 18 1 13 21 CFG=3
M  V30 19 1 22 10
M  V30 20 1 23 2
M  V30 21 1 23 11
M  V30 22 1 24 2
M  V30 23 1 25 4
M  V30 24 1 25 19
M  V30 25 1 26 8
M  V30 26 1 27 7
M  V30 27 1 27 22
M  V30 28 1 28 26
M  V30 29 1 29 28
M  V30 30 2 30 20
M  V30 31 1 31 12
M  V30 32 1 32 8
M  V30 33 1 32 15
M  V30 34 1 33 15
M  V30 35 1 33 20
M  V30 36 1 34 8
M  V30 37 1 34 10
M  V30 38 1 34 29
M  V30 39 1 35 9
M  V30 40 1 35 24
M  V30 41 1 36 19
M  V30 42 1 37 3
M  V30 43 1 37 24
M  V30 44 1 37 31
M  V30 45 1 3 38 CFG=3
M  V30 46 1 4 39 CFG=3
M  V30 47 1 5 40 CFG=1
M  V30 48 1 41 6
M  V30 49 1 42 6
M  V30 50 1 43 6
M  V30 51 1 7 44 CFG=1
M  V30 52 1 8 45 CFG=1
M  V30 53 1 46 9
M  V30 54 1 47 9
M  V30 55 1 10 48 CFG=3
M  V30 56 1 11 49 CFG=3
M  V30 57 1 50 12
M  V30 58 1 51 12
M  V30 59 1 52 14
M  V30 60 1 16 53 CFG=1
M  V30 61 1 54 22
M  V30 62 1 55 22
M  V30 63 1 56 23
M  V30 64 1 57 23
M  V30 65 1 58 25
M  V30 66 1 59 25
M  V30 67 1 60 26
M  V30 68 1 61 27
M  V30 69 1 62 27
M  V30 70 1 63 28
M  V30 71 1 64 28
M  V30 72 1 65 29
M  V30 73 1 66 29
M  V30 74 1 67 31
M  V30 75 1 68 31
M  V30 76 1 69 32
M  V30 77 1 70 32
M  V30 78 1 71 35
M  V30 79 1 72 35
M  V30 80 1 73 36
M  V30 81 1 74 36
M  V30 82 1 75 36
M  V30 83 1 37 76 CFG=1
M  V30 84 1 24 77 CFG=3
M  V30 85 1 78 26
M  V30 86 1 34 79 CFG=1
M  V30 END BOND
M  V30 END CTAB
M  END
>  <i_epik_Tot_Q>  (1) 
3

>  <i_epik_Tot_abs_Q>  (1) 
3

>  <i_i_glide_confnum>  (1) 
275

>  <i_i_glide_lignum>  (1) 
83

>  <i_i_glide_posenum>  (1) 
96

>  <i_i_glide_rotatable_bonds>  (1) 
8

>  <i_lp_mmshare_version>  (1) 
72125

>  <i_m_source_file_index>  (1) 
29

>  <i_f3d_flags>  (1) 
0

>  <num_sample>  (1) 
50

>  <b_lp_Chiralities_Consistent>  (1) 
1

>  <r_epik_Charging_Adjusted_Penalty>  (1) 
2.5479580004866769

>  <r_epik_Ionization_Penalty>  (1) 
1.853674345886815

>  <r_epik_Ionization_Penalty_Charging>  (1) 
1.8530809818743854

>  <r_epik_Ionization_Penalty_Neutral>  (1) 
0.00059336401242958479

>  <r_epik_State_Penalty>  (1) 
0.69487701861229134

>  <r_glide_ring_energy>  (1) 
0.81914574756082947

>  <r_i_docking_score>  (1) 
-3.9260532327087994

>  <r_i_glide_ecoul>  (1) 
-7.4979047122144173

>  <r_i_glide_eff_state_penalty>  (1) 
0.69487701861229134

>  <r_i_glide_einternal>  (1) 
3.5138099344167841

>  <r_i_glide_emodel>  (1) 
-20.963588537827604

>  <r_i_glide_emodel_strain>  (1) 
3.6195887546415406

>  <r_i_glide_energy>  (1) 
-26.018631250698515

>  <r_i_glide_erotb>  (1) 
0.44698704239028575

>  <r_i_glide_esite>  (1) 
-0.070190288467644843

>  <r_i_glide_evdw>  (1) 
-18.520726538484098

>  <r_i_glide_gscore>  (1) 
-4.6209302513210906

>  <r_i_glide_gscore_strain>  (1) 
0

>  <r_i_glide_hbond>  (1) 
0

>  <r_i_glide_ligand_efficiency>  (1) 
-0.10610954682996755

>  <r_i_glide_ligand_efficiency_ln>  (1) 
-0.85146890642807493

>  <r_i_glide_ligand_efficiency_sa>  (1) 
-0.35358055061506749

>  <r_i_glide_lipo>  (1) 
-2.1395048498903617

>  <r_i_glide_metal>  (1) 
-0

>  <r_i_glide_rewards>  (1) 
-0.80750012159700302

>  <r_lp_Energy>  (1) 
76.82741

>  <s_epik_Chemistry_Notes>  (1) 
This compound has an ester and may undergo hydrolysis at high or low pH. This compound contains an acetal/aminal-like group ( X-CH(R)-Y where X, Y are N, S, or O) that may be acid/base labile, releasing an aldehyde.

>  <s_epik_cmdline>  (1) 
J2VwaWtfcHl0aG9uJywgJy1waHQnLCAnMS4wJywgJy1waCcsICc3LjQnLCAnLXRuJywgJzgnLCAnLW1hJywgJzUwMCcsICctaW1hZScsICc8aW5maWxlLm1hZT4nLCAnLW9tYWUnLCAnPG91dGZpbGUubWFlPic=

>  <s_epik_input>  (1) 
Tz1DKE8xKUMxKEYpW0NIMl1bQ0BASF0yW05IXVtDSDJdW0NIMl1OMltDQEBIXTNbQ0gyXVtDSDJdW0NASF0oW0NAQEhdKE80KVtDQEhdMzQpTjVbQ0gyXVtDSDJdW0NAQEhdKFtDQEhdNTYpTihbQ0gyXVtDSDJdNilbQ0BAXShbQ0gzXSkoW0NIMl1bQ0BASF03W09IXSlbQ0BAXTc4W0NASF0oTzgpW0NIMl1PW0NIM10=

>  <s_glide_docking_method>  (1) 
confgen

>  <s_i_glide_gridfile>  (1) 
gpcr_drd2_6luq_protein_autoprepared_prepared

>  <s_lp_Force_Field>  (1) 
S-OPLS

>  <s_lp_Variant>  (1) 
DiffSBDD_28-6

>  <s_m_source_file>  (1) 
generated_generic_title2_ligand_DiffSBDD_2026-06-23_prepared.sdf

>  <GenAI_Model>  (1) 
DiffSBDD

>  <Protein>  (1) 
generic_title2

$$$$
DiffSBDD_0
     RDKit          3D

  0  0  0  0  0  0  0  0  0  0999 V3000
M  V30 BEGIN CTAB
M  V30 COUNTS 70 74 0 0 1
M  V30 BEGIN ATOM
M  V30 1 C 11.517201 7.426931 -5.765681 0
M  V30 2 N 7.153055 4.804965 -13.681920 0
M  V30 3 C 7.206481 4.897690 -17.915194 0 CFG=1
M  V30 4 C 8.516485 5.912268 -12.006463 0
M  V30 5 F 11.467972 9.082853 -9.070273 0
M  V30 6 C 6.621300 6.034507 -14.279519 0
M  V30 7 C 10.125484 6.803820 -5.801223 0
M  V30 8 C 9.738092 7.061777 -10.355526 0
M  V30 9 C 9.622766 8.045872 -7.966447 0 CFG=1
M  V30 10 C 9.830807 4.461501 -17.905451 0
M  V30 11 C 6.866299 3.590958 -14.439206 0 CFG=1
M  V30 12 C 6.759659 0.403225 -12.666573 0
M  V30 13 C 8.484721 4.356220 -18.555038 0 CFG=1
M  V30 14 O 9.441323 5.838670 -11.008495 0
M  V30 15 C 11.017451 8.693322 -7.877636 0 CFG=1
M  V30 16 C 7.383380 3.406925 -18.130323 0 CFG=1
M  V30 17 N 7.016575 4.952178 -16.444464 0 CFG=1 CHG=1
M  V30 18 C 9.556130 6.790279 -8.864460 0
M  V30 19 C 6.293922 1.816284 -13.015537 0
M  V30 20 C 7.586310 3.767189 -15.783154 0 CFG=2
M  V30 21 O 6.543455 -0.409771 -13.795952 0
M  V30 22 C 9.138022 7.711239 -6.542286 0
M  V30 23 N 10.739441 3.444184 -17.914662 0
M  V30 24 C 7.221326 6.206902 -15.691096 0
M  V30 25 N 10.225793 5.590216 -17.321067 0
M  V30 26 O 11.543625 5.325197 -16.920902 0
M  V30 27 C 11.752788 4.059593 -17.325313 0
M  V30 28 O 7.276676 2.401831 -13.857564 0
M  V30 29 N 13.021032 3.574254 -17.063994 0
M  V30 30 C 8.082041 4.819436 -12.647783 0
M  V30 31 C 12.021782 7.785776 -7.185061 0
M  V30 32 C 13.617306 2.277687 -17.313459 0
M  V30 33 C 7.393620 2.653270 -16.809616 0
M  V30 34 H 11.503484 8.321220 -5.141811 0
M  V30 35 H 12.175390 6.713283 -5.270618 0
M  V30 36 H 6.460455 5.430267 -18.502037 0
M  V30 37 H 8.193835 6.920597 -12.210057 0
M  V30 38 H 5.536368 5.939504 -14.345187 0
M  V30 39 H 6.793425 6.927532 -13.682434 0
M  V30 40 H 9.779540 6.609061 -4.787743 0
M  V30 41 H 10.173125 5.833376 -6.292122 0
M  V30 42 H 10.769392 7.323440 -10.588983 0
M  V30 43 H 9.112631 7.904991 -10.653934 0
M  V30 44 H 8.944633 8.789999 -8.382855 0
M  V30 45 H 5.788773 3.581904 -14.581101 0
M  V30 46 H 6.185125 0.001485 -11.831091 0
M  V30 47 H 7.812464 0.389954 -12.385469 0
M  V30 48 H 8.598130 4.524739 -19.624938 0
M  V30 49 H 10.970139 9.590213 -7.266150 0
M  V30 50 H 6.825740 2.933378 -18.936021 0
M  V30 51 H 8.575205 6.335849 -8.734750 0
M  V30 52 H 10.266885 6.025805 -8.553136 0
M  V30 53 H 5.319283 1.768719 -13.503798 0
M  V30 54 H 6.175407 2.418776 -12.114121 0
M  V30 55 H 8.650040 3.909304 -15.585981 0
M  V30 56 H 5.900286 -1.086387 -13.584816 0
M  V30 57 H 8.985165 8.634335 -5.985044 0
M  V30 58 H 8.175452 7.211094 -6.566973 0
M  V30 59 H 6.763143 7.049022 -16.209916 0
M  V30 60 H 8.288586 6.390098 -15.584999 0
M  V30 61 H 13.632639 4.224834 -16.593845 0
M  V30 62 H 8.452385 3.839115 -12.387361 0
M  V30 63 H 12.975340 8.313182 -7.185035 0
M  V30 64 H 12.175028 6.877825 -7.757998 0
M  V30 65 H 14.558670 2.184516 -16.772742 0
M  V30 66 H 12.949078 1.485394 -16.976340 0
M  V30 67 H 13.808277 2.142258 -18.377903 0
M  V30 68 H 6.447654 2.128507 -16.676311 0
M  V30 69 H 8.197887 1.917707 -16.782239 0
M  V30 70 H 6.022982 4.801422 -16.358594 0
M  V30 END ATOM
M  V30 BEGIN BOND
M  V30 1 1 6 2
M  V30 2 1 7 1
M  V30 3 1 11 2
M  V30 4 1 13 3
M  V30 5 1 13 10
M  V30 6 1 14 4
M  V30 7 1 14 8
M  V30 8 1 15 5
M  V30 9 1 15 9
M  V30 10 1 16 3
M  V30 11 1 16 13
M  V30 12 1 17 3
M  V30 13 1 18 8
M  V30 14 1 18 9
M  V30 15 1 19 12
M  V30 16 1 20 11
M  V30 17 1 20 17
M  V30 18 1 21 12
M  V30 19 1 22 7
M  V30 20 1 22 9
M  V30 21 1 23 10
M  V30 22 1 24 6
M  V30 23 1 24 17
M  V30 24 2 25 10
M  V30 25 1 26 25
M  V30 26 2 27 23
M  V30 27 1 27 26
M  V30 28 1 28 11
M  V30 29 1 28 19
M  V30 30 1 29 27
M  V30 31 1 30 2
M  V30 32 2 30 4
M  V30 33 1 31 1
M  V30 34 1 31 15
M  V30 35 1 32 29
M  V30 36 1 33 16
M  V30 37 1 33 20
M  V30 38 1 34 1
M  V30 39 1 35 1
M  V30 40 1 3 36 CFG=3
M  V30 41 1 37 4
M  V30 42 1 38 6
M  V30 43 1 39 6
M  V30 44 1 40 7
M  V30 45 1 41 7
M  V30 46 1 42 8
M  V30 47 1 43 8
M  V30 48 1 9 44 CFG=3
M  V30 49 1 11 45 CFG=3
M  V30 50 1 46 12
M  V30 51 1 47 12
M  V30 52 1 13 48 CFG=3
M  V30 53 1 15 49 CFG=1
M  V30 54 1 16 50 CFG=3
M  V30 55 1 51 18
M  V30 56 1 52 18
M  V30 57 1 53 19
M  V30 58 1 54 19
M  V30 59 1 20 55 CFG=1
M  V30 60 1 56 21
M  V30 61 1 57 22
M  V30 62 1 58 22
M  V30 63 1 59 24
M  V30 64 1 60 24
M  V30 65 1 61 29
M  V30 66 1 62 30
M  V30 67 1 63 31
M  V30 68 1 64 31
M  V30 69 1 65 32
M  V30 70 1 66 32
M  V30 71 1 67 32
M  V30 72 1 68 33
M  V30 73 1 69 33
M  V30 74 1 17 70 CFG=3
M  V30 END BOND
M  V30 END CTAB
M  END
>  <i_epik_Tot_Q>  (1) 
1

>  <i_epik_Tot_abs_Q>  (1) 
1

>  <i_i_glide_confnum>  (1) 
133

>  <i_i_glide_lignum>  (1) 
14

>  <i_i_glide_posenum>  (1) 
137

>  <i_i_glide_rotatable_bonds>  (1) 
11

>  <i_lp_mmshare_version>  (1) 
72125

>  <i_m_source_file_index>  (1) 
1

>  <i_f3d_flags>  (1) 
0

>  <num_sample>  (1) 
50

>  <b_lp_Chiralities_Consistent>  (1) 
1

>  <r_epik_Charging_Adjusted_Penalty>  (1) 
0.41344222577729461

>  <r_epik_Ionization_Penalty>  (1) 
0.0027644559619576371

>  <r_epik_Ionization_Penalty_Charging>  (1) 
0.0027623868246906495

>  <r_epik_Ionization_Penalty_Neutral>  (1) 
2.0691372669875143e-06

>  <r_epik_State_Penalty>  (1) 
0.41067983895260396

>  <r_glide_ring_energy>  (1) 
1.7272227408313596

>  <r_i_docking_score>  (1) 
-3.9257273948585971

>  <r_i_glide_ecoul>  (1) 
-1.9724129140551483

>  <r_i_glide_eff_state_penalty>  (1) 
0.41067983895260396

>  <r_i_glide_einternal>  (1) 
7.3929435356888824

>  <r_i_glide_emodel>  (1) 
-34.673243640769073

>  <r_i_glide_emodel_strain>  (1) 
1.3524373117077602

>  <r_i_glide_energy>  (1) 
-30.935455029865707

>  <r_i_glide_erotb>  (1) 
0.74142510397790429

>  <r_i_glide_esite>  (1) 
0

>  <r_i_glide_evdw>  (1) 
-28.963042115810559

>  <r_i_glide_gscore>  (1) 
-4.336407233811201

>  <r_i_glide_gscore_strain>  (1) 
0

>  <r_i_glide_hbond>  (1) 
-0.16

>  <r_i_glide_ligand_efficiency>  (1) 
-0.11896143620783628

>  <r_i_glide_ligand_efficiency_ln>  (1) 
-0.87306144628794313

>  <r_i_glide_ligand_efficiency_sa>  (1) 
-0.38157289058224342

>  <r_i_glide_lipo>  (1) 
-1.9391653205366532

>  <r_i_glide_metal>  (1) 
-0

>  <r_i_glide_rewards>  (1) 
-1.2346529743536521

>  <r_lp_Energy>  (1) 
49.633499

>  <r_lp_tautomer_probability>  (1) 
0.5

>  <s_epik_Chemistry_Notes>  (1) 
This compound has an imine and may undergo hydrolysis. This compound contains an acetal/aminal-like group ( X-CH(R)-Y where X, Y are N, S, or O) that may be acid/base labile, releasing an aldehyde.

>  <s_epik_cmdline>  (1) 
J2VwaWtfcHl0aG9uJywgJy1waHQnLCAnMS4wJywgJy1waCcsICc3LjQnLCAnLXRuJywgJzgnLCAnLW1hJywgJzUwMCcsICctaW1hZScsICc8aW5maWxlLm1hZT4nLCAnLW9tYWUnLCAnPG91dGZpbGUubWFlPic=

>  <s_epik_input>  (1) 
W0NIMl0xW0NIMl1bQ0gyXVtDSDJdW0NASF0oRilbQ0BIXTFbQ0gyXVtDSDJdTy9bQ0hdPVtDSF0vTihbQ0BIXTJPW0NIMl1bQ0gyXVtPSF0pW0NIMl1bQ0gyXU4zW0NAQEhdMltDSDJdW0NAQEhdKFtDQEBIXTM0KVtDQEBIXTRjNW5jKG9uNSlbTkhdW0NIM10=

>  <s_glide_docking_method>  (1) 
confgen

>  <s_i_glide_gridfile>  (1) 
gpcr_drd2_6luq_protein_autoprepared_prepared

>  <s_lp_Force_Field>  (1) 
S-OPLS

>  <s_lp_Variant>  (1) 
DiffSBDD_0-14

>  <s_m_source_file>  (1) 
generated_generic_title2_ligand_DiffSBDD_2026-06-23_prepared.sdf

>  <GenAI_Model>  (1) 
DiffSBDD

>  <Protein>  (1) 
generic_title2

$$$$
DiffSBDD_39
     RDKit          3D

  0  0  0  0  0  0  0  0  0  0999 V3000
M  V30 BEGIN CTAB
M  V30 COUNTS 69 72 0 0 1
M  V30 BEGIN ATOM
M  V30 1 C 8.976234 5.076249 -15.561678 0
M  V30 2 F 13.212279 5.031911 -20.240069 0
M  V30 3 F 12.019291 4.198627 -18.656891 0
M  V30 4 C 11.631939 8.849317 -9.370320 0
M  V30 5 C 9.134986 5.557641 -13.011472 0
M  V30 6 C 7.088793 6.296245 -11.750166 0 CFG=1
M  V30 7 O 12.890032 8.765101 -8.734756 0
M  V30 8 C 9.604617 5.812284 -20.176917 0 CFG=2
M  V30 9 C 6.078251 5.403869 -15.398047 0
M  V30 10 C 9.320110 5.892518 -10.541720 0 CFG=2
M  V30 11 O 9.544997 5.025478 -22.470404 0
M  V30 12 C 6.819697 5.454201 -16.738059 0
M  V30 13 N 8.084523 4.672815 -16.686733 0 CFG=1 CHG=1
M  V30 14 C 11.431374 3.653487 -20.859633 0
M  V30 15 C 8.247091 5.068515 -14.187822 0 CFG=1
M  V30 16 C 8.792206 4.551258 -17.997575 0
M  V30 17 O 10.013616 3.514270 -20.747962 0
M  V30 18 C 6.213156 5.805649 -12.908598 0
M  V30 19 N 8.414907 5.597114 -11.704209 0 CFG=2 CHG=1
M  V30 20 C 10.961144 7.471225 -9.377156 0 CFG=1
M  V30 21 C 10.347460 7.083199 -8.017294 0
M  V30 22 C 8.693961 5.792568 -18.928963 0
M  V30 23 C 6.955276 5.898950 -14.252290 0 CFG=2
M  V30 24 C 9.293250 4.644606 -21.136872 0 CFG=1
M  V30 25 C 11.098858 5.980441 -19.872005 0
M  V30 26 C 9.762545 5.658605 -8.043990 0
M  V30 27 C 11.966511 4.715527 -19.884077 0
M  V30 28 O 11.576106 7.084177 -19.613235 0
M  V30 29 C 8.742621 5.449938 -9.179680 0
M  V30 30 O 7.412874 7.651949 -11.985078 0
M  V30 31 C 9.890145 7.338092 -10.472159 0
M  V30 32 H 9.384796 6.054946 -15.790199 0
M  V30 33 H 9.825400 4.392000 -15.515756 0
M  V30 34 H 10.999731 9.589715 -8.889952 0
M  V30 35 H 11.818691 9.189992 -10.385869 0
M  V30 36 H 9.517138 6.556623 -13.185024 0
M  V30 37 H 10.005384 4.905122 -12.930475 0
M  V30 38 H 6.542878 6.176412 -10.814005 0
M  V30 39 H 13.452060 9.450714 -9.083954 0
M  V30 40 H 9.323993 6.718093 -20.716298 0
M  V30 41 H 5.164990 5.997453 -15.460926 0
M  V30 42 H 5.776374 4.385526 -15.173473 0
M  V30 43 H 10.174940 5.242197 -10.706744 0
M  V30 44 H 9.204566 4.349265 -23.036765 0
M  V30 45 H 7.015157 6.496586 -16.988283 0
M  V30 46 H 6.176906 5.058034 -17.526372 0
M  V30 47 H 11.718062 3.890479 -21.886050 0
M  V30 48 H 11.889424 2.689038 -20.638081 0
M  V30 49 H 7.970049 4.033628 -13.977405 0
M  V30 50 H 9.825697 4.273453 -17.812982 0
M  V30 51 H 8.353934 3.699784 -18.520423 0
M  V30 52 H 5.296770 6.395915 -12.947206 0
M  V30 53 H 5.904655 4.776319 -12.718279 0
M  V30 54 H 11.767410 6.790338 -9.609628 0
M  V30 55 H 11.101448 7.153592 -7.231886 0
M  V30 56 H 9.561453 7.791892 -7.751863 0
M  V30 57 H 7.664753 5.906718 -19.271532 0
M  V30 58 H 8.914088 6.706181 -18.380149 0
M  V30 59 H 7.211091 6.942107 -14.452383 0
M  V30 60 H 8.234472 4.383515 -21.093953 0
M  V30 61 H 10.572627 4.937741 -8.146084 0
M  V30 62 H 9.287326 5.450812 -7.086836 0
M  V30 63 H 8.453283 4.400542 -9.218302 0
M  V30 64 H 7.832940 5.990105 -8.933239 0
M  V30 65 H 7.291450 8.059377 -11.121523 0
M  V30 66 H 9.105521 8.058677 -10.246236 0
M  V30 67 H 10.321784 7.628073 -11.429272 0
M  V30 68 H 7.805512 3.728559 -16.458875 0
M  V30 69 H 8.154027 4.634454 -11.543593 0
M  V30 END ATOM
M  V30 BEGIN BOND
M  V30 1 1 7 4
M  V30 2 1 12 9
M  V30 3 1 13 1
M  V30 4 1 13 12
M  V30 5 1 15 1
M  V30 6 1 15 5
M  V30 7 1 16 13
M  V30 8 1 17 14
M  V30 9 1 18 6
M  V30 10 1 19 5
M  V30 11 1 19 6
M  V30 12 1 19 10
M  V30 13 1 20 4
M  V30 14 1 21 20
M  V30 15 1 22 8
M  V30 16 1 22 16
M  V30 17 1 23 9
M  V30 18 1 23 15
M  V30 19 1 23 18
M  V30 20 1 24 8
M  V30 21 1 24 11
M  V30 22 1 24 17
M  V30 23 1 25 8
M  V30 24 1 26 21
M  V30 25 1 27 2
M  V30 26 1 27 3
M  V30 27 1 27 14
M  V30 28 1 27 25
M  V30 29 2 28 25
M  V30 30 1 29 10
M  V30 31 1 29 26
M  V30 32 1 30 6
M  V30 33 1 31 10
M  V30 34 1 31 20
M  V30 35 1 32 1
M  V30 36 1 33 1
M  V30 37 1 34 4
M  V30 38 1 35 4
M  V30 39 1 36 5
M  V30 40 1 37 5
M  V30 41 1 6 38 CFG=1
M  V30 42 1 39 7
M  V30 43 1 8 40 CFG=3
M  V30 44 1 41 9
M  V30 45 1 42 9
M  V30 46 1 10 43 CFG=3
M  V30 47 1 44 11
M  V30 48 1 45 12
M  V30 49 1 46 12
M  V30 50 1 47 14
M  V30 51 1 48 14
M  V30 52 1 15 49 CFG=1
M  V30 53 1 50 16
M  V30 54 1 51 16
M  V30 55 1 52 18
M  V30 56 1 53 18
M  V30 57 1 20 54 CFG=3
M  V30 58 1 55 21
M  V30 59 1 56 21
M  V30 60 1 57 22
M  V30 61 1 58 22
M  V30 62 1 23 59 CFG=3
M  V30 63 1 24 60 CFG=3
M  V30 64 1 61 26
M  V30 65 1 62 26
M  V30 66 1 63 29
M  V30 67 1 64 29
M  V30 68 1 65 30
M  V30 69 1 66 31
M  V30 70 1 67 31
M  V30 71 1 13 68 CFG=1
M  V30 72 1 19 69 CFG=1
M  V30 END BOND
M  V30 END CTAB
M  END
>  <i_epik_Tot_Q>  (1) 
2

>  <i_epik_Tot_abs_Q>  (1) 
2

>  <i_i_glide_confnum>  (1) 
146

>  <i_i_glide_lignum>  (1) 
113

>  <i_i_glide_posenum>  (1) 
376

>  <i_i_glide_rotatable_bonds>  (1) 
8

>  <i_lp_mmshare_version>  (1) 
72125

>  <i_m_source_file_index>  (1) 
40

>  <i_f3d_flags>  (1) 
0

>  <num_sample>  (1) 
50

>  <b_lp_Chiralities_Consistent>  (1) 
1

>  <r_epik_Charging_Adjusted_Penalty>  (1) 
1.743801429740254

>  <r_epik_Ionization_Penalty>  (1) 
1.6051069046209219

>  <r_epik_Ionization_Penalty_Charging>  (1) 
0.6098477401054202

>  <r_epik_Ionization_Penalty_Neutral>  (1) 
0.99525916451550167

>  <r_epik_State_Penalty>  (1) 
1.1339536896348337

>  <r_glide_ring_energy>  (1) 
1.2534239858202507

>  <r_i_docking_score>  (1) 
-3.9222698282076793

>  <r_i_glide_ecoul>  (1) 
-11.533351546569536

>  <r_i_glide_eff_state_penalty>  (1) 
1.1339536896348337

>  <r_i_glide_einternal>  (1) 
20.372902633617976

>  <r_i_glide_emodel>  (1) 
-26.551716384668847

>  <r_i_glide_emodel_strain>  (1) 
0.66445514897566227

>  <r_i_glide_energy>  (1) 
-30.595611554232903

>  <r_i_glide_erotb>  (1) 
0.49785121930328097

>  <r_i_glide_esite>  (1) 
-0.12068472706203498

>  <r_i_glide_evdw>  (1) 
-19.062260007663365

>  <r_i_glide_gscore>  (1) 
-5.056223517842513

>  <r_i_glide_gscore_strain>  (1) 
0

>  <r_i_glide_hbond>  (1) 
-0.45348771067631732

>  <r_i_glide_ligand_efficiency>  (1) 
-0.12652483316798965

>  <r_i_glide_ligand_efficiency_ln>  (1) 
-0.88459204939521585

>  <r_i_glide_ligand_efficiency_sa>  (1) 
-0.3974626629609716

>  <r_i_glide_lipo>  (1) 
-1.1327713663530088

>  <r_i_glide_metal>  (1) 
-0

>  <r_i_glide_rewards>  (1) 
-1.164015200685834

>  <r_lp_Energy>  (1) 
47.174439

>  <r_lp_tautomer_probability>  (1) 
0.99995000000000001

>  <s_epik_Chemistry_Notes>  (1) 
This compound contains an acetal/aminal-like group ( X-CH(R)-Y where X, Y are N, S, or O) that may be acid/base labile, releasing an aldehyde.

>  <s_epik_cmdline>  (1) 
J2VwaWtfcHl0aG9uJywgJy1waHQnLCAnMS4wJywgJy1waCcsICc3LjQnLCAnLXRuJywgJzgnLCAnLW1hJywgJzUwMCcsICctaW1hZScsICc8aW5maWxlLm1hZT4nLCAnLW9tYWUnLCAnPG91dGZpbGUubWFlPic=

>  <s_epik_input>  (1) 
RkMxKEYpW0NIMl1PW0NASF0oW09IXSlbQ0BIXShDMT1PKVtDSDJdW0NIMl1OKFtDSDJdMilbQ0gyXVtDSDJdW0NASF0oW0NAQEhdMjMpW0NIMl1bQ0BIXShbT0hdKU4oW0NIMl0zKVtDQEBIXTRbQ0gyXVtDSDJdW0NIMl1bQ0BASF0oW0NIMl00KVtDSDJdW09IXQ==

>  <s_glide_docking_method>  (1) 
confgen

>  <s_i_glide_gridfile>  (1) 
gpcr_drd2_6luq_protein_autoprepared_prepared

>  <s_lp_Force_Field>  (1) 
S-OPLS

>  <s_lp_Variant>  (1) 
DiffSBDD_39-9

>  <s_m_source_file>  (1) 
generated_generic_title2_ligand_DiffSBDD_2026-06-23_prepared.sdf

>  <GenAI_Model>  (1) 
DiffSBDD

>  <Protein>  (1) 
generic_title2

$$$$
DiffSBDD_37
     RDKit          3D

  0  0  0  0  0  0  0  0  0  0999 V3000
M  V30 BEGIN CTAB
M  V30 COUNTS 79 84 0 0 1
M  V30 BEGIN ATOM
M  V30 1 C 6.776106 5.475788 -13.676233 0 CFG=1
M  V30 2 O 11.375413 6.454828 -6.402473 0
M  V30 3 F 12.776627 4.947349 -19.013060 0
M  V30 4 C 9.536444 5.932428 -10.903945 0
M  V30 5 C 5.279038 7.457661 -15.545994 0
M  V30 6 O 7.017312 3.192948 -12.880598 0 CHG=-1
M  V30 7 C 6.222455 4.100967 -13.209838 0
M  V30 8 C 10.398296 6.349317 -20.065304 0
M  V30 9 C 7.856619 7.272667 -12.401780 0
M  V30 10 O 6.592124 6.948055 -15.626719 0
M  V30 11 C 8.823998 3.990260 -15.438099 0
M  V30 12 C 11.122169 7.264589 -9.360753 0
M  V30 13 F 13.384228 6.720368 -23.024052 0
M  V30 14 C 9.187768 7.053689 -7.144506 0
M  V30 15 C 8.174291 6.062306 -11.567595 0 CFG=2
M  V30 16 C 7.922342 6.604112 -19.798873 0
M  V30 17 O 8.424772 2.784836 -16.082592 0
M  V30 18 C 6.565900 5.111044 -18.276208 0
M  V30 19 C 7.607245 3.079281 -17.202236 0
M  V30 20 C 9.114715 6.128089 -8.371475 0
M  V30 21 C 10.609414 7.543570 -6.865010 0 CFG=2
M  V30 22 C 12.482768 6.596418 -22.036051 0
M  V30 23 C 11.981495 7.855249 -21.358486 0
M  V30 24 O 7.056211 5.590232 -10.845873 0
M  V30 25 C 9.218448 6.144067 -19.113165 0 CFG=1
M  V30 26 C 11.053401 5.079180 -20.604999 0 CFG=1
M  V30 27 O 4.975642 3.990222 -13.185041 0
M  V30 28 N 8.031385 5.957451 -13.032583 0
M  V30 29 C 6.787900 5.584864 -15.250132 0 CFG=1
M  V30 30 C 8.055340 5.137178 -16.085321 0 CFG=2
M  V30 31 C 6.743823 6.520361 -18.835516 0
M  V30 32 C 12.068325 5.364816 -21.701503 0
M  V30 33 C 9.673358 6.818192 -9.635741 0 CFG=2
M  V30 34 C 11.714912 4.280749 -19.468141 0 CFG=2
M  V30 35 C 10.827579 7.582652 -20.407629 0
M  V30 36 S 10.606114 3.928219 -18.078687 0
M  V30 37 C 11.241508 8.171061 -8.122584 0
M  V30 38 C 9.023062 4.699800 -18.572218 0 CFG=1
M  V30 39 C 7.823785 4.566923 -17.535198 0 CFG=2
M  V30 40 H 5.955795 6.107679 -13.345950 0
M  V30 41 H 11.289951 5.748300 -7.025032 0
M  V30 42 H 9.726269 4.881664 -10.681868 0
M  V30 43 H 10.286952 6.224018 -11.639818 0
M  V30 44 H 5.238208 8.431391 -16.033785 0
M  V30 45 H 4.575227 6.799235 -16.052390 0
M  V30 46 H 4.975534 7.599456 -14.511125 0
M  V30 47 H 6.841564 7.663133 -12.406061 0
M  V30 48 H 8.652690 7.947008 -12.710139 0
M  V30 49 H 9.884599 4.165819 -15.585223 0
M  V30 50 H 8.751065 3.907013 -14.363773 0
M  V30 51 H 11.733124 6.390503 -9.185042 0
M  V30 52 H 11.534843 7.776082 -10.231193 0
M  V30 53 H 8.768403 6.553120 -6.271914 0
M  V30 54 H 8.575443 7.934324 -7.323387 0
M  V30 55 H 7.725926 5.989053 -20.678105 0
M  V30 56 H 8.015806 7.626979 -20.160216 0
M  V30 57 H 6.319644 4.438145 -19.098341 0
M  V30 58 H 5.680755 5.132641 -17.651962 0
M  V30 59 H 7.843430 2.417977 -18.037205 0
M  V30 60 H 6.575410 2.871079 -16.919328 0
M  V30 61 H 8.078655 5.829606 -8.515801 0
M  V30 62 H 9.659787 5.203684 -8.178167 0
M  V30 63 H 10.584999 8.286351 -6.067054 0
M  V30 64 H 11.646632 8.554844 -22.126123 0
M  V30 65 H 12.798448 8.329208 -20.812260 0
M  V30 66 H 6.838661 6.274114 -10.214738 0
M  V30 67 H 9.408929 6.789855 -18.262421 0
M  V30 68 H 10.273305 4.476689 -21.071422 0
M  V30 69 H 5.938124 4.997055 -15.584802 0
M  V30 70 H 8.731594 5.990088 -16.124324 0
M  V30 71 H 5.828156 6.850668 -19.327676 0
M  V30 72 H 6.917961 7.190429 -18.004473 0
M  V30 73 H 12.465892 4.508078 -22.226064 0
M  V30 74 H 9.102401 7.731130 -9.811231 0
M  V30 75 H 12.098224 3.331656 -19.842918 0
M  V30 76 H 10.333291 8.449245 -19.996680 0
M  V30 77 H 12.288861 8.411300 -7.932508 0
M  V30 78 H 10.748467 9.118701 -8.336872 0
M  V30 79 H 8.725462 4.096710 -19.431400 0
M  V30 END ATOM
M  V30 BEGIN BOND
M  V30 1 1 7 1
M  V30 2 1 7 6
M  V30 3 1 10 5
M  V30 4 1 15 4
M  V30 5 1 15 9
M  V30 6 1 17 11
M  V30 7 1 19 17
M  V30 8 1 20 14
M  V30 9 1 21 2
M  V30 10 1 21 14
M  V30 11 1 22 13
M  V30 12 1 23 22
M  V30 13 1 15 24 CFG=1
M  V30 14 1 25 8
M  V30 15 1 25 16
M  V30 16 1 26 8
M  V30 17 2 27 7
M  V30 18 1 28 1
M  V30 19 1 28 9
M  V30 20 1 28 15
M  V30 21 1 29 1
M  V30 22 1 29 10
M  V30 23 1 30 11
M  V30 24 1 30 29
M  V30 25 1 31 16
M  V30 26 1 31 18
M  V30 27 2 32 22
M  V30 28 1 32 26
M  V30 29 1 33 4
M  V30 30 1 33 12
M  V30 31 1 33 20
M  V30 32 1 34 3
M  V30 33 1 34 26
M  V30 34 2 35 8
M  V30 35 1 35 23
M  V30 36 1 36 34
M  V30 37 1 37 12
M  V30 38 1 37 21
M  V30 39 1 38 25
M  V30 40 1 38 36
M  V30 41 1 39 18 CFG=3
M  V30 42 1 39 19
M  V30 43 1 39 30
M  V30 44 1 39 38
M  V30 45 1 1 40 CFG=1
M  V30 46 1 41 2
M  V30 47 1 42 4
M  V30 48 1 43 4
M  V30 49 1 44 5
M  V30 50 1 45 5
M  V30 51 1 46 5
M  V30 52 1 47 9
M  V30 53 1 48 9
M  V30 54 1 49 11
M  V30 55 1 50 11
M  V30 56 1 51 12
M  V30 57 1 52 12
M  V30 58 1 53 14
M  V30 59 1 54 14
M  V30 60 1 55 16
M  V30 61 1 56 16
M  V30 62 1 57 18
M  V30 63 1 58 18
M  V30 64 1 59 19
M  V30 65 1 60 19
M  V30 66 1 61 20
M  V30 67 1 62 20
M  V30 68 1 21 63 CFG=1
M  V30 69 1 64 23
M  V30 70 1 65 23
M  V30 71 1 66 24
M  V30 72 1 25 67 CFG=1
M  V30 73 1 26 68 CFG=3
M  V30 74 1 29 69 CFG=3
M  V30 75 1 30 70 CFG=3
M  V30 76 1 71 31
M  V30 77 1 72 31
M  V30 78 1 73 32
M  V30 79 1 33 74 CFG=3
M  V30 80 1 34 75 CFG=3
M  V30 81 1 76 35
M  V30 82 1 77 37
M  V30 83 1 78 37
M  V30 84 1 38 79 CFG=3
M  V30 END BOND
M  V30 END CTAB
M  END
>  <i_epik_Tot_Q>  (1) 
-1

>  <i_epik_Tot_abs_Q>  (1) 
1

>  <i_i_glide_confnum>  (1) 
177

>  <i_i_glide_lignum>  (1) 
102

>  <i_i_glide_posenum>  (1) 
392

>  <i_i_glide_rotatable_bonds>  (1) 
9

>  <i_lp_mmshare_version>  (1) 
72125

>  <i_m_source_file_index>  (1) 
38

>  <i_f3d_flags>  (1) 
0

>  <num_sample>  (1) 
50

>  <b_lp_Chiralities_Consistent>  (1) 
1

>  <r_epik_Charging_Adjusted_Penalty>  (1) 
0.59816734689740336

>  <r_epik_Ionization_Penalty>  (1) 
0.59818128409548943

>  <r_epik_Ionization_Penalty_Charging>  (1) 
0.00097473608303856986

>  <r_epik_Ionization_Penalty_Neutral>  (1) 
0.59720654801245088

>  <r_epik_State_Penalty>  (1) 
0.59719261081436481

>  <r_glide_ring_energy>  (1) 
1.2343154021944669

>  <r_i_docking_score>  (1) 
-3.9181198983352061

>  <r_i_glide_ecoul>  (1) 
-2.8929184539137216

>  <r_i_glide_eff_state_penalty>  (1) 
0.59719261081436481

>  <r_i_glide_einternal>  (1) 
21.283229958376673

>  <r_i_glide_emodel>  (1) 
-23.355458166051097

>  <r_i_glide_emodel_strain>  (1) 
1.1403800045780059

>  <r_i_glide_energy>  (1) 
-32.976381781922377

>  <r_i_glide_erotb>  (1) 
0.23359109936798597

>  <r_i_glide_esite>  (1) 
-0.069090127776235605

>  <r_i_glide_evdw>  (1) 
-30.083463328008655

>  <r_i_glide_gscore>  (1) 
-4.5153125091495712

>  <r_i_glide_gscore_strain>  (1) 
0

>  <r_i_glide_hbond>  (1) 
-0.16

>  <r_i_glide_ligand_efficiency>  (1) 
-0.1004646127778258

>  <r_i_glide_ligand_efficiency_ln>  (1) 
-0.84015612865049349

>  <r_i_glide_ligand_efficiency_sa>  (1) 
-0.34069674447015014

>  <r_i_glide_lipo>  (1) 
-1.9532592809621654

>  <r_i_glide_metal>  (1) 
-0

>  <r_i_glide_rewards>  (1) 
-0.62844326529166517

>  <r_lp_Energy>  (1) 
44.555437999999995

>  <s_epik_cmdline>  (1) 
J2VwaWtfcHl0aG9uJywgJy1waHQnLCAnMS4wJywgJy1waCcsICc3LjQnLCAnLXRuJywgJzgnLCAnLW1hJywgJzUwMCcsICctaW1hZScsICc8aW5maWxlLm1hZT4nLCAnLW9tYWUnLCAnPG91dGZpbGUubWFlPic=

>  <s_epik_input>  (1) 
W09IXVtDQEBIXTFbQ0gyXVtDSDJdW0NAQEhdKFtDSDJdW0NIMl0xKVtDSDJdW0NAQF0yKFtPSF0pW0NIMl1OMltDQEhdKEMoPU8pW09IXSlbQ0BASF0oT1tDSDNdKVtDQEhdM1tDSDJdT1tDSDJdW0NAXTM0W0NASF01W0NASF0oW0NIMl1bQ0gyXVtDSDJdNClDPTZbQ0BIXShbQ0BASF0oRilTNSlbQ0hdPUMoRilbQ0gyXVtDSF02

>  <s_glide_docking_method>  (1) 
confgen

>  <s_i_glide_gridfile>  (1) 
gpcr_drd2_6luq_protein_autoprepared_prepared

>  <s_lp_Force_Field>  (1) 
S-OPLS

>  <s_lp_Variant>  (1) 
DiffSBDD_37-3

>  <s_m_source_file>  (1) 
generated_generic_title2_ligand_DiffSBDD_2026-06-23_prepared.sdf

>  <GenAI_Model>  (1) 
DiffSBDD

>  <Protein>  (1) 
generic_title2

$$$$
DiffSBDD_0
     RDKit          3D

  0  0  0  0  0  0  0  0  0  0999 V3000
M  V30 BEGIN CTAB
M  V30 COUNTS 70 74 0 0 1
M  V30 BEGIN ATOM
M  V30 1 C 10.708713 9.099472 -6.479412 0
M  V30 2 N 7.665156 5.681776 -13.702903 0
M  V30 3 C 7.031642 3.878642 -17.493704 0 CFG=1
M  V30 4 C 8.791837 7.605655 -12.732457 0
M  V30 5 F 9.880984 6.390144 -6.178724 0
M  V30 6 C 6.765605 6.444856 -14.582902 0
M  V30 7 C 11.683742 8.910761 -7.653962 0
M  V30 8 C 10.516675 7.376684 -11.017124 0
M  V30 9 C 10.366596 6.840816 -8.435861 0 CFG=1
M  V30 10 C 9.657863 3.977589 -17.822118 0
M  V30 11 C 7.520485 4.233073 -13.774476 0 CFG=2
M  V30 12 C 6.338395 4.699100 -11.096331 0
M  V30 13 C 8.329326 3.339131 -18.089623 0 CFG=1
M  V30 14 O 9.775410 8.157193 -11.946214 0
M  V30 15 C 9.420225 7.055668 -7.234153 0 CFG=2
M  V30 16 C 7.510277 2.490962 -17.125403 0 CFG=1
M  V30 17 N 6.975411 4.526535 -16.153846 0 CFG=1 CHG=1
M  V30 18 C 9.703426 7.374250 -9.723222 0
M  V30 19 C 5.733717 3.791145 -12.189333 0
M  V30 20 C 7.890296 3.862895 -15.218413 0 CFG=2
M  V30 21 O 5.775397 5.990367 -11.185025 0
M  V30 22 C 11.747323 7.447917 -8.108730 0
M  V30 23 N 10.789102 3.257114 -17.579057 0
M  V30 24 C 6.897269 5.993509 -16.059240 0
M  V30 25 N 9.803882 5.303239 -17.848550 0
M  V30 26 O 11.165446 5.500532 -17.570557 0
M  V30 27 C 11.650550 4.252464 -17.437417 0
M  V30 28 O 6.204662 3.851068 -13.540546 0
M  V30 29 N 13.005128 4.186491 -17.165564 0
M  V30 30 C 8.631655 6.279067 -12.903003 0
M  V30 31 C 9.319507 8.535369 -6.824376 0
M  V30 32 C 13.880496 3.051478 -16.945173 0
M  V30 33 C 7.752548 2.396503 -15.624697 0
M  V30 34 H 11.100386 8.590139 -5.597903 0
M  V30 35 H 10.639960 10.152557 -6.210232 0
M  V30 36 H 6.175374 4.023505 -18.142407 0
M  V30 37 H 8.175328 8.360824 -13.191652 0
M  V30 38 H 5.744737 6.275771 -14.237514 0
M  V30 39 H 6.913410 7.520617 -14.534927 0
M  V30 40 H 12.684576 9.216445 -7.353067 0
M  V30 41 H 11.394541 9.541661 -8.495237 0
M  V30 42 H 10.798929 6.390255 -11.369626 0
M  V30 43 H 11.452513 7.911430 -10.861948 0
M  V30 44 H 10.501604 5.767128 -8.570456 0
M  V30 45 H 8.191791 3.747709 -13.063018 0
M  V30 46 H 7.425746 4.722173 -11.100116 0
M  V30 47 H 6.062192 4.300882 -10.120066 0
M  V30 48 H 8.291907 3.046743 -19.136949 0
M  V30 49 H 8.436561 6.638534 -7.445140 0
M  V30 50 H 6.995412 1.637760 -17.563050 0
M  V30 51 H 9.375294 8.399600 -9.566486 0
M  V30 52 H 8.801434 6.790130 -9.903915 0
M  V30 53 H 5.859344 2.757920 -11.870157 0
M  V30 54 H 4.661670 3.990284 -12.231365 0
M  V30 55 H 8.913236 4.201250 -15.378375 0
M  V30 56 H 6.182420 6.562498 -10.533715 0
M  V30 57 H 12.185047 6.861935 -7.300266 0
M  V30 58 H 12.425819 7.356900 -8.954814 0
M  V30 59 H 6.052876 6.360119 -16.642915 0
M  V30 60 H 7.783373 6.390213 -16.520417 0
M  V30 61 H 13.466124 5.081714 -17.096163 0
M  V30 62 H 9.269649 5.564516 -12.412495 0
M  V30 63 H 8.638708 8.630354 -5.985039 0
M  V30 64 H 8.862014 9.130880 -7.613144 0
M  V30 65 H 14.752725 3.350728 -16.363546 0
M  V30 66 H 13.359324 2.264139 -16.399035 0
M  V30 67 H 14.217711 2.644714 -17.898363 0
M  V30 68 H 6.877562 1.938118 -15.161145 0
M  V30 69 H 8.611148 1.773230 -15.394477 0
M  V30 70 H 6.080854 4.237883 -15.781553 0
M  V30 END ATOM
M  V30 BEGIN BOND
M  V30 1 1 6 2
M  V30 2 1 7 1
M  V30 3 1 11 2
M  V30 4 1 13 3
M  V30 5 1 13 10
M  V30 6 1 14 4
M  V30 7 1 14 8
M  V30 8 1 15 5
M  V30 9 1 15 9
M  V30 10 1 16 3
M  V30 11 1 16 13
M  V30 12 1 17 3
M  V30 13 1 18 8
M  V30 14 1 18 9
M  V30 15 1 19 12
M  V30 16 1 20 11
M  V30 17 1 20 17
M  V30 18 1 21 12
M  V30 19 1 22 7
M  V30 20 1 22 9
M  V30 21 1 23 10
M  V30 22 1 24 6
M  V30 23 1 24 17
M  V30 24 2 25 10
M  V30 25 1 26 25
M  V30 26 2 27 23
M  V30 27 1 27 26
M  V30 28 1 28 11
M  V30 29 1 28 19
M  V30 30 1 29 27
M  V30 31 1 30 2
M  V30 32 2 30 4
M  V30 33 1 31 1
M  V30 34 1 31 15
M  V30 35 1 32 29
M  V30 36 1 33 16
M  V30 37 1 33 20
M  V30 38 1 34 1
M  V30 39 1 35 1
M  V30 40 1 3 36 CFG=3
M  V30 41 1 37 4
M  V30 42 1 38 6
M  V30 43 1 39 6
M  V30 44 1 40 7
M  V30 45 1 41 7
M  V30 46 1 42 8
M  V30 47 1 43 8
M  V30 48 1 9 44 CFG=3
M  V30 49 1 11 45 CFG=1
M  V30 50 1 46 12
M  V30 51 1 47 12
M  V30 52 1 13 48 CFG=3
M  V30 53 1 15 49 CFG=3
M  V30 54 1 16 50 CFG=3
M  V30 55 1 51 18
M  V30 56 1 52 18
M  V30 57 1 53 19
M  V30 58 1 54 19
M  V30 59 1 20 55 CFG=3
M  V30 60 1 56 21
M  V30 61 1 57 22
M  V30 62 1 58 22
M  V30 63 1 59 24
M  V30 64 1 60 24
M  V30 65 1 61 29
M  V30 66 1 62 30
M  V30 67 1 63 31
M  V30 68 1 64 31
M  V30 69 1 65 32
M  V30 70 1 66 32
M  V30 71 1 67 32
M  V30 72 1 68 33
M  V30 73 1 69 33
M  V30 74 1 17 70 CFG=1
M  V30 END BOND
M  V30 END CTAB
M  END
>  <i_epik_Tot_Q>  (1) 
1

>  <i_epik_Tot_abs_Q>  (1) 
1

>  <i_i_glide_confnum>  (1) 
14

>  <i_i_glide_lignum>  (1) 
2

>  <i_i_glide_posenum>  (1) 
222

>  <i_i_glide_rotatable_bonds>  (1) 
11

>  <i_lp_mmshare_version>  (1) 
72125

>  <i_m_source_file_index>  (1) 
1

>  <i_f3d_flags>  (1) 
0

>  <num_sample>  (1) 
50

>  <b_lp_Chiralities_Consistent>  (1) 
1

>  <r_epik_Charging_Adjusted_Penalty>  (1) 
0.41344222577729461

>  <r_epik_Ionization_Penalty>  (1) 
0.0027644559619576371

>  <r_epik_Ionization_Penalty_Charging>  (1) 
0.0027623868246906495

>  <r_epik_Ionization_Penalty_Neutral>  (1) 
2.0691372669875143e-06

>  <r_epik_State_Penalty>  (1) 
0.41067983895260396

>  <r_glide_ring_energy>  (1) 
1.3007136337365988

>  <r_i_docking_score>  (1) 
-3.9041173596092844

>  <r_i_glide_ecoul>  (1) 
-4.2718534539452184

>  <r_i_glide_eff_state_penalty>  (1) 
0.41067983895260396

>  <r_i_glide_einternal>  (1) 
4.4072121213997377

>  <r_i_glide_emodel>  (1) 
-39.9155085658724

>  <r_i_glide_emodel_strain>  (1) 
2.2486985746432566

>  <r_i_glide_energy>  (1) 
-34.057953688206524

>  <r_i_glide_erotb>  (1) 
0.74142510397790429

>  <r_i_glide_esite>  (1) 
0

>  <r_i_glide_evdw>  (1) 
-29.786100234261305

>  <r_i_glide_gscore>  (1) 
-4.3147971985618883

>  <r_i_glide_gscore_strain>  (1) 
0

>  <r_i_glide_hbond>  (1) 
-0.16

>  <r_i_glide_ligand_efficiency>  (1) 
-0.1183065866548268

>  <r_i_glide_ligand_efficiency_ln>  (1) 
-0.86825548633927019

>  <r_i_glide_ligand_efficiency_sa>  (1) 
-0.37947243815998311

>  <r_i_glide_lipo>  (1) 
-1.4014623254058569

>  <r_i_glide_metal>  (1) 
-0

>  <r_i_glide_rewards>  (1) 
-1.3646769473290872

>  <r_lp_Energy>  (1) 
46.492728

>  <r_lp_tautomer_probability>  (1) 
0.5

>  <s_epik_Chemistry_Notes>  (1) 
This compound has an imine and may undergo hydrolysis. This compound contains an acetal/aminal-like group ( X-CH(R)-Y where X, Y are N, S, or O) that may be acid/base labile, releasing an aldehyde.

>  <s_epik_cmdline>  (1) 
J2VwaWtfcHl0aG9uJywgJy1waHQnLCAnMS4wJywgJy1waCcsICc3LjQnLCAnLXRuJywgJzgnLCAnLW1hJywgJzUwMCcsICctaW1hZScsICc8aW5maWxlLm1hZT4nLCAnLW9tYWUnLCAnPG91dGZpbGUubWFlPic=

>  <s_epik_input>  (1) 
W0NIMl0xW0NIMl1bQ0gyXVtDSDJdW0NASF0oRilbQ0BIXTFbQ0gyXVtDSDJdTy9bQ0hdPVtDSF0vTihbQ0BIXTJPW0NIMl1bQ0gyXVtPSF0pW0NIMl1bQ0gyXU4zW0NAQEhdMltDSDJdW0NAQEhdKFtDQEBIXTM0KVtDQEBIXTRjNW5jKG9uNSlbTkhdW0NIM10=

>  <s_glide_docking_method>  (1) 
confgen

>  <s_i_glide_gridfile>  (1) 
gpcr_drd2_6luq_protein_autoprepared_prepared

>  <s_lp_Force_Field>  (1) 
S-OPLS

>  <s_lp_Variant>  (1) 
DiffSBDD_0-2

>  <s_m_source_file>  (1) 
generated_generic_title2_ligand_DiffSBDD_2026-06-23_prepared.sdf

>  <GenAI_Model>  (1) 
DiffSBDD

>  <Protein>  (1) 
generic_title2

$$$$
DiffSBDD_28
     RDKit          3D

  0  0  0  0  0  0  0  0  0  0999 V3000
M  V30 BEGIN CTAB
M  V30 COUNTS 79 86 0 0 1
M  V30 BEGIN ATOM
M  V30 1 F 7.810639 -2.411402 -20.321007 0
M  V30 2 C 9.438140 7.201205 -9.807099 0 CFG=1
M  V30 3 C 7.860020 4.677580 -12.154421 0 CFG=2
M  V30 4 C 11.826375 8.432955 -9.203198 0 CFG=2
M  V30 5 C 7.003632 2.396380 -16.594172 0 CFG=1
M  V30 6 C 9.171695 8.596421 -10.385357 0
M  V30 7 C 6.964016 3.624509 -14.248719 0 CFG=2
M  V30 8 C 7.037373 -0.852408 -17.676702 0 CFG=1
M  V30 9 C 9.103834 3.954816 -11.640248 0
M  V30 10 C 6.992582 1.007944 -15.966259 0 CFG=1
M  V30 11 C 10.399472 6.560186 -7.896246 0 CFG=1
M  V30 12 C 7.343453 6.090975 -13.951169 0
M  V30 13 C 10.827340 7.286777 -9.165521 0 CFG=1
M  V30 14 O 10.688108 7.112866 -6.630486 0
M  V30 15 C 8.082788 -1.098392 -19.983271 0 CFG=1
M  V30 16 C 7.058730 3.667909 -15.766100 0 CFG=1
M  V30 17 O 8.229569 3.111020 -16.355026 0
M  V30 18 N 7.780545 4.714564 -13.629038 0 CFG=1 CHG=1
M  V30 19 O 11.911311 9.484011 -7.102712 0
M  V30 20 C 9.058669 -0.407063 -20.844598 0
M  V30 21 O 12.059742 7.190228 -9.881920 0
M  V30 22 C 6.585588 1.074088 -14.474788 0
M  V30 23 C 8.975423 6.807382 -8.377042 0
M  V30 24 N 9.288857 6.147813 -10.860245 0
M  V30 25 C 12.697015 8.711500 -8.007725 0
M  V30 26 N 6.354940 -2.165470 -17.640205 0 CHG=1
M  V30 27 C 7.310859 2.207162 -13.718920 0
M  V30 28 C 4.983163 -1.924048 -17.186984 0
M  V30 29 C 5.156891 -0.783885 -16.193380 0
M  V30 30 O 9.126798 0.768578 -21.193769 0
M  V30 31 C 7.964252 6.985973 -12.875069 0
M  V30 32 C 7.123377 -0.304288 -19.114431 0
M  V30 33 O 9.495862 -0.809757 -19.679248 0
M  V30 34 N 6.213425 0.049281 -16.817580 0 CFG=2 CHG=1
M  V30 35 C 9.317084 4.768785 -10.384381 0
M  V30 36 C 12.505644 9.689641 -5.832812 0
M  V30 37 C 8.026616 6.118456 -11.616508 0 CFG=1
M  V30 38 H 6.950855 4.257467 -11.722277 0
M  V30 39 H 11.674599 9.274798 -9.873047 0
M  V30 40 H 6.652203 2.474351 -17.621655 0
M  V30 41 H 9.303971 9.363487 -9.623190 0
M  V30 42 H 9.843522 8.788819 -11.221422 0
M  V30 43 H 8.175416 8.745813 -10.784916 0
M  V30 44 H 5.920442 3.815769 -13.992339 0
M  V30 45 H 8.037067 -1.002378 -17.266481 0
M  V30 46 H 9.954823 4.079772 -12.312731 0
M  V30 47 H 8.975545 2.889641 -11.469414 0
M  V30 48 H 8.035225 0.687086 -15.960533 0
M  V30 49 H 10.611245 5.492660 -7.892936 0
M  V30 50 H 6.255579 6.153325 -13.892574 0
M  V30 51 H 7.645543 6.393352 -14.954979 0
M  V30 52 H 10.824917 8.044220 -6.758164 0
M  V30 53 H 6.712683 4.583302 -16.243450 0
M  V30 54 H 6.839165 0.131152 -13.989835 0
M  V30 55 H 5.508046 1.190055 -14.361623 0
M  V30 56 H 8.280027 5.978512 -8.269218 0
M  V30 57 H 8.575374 7.671334 -7.847631 0
M  V30 58 H 12.976659 7.750959 -7.585050 0
M  V30 59 H 13.624004 9.190207 -8.312873 0
M  V30 60 H 6.813999 -2.734208 -16.935649 0
M  V30 61 H 8.387440 2.038546 -13.769480 0
M  V30 62 H 7.038783 2.125705 -12.668148 0
M  V30 63 H 4.532522 -2.826175 -16.784823 0
M  V30 64 H 4.375578 -1.602193 -18.034238 0
M  V30 65 H 5.488058 -1.200843 -15.243007 0
M  V30 66 H 4.234832 -0.226684 -16.020729 0
M  V30 67 H 7.394805 7.902993 -12.728759 0
M  V30 68 H 8.972727 7.266104 -13.166311 0
M  V30 69 H 6.139198 -0.307296 -19.585768 0
M  V30 70 H 7.445620 0.737669 -19.090512 0
M  V30 71 H 10.175382 4.496843 -9.809677 0
M  V30 72 H 8.471730 4.561374 -9.728341 0
M  V30 73 H 11.949907 10.464879 -5.305056 0
M  V30 74 H 12.458384 8.790868 -5.221993 0
M  V30 75 H 13.547710 9.997477 -5.914404 0
M  V30 76 H 7.184343 6.334134 -10.958970 0
M  V30 77 H 8.730235 4.629500 -13.964269 0
M  V30 78 H 6.387790 -2.652900 -18.526047 0
M  V30 79 H 5.704828 0.632768 -17.467959 0
M  V30 END ATOM
M  V30 BEGIN BOND
M  V30 1 1 2 6 CFG=3
M  V30 2 1 9 3
M  V30 3 1 10 5
M  V30 4 1 13 2
M  V30 5 1 13 4
M  V30 6 1 13 11
M  V30 7 1 14 11
M  V30 8 1 15 1 CFG=3
M  V30 9 1 16 5
M  V30 10 1 16 7
M  V30 11 1 17 5
M  V30 12 1 17 16
M  V30 13 1 18 3
M  V30 14 1 18 7
M  V30 15 1 18 12
M  V30 16 1 20 15
M  V30 17 1 21 4
M  V30 18 1 13 21 CFG=3
M  V30 19 1 22 10
M  V30 20 1 23 2
M  V30 21 1 23 11
M  V30 22 1 24 2
M  V30 23 1 25 4
M  V30 24 1 25 19
M  V30 25 1 26 8
M  V30 26 1 27 7
M  V30 27 1 27 22
M  V30 28 1 28 26
M  V30 29 1 29 28
M  V30 30 2 30 20
M  V30 31 1 31 12
M  V30 32 1 32 8
M  V30 33 1 32 15
M  V30 34 1 33 15
M  V30 35 1 33 20
M  V30 36 1 34 8
M  V30 37 1 34 10
M  V30 38 1 34 29
M  V30 39 1 35 9
M  V30 40 1 35 24
M  V30 41 1 36 19
M  V30 42 1 37 3
M  V30 43 1 37 24
M  V30 44 1 37 31
M  V30 45 1 3 38 CFG=1
M  V30 46 1 4 39 CFG=3
M  V30 47 1 5 40 CFG=3
M  V30 48 1 41 6
M  V30 49 1 42 6
M  V30 50 1 43 6
M  V30 51 1 7 44 CFG=3
M  V30 52 1 8 45 CFG=1
M  V30 53 1 46 9
M  V30 54 1 47 9
M  V30 55 1 10 48 CFG=1
M  V30 56 1 11 49 CFG=1
M  V30 57 1 50 12
M  V30 58 1 51 12
M  V30 59 1 52 14
M  V30 60 1 16 53 CFG=3
M  V30 61 1 54 22
M  V30 62 1 55 22
M  V30 63 1 56 23
M  V30 64 1 57 23
M  V30 65 1 58 25
M  V30 66 1 59 25
M  V30 67 1 60 26
M  V30 68 1 61 27
M  V30 69 1 62 27
M  V30 70 1 63 28
M  V30 71 1 64 28
M  V30 72 1 65 29
M  V30 73 1 66 29
M  V30 74 1 67 31
M  V30 75 1 68 31
M  V30 76 1 69 32
M  V30 77 1 70 32
M  V30 78 1 71 35
M  V30 79 1 72 35
M  V30 80 1 73 36
M  V30 81 1 74 36
M  V30 82 1 75 36
M  V30 83 1 37 76 CFG=1
M  V30 84 1 18 77 CFG=3
M  V30 85 1 78 26
M  V30 86 1 34 79 CFG=3
M  V30 END BOND
M  V30 END CTAB
M  END
>  <i_epik_Tot_Q>  (1) 
3

>  <i_epik_Tot_abs_Q>  (1) 
3

>  <i_i_glide_confnum>  (1) 
672

>  <i_i_glide_lignum>  (1) 
80

>  <i_i_glide_posenum>  (1) 
176

>  <i_i_glide_rotatable_bonds>  (1) 
8

>  <i_lp_mmshare_version>  (1) 
72125

>  <i_m_source_file_index>  (1) 
29

>  <i_f3d_flags>  (1) 
0

>  <num_sample>  (1) 
50

>  <b_lp_Chiralities_Consistent>  (1) 
1

>  <r_epik_Charging_Adjusted_Penalty>  (1) 
2.5241965566360229

>  <r_epik_Ionization_Penalty>  (1) 
2.0480993089750741

>  <r_epik_Ionization_Penalty_Charging>  (1) 
2.0477503768466887

>  <r_epik_Ionization_Penalty_Neutral>  (1) 
0.00034893212838530931

>  <r_epik_State_Penalty>  (1) 
0.4764461797893344

>  <r_glide_ring_energy>  (1) 
0.8191457475608499

>  <r_i_docking_score>  (1) 
-3.9020924210751597

>  <r_i_glide_ecoul>  (1) 
-9.1554122422700974

>  <r_i_glide_eff_state_penalty>  (1) 
0.4764461797893344

>  <r_i_glide_einternal>  (1) 
9.2476945995247064

>  <r_i_glide_emodel>  (1) 
-32.23934776125175

>  <r_i_glide_emodel_strain>  (1) 
7.0457480113848874

>  <r_i_glide_energy>  (1) 
-37.652751412522868

>  <r_i_glide_erotb>  (1) 
0.44698704239028575

>  <r_i_glide_esite>  (1) 
-0.022773733973875061

>  <r_i_glide_evdw>  (1) 
-28.497339170252769

>  <r_i_glide_gscore>  (1) 
-4.378538600864494

>  <r_i_glide_gscore_strain>  (1) 
0.76143700284622184

>  <r_i_glide_hbond>  (1) 
0

>  <r_i_glide_ligand_efficiency>  (1) 
-0.10546195732635567

>  <r_i_glide_ligand_efficiency_ln>  (1) 
-0.84627236810586071

>  <r_i_glide_ligand_efficiency_sa>  (1) 
-0.35142263872023544

>  <r_i_glide_lipo>  (1) 
-2.2039006904067349

>  <r_i_glide_metal>  (1) 
-0

>  <r_i_glide_rewards>  (1) 
-0.56210942686723908

>  <r_lp_Energy>  (1) 
68.604765999999998

>  <s_epik_Chemistry_Notes>  (1) 
This compound has an ester and may undergo hydrolysis at high or low pH. This compound contains an acetal/aminal-like group ( X-CH(R)-Y where X, Y are N, S, or O) that may be acid/base labile, releasing an aldehyde.

>  <s_epik_cmdline>  (1) 
J2VwaWtfcHl0aG9uJywgJy1waHQnLCAnMS4wJywgJy1waCcsICc3LjQnLCAnLXRuJywgJzgnLCAnLW1hJywgJzUwMCcsICctaW1hZScsICc8aW5maWxlLm1hZT4nLCAnLW9tYWUnLCAnPG91dGZpbGUubWFlPic=

>  <s_epik_input>  (1) 
Tz1DKE8xKUMxKEYpW0NIMl1bQ0BASF0yW05IXVtDSDJdW0NIMl1OMltDQEBIXTNbQ0gyXVtDSDJdW0NASF0oW0NAQEhdKE80KVtDQEhdMzQpTjVbQ0gyXVtDSDJdW0NAQEhdKFtDQEhdNTYpTihbQ0gyXVtDSDJdNilbQ0BAXShbQ0gzXSkoW0NIMl1bQ0BASF03W09IXSlbQ0BAXTc4W0NASF0oTzgpW0NIMl1PW0NIM10=

>  <s_glide_docking_method>  (1) 
confgen

>  <s_i_glide_gridfile>  (1) 
gpcr_drd2_6luq_protein_autoprepared_prepared

>  <s_lp_Force_Field>  (1) 
S-OPLS

>  <s_lp_Variant>  (1) 
DiffSBDD_28-3

>  <s_m_source_file>  (1) 
generated_generic_title2_ligand_DiffSBDD_2026-06-23_prepared.sdf

>  <GenAI_Model>  (1) 
DiffSBDD

>  <Protein>  (1) 
generic_title2

$$$$
DiffSBDD_0
     RDKit          3D

  0  0  0  0  0  0  0  0  0  0999 V3000
M  V30 BEGIN CTAB
M  V30 COUNTS 70 74 0 0 1
M  V30 BEGIN ATOM
M  V30 1 C 6.128302 9.552548 -22.391972 0
M  V30 2 N 7.127679 1.521271 -18.583437 0
M  V30 3 C 8.175415 0.296482 -14.627334 0 CFG=1
M  V30 4 C 5.436460 2.930668 -19.652693 0
M  V30 5 F 3.405595 8.790284 -21.671644 0
M  V30 6 C 8.547224 1.240315 -18.370216 0
M  V30 7 C 6.887972 8.652775 -21.405366 0
M  V30 8 C 6.128308 4.687368 -21.159612 0
M  V30 9 C 4.917759 7.003231 -21.348521 0 CFG=1
M  V30 10 C 7.144383 2.617849 -13.708657 0
M  V30 11 C 6.203878 0.687540 -17.795497 0 CFG=2
M  V30 12 C 4.427658 -1.997317 -18.136821 0
M  V30 13 C 7.549109 1.181105 -13.541105 0 CFG=1
M  V30 14 O 5.088663 3.983594 -20.479422 0
M  V30 15 C 4.172884 7.928385 -22.343585 0 CFG=2
M  V30 16 C 6.768740 0.024270 -14.134522 0 CFG=1
M  V30 17 N 7.949337 0.538772 -16.080330 0 CFG=1 CHG=1
M  V30 18 C 5.553015 5.786902 -22.070881 0
M  V30 19 C 5.515842 -1.280965 -18.949025 0
M  V30 20 C 6.557568 0.941611 -16.321229 0 CFG=2
M  V30 21 O 4.975442 -3.180956 -17.585026 0
M  V30 22 C 5.923094 7.842282 -20.519801 0
M  V30 23 N 7.908914 3.536816 -14.368257 0
M  V30 24 C 8.927979 1.318092 -16.876678 0
M  V30 25 N 6.007336 3.075100 -13.185108 0
M  V30 26 O 5.999364 4.437218 -13.521298 0
M  V30 27 C 7.148929 4.607548 -14.200923 0
M  V30 28 O 6.414593 -0.666096 -18.037059 0
M  V30 29 N 7.375883 5.900391 -14.642483 0
M  V30 30 C 6.715751 2.567685 -19.410162 0
M  V30 31 C 5.132944 8.739426 -23.234313 0
M  V30 32 C 6.598313 7.115852 -14.485182 0
M  V30 33 C 5.768667 0.160980 -15.268697 0
M  V30 34 H 5.591939 10.328368 -21.844528 0
M  V30 35 H 6.834344 10.069302 -23.043287 0
M  V30 36 H 8.930175 -0.448593 -14.385125 0
M  V30 37 H 4.575413 2.444339 -19.233412 0
M  V30 38 H 8.757625 0.241079 -18.754637 0
M  V30 39 H 9.171512 1.925403 -18.945002 0
M  V30 40 H 7.536380 9.268784 -20.785031 0
M  V30 41 H 7.548249 7.979378 -21.951816 0
M  V30 42 H 6.838943 5.116162 -20.453499 0
M  V30 43 H 6.678998 3.984713 -21.786961 0
M  V30 44 H 4.175469 6.597787 -20.661041 0
M  V30 45 H 5.167280 0.951406 -17.985107 0
M  V30 46 H 3.591493 -2.269812 -18.781237 0
M  V30 47 H 4.034921 -1.346274 -17.356435 0
M  V30 48 H 7.933407 1.041963 -12.532547 0
M  V30 49 H 3.488691 7.349064 -22.964832 0
M  V30 50 H 6.585482 -0.807017 -13.456484 0
M  V30 51 H 6.348196 6.130833 -22.731506 0
M  V30 52 H 4.812152 5.327757 -22.725689 0
M  V30 53 H 6.061546 -1.995921 -19.565391 0
M  V30 54 H 5.082278 -0.551463 -19.636057 0
M  V30 55 H 6.446019 2.009966 -16.145319 0
M  V30 56 H 4.444189 -3.488056 -16.857577 0
M  V30 57 H 5.366906 8.536651 -19.887936 0
M  V30 58 H 6.485645 7.216231 -19.828602 0
M  V30 59 H 9.935546 0.920958 -16.785033 0
M  V30 60 H 8.947591 2.354436 -16.540417 0
M  V30 61 H 8.239221 6.027873 -15.148545 0
M  V30 62 H 7.542609 3.092159 -19.862913 0
M  V30 63 H 4.564769 9.407240 -23.883111 0
M  V30 64 H 5.680194 8.069349 -23.897510 0
M  V30 65 H 7.020807 7.924439 -15.080977 0
M  V30 66 H 5.568405 6.954551 -14.804151 0
M  V30 67 H 6.591522 7.423819 -13.439064 0
M  V30 68 H 5.507083 -0.839608 -15.612383 0
M  V30 69 H 4.859915 0.661383 -14.938109 0
M  V30 70 H 7.975164 -0.388113 -16.487242 0
M  V30 END ATOM
M  V30 BEGIN BOND
M  V30 1 1 6 2
M  V30 2 1 7 1
M  V30 3 1 11 2
M  V30 4 1 13 3
M  V30 5 1 13 10
M  V30 6 1 14 4
M  V30 7 1 14 8
M  V30 8 1 15 5
M  V30 9 1 15 9
M  V30 10 1 16 3
M  V30 11 1 16 13
M  V30 12 1 17 3
M  V30 13 1 18 8
M  V30 14 1 18 9
M  V30 15 1 19 12
M  V30 16 1 20 11
M  V30 17 1 20 17
M  V30 18 1 21 12
M  V30 19 1 22 7
M  V30 20 1 22 9
M  V30 21 1 23 10
M  V30 22 1 24 6
M  V30 23 1 24 17
M  V30 24 2 25 10
M  V30 25 1 26 25
M  V30 26 2 27 23
M  V30 27 1 27 26
M  V30 28 1 28 11
M  V30 29 1 28 19
M  V30 30 1 29 27
M  V30 31 1 30 2
M  V30 32 2 30 4
M  V30 33 1 31 1
M  V30 34 1 31 15
M  V30 35 1 32 29
M  V30 36 1 33 16
M  V30 37 1 33 20
M  V30 38 1 34 1
M  V30 39 1 35 1
M  V30 40 1 3 36 CFG=3
M  V30 41 1 37 4
M  V30 42 1 38 6
M  V30 43 1 39 6
M  V30 44 1 40 7
M  V30 45 1 41 7
M  V30 46 1 42 8
M  V30 47 1 43 8
M  V30 48 1 9 44 CFG=1
M  V30 49 1 11 45 CFG=1
M  V30 50 1 46 12
M  V30 51 1 47 12
M  V30 52 1 13 48 CFG=1
M  V30 53 1 15 49 CFG=3
M  V30 54 1 16 50 CFG=1
M  V30 55 1 51 18
M  V30 56 1 52 18
M  V30 57 1 53 19
M  V30 58 1 54 19
M  V30 59 1 20 55 CFG=1
M  V30 60 1 56 21
M  V30 61 1 57 22
M  V30 62 1 58 22
M  V30 63 1 59 24
M  V30 64 1 60 24
M  V30 65 1 61 29
M  V30 66 1 62 30
M  V30 67 1 63 31
M  V30 68 1 64 31
M  V30 69 1 65 32
M  V30 70 1 66 32
M  V30 71 1 67 32
M  V30 72 1 68 33
M  V30 73 1 69 33
M  V30 74 1 17 70 CFG=3
M  V30 END BOND
M  V30 END CTAB
M  END
>  <i_epik_Tot_Q>  (1) 
1

>  <i_epik_Tot_abs_Q>  (1) 
1

>  <i_i_glide_confnum>  (1) 
325

>  <i_i_glide_lignum>  (1) 
2

>  <i_i_glide_posenum>  (1) 
328

>  <i_i_glide_rotatable_bonds>  (1) 
11

>  <i_lp_mmshare_version>  (1) 
72125

>  <i_m_source_file_index>  (1) 
1

>  <i_f3d_flags>  (1) 
0

>  <num_sample>  (1) 
50

>  <b_lp_Chiralities_Consistent>  (1) 
1

>  <r_epik_Charging_Adjusted_Penalty>  (1) 
0.41344222577729461

>  <r_epik_Ionization_Penalty>  (1) 
0.0027644559619576371

>  <r_epik_Ionization_Penalty_Charging>  (1) 
0.0027623868246906495

>  <r_epik_Ionization_Penalty_Neutral>  (1) 
2.0691372669875143e-06

>  <r_epik_State_Penalty>  (1) 
0.41067983895260396

>  <r_glide_ring_energy>  (1) 
1.3007136337365988

>  <r_i_docking_score>  (1) 
-3.9008748772698101

>  <r_i_glide_ecoul>  (1) 
-3.8552127239702116

>  <r_i_glide_eff_state_penalty>  (1) 
0.41067983895260396

>  <r_i_glide_einternal>  (1) 
8.2723593490512499

>  <r_i_glide_emodel>  (1) 
-39.548025164305642

>  <r_i_glide_emodel_strain>  (1) 
0.96182256768982199

>  <r_i_glide_energy>  (1) 
-34.343915543252038

>  <r_i_glide_erotb>  (1) 
0.74142510397790429

>  <r_i_glide_esite>  (1) 
0

>  <r_i_glide_evdw>  (1) 
-30.48870281928183

>  <r_i_glide_gscore>  (1) 
-4.3115547162224139

>  <r_i_glide_gscore_strain>  (1) 
0

>  <r_i_glide_hbond>  (1) 
-0.15842537462213574

>  <r_i_glide_ligand_efficiency>  (1) 
-0.11820832961423666

>  <r_i_glide_ligand_efficiency_ln>  (1) 
-0.86753437505564612

>  <r_i_glide_ligand_efficiency_sa>  (1) 
-0.37915727532912646

>  <r_i_glide_lipo>  (1) 
-1.8883398336804029

>  <r_i_glide_metal>  (1) 
-0

>  <r_i_glide_rewards>  (1) 
-0.90349756233815692

>  <r_lp_Energy>  (1) 
46.492728

>  <r_lp_tautomer_probability>  (1) 
0.5

>  <s_epik_Chemistry_Notes>  (1) 
This compound has an imine and may undergo hydrolysis. This compound contains an acetal/aminal-like group ( X-CH(R)-Y where X, Y are N, S, or O) that may be acid/base labile, releasing an aldehyde.

>  <s_epik_cmdline>  (1) 
J2VwaWtfcHl0aG9uJywgJy1waHQnLCAnMS4wJywgJy1waCcsICc3LjQnLCAnLXRuJywgJzgnLCAnLW1hJywgJzUwMCcsICctaW1hZScsICc8aW5maWxlLm1hZT4nLCAnLW9tYWUnLCAnPG91dGZpbGUubWFlPic=

>  <s_epik_input>  (1) 
W0NIMl0xW0NIMl1bQ0gyXVtDSDJdW0NASF0oRilbQ0BIXTFbQ0gyXVtDSDJdTy9bQ0hdPVtDSF0vTihbQ0BIXTJPW0NIMl1bQ0gyXVtPSF0pW0NIMl1bQ0gyXU4zW0NAQEhdMltDSDJdW0NAQEhdKFtDQEBIXTM0KVtDQEBIXTRjNW5jKG9uNSlbTkhdW0NIM10=

>  <s_glide_docking_method>  (1) 
confgen

>  <s_i_glide_gridfile>  (1) 
gpcr_drd2_6luq_protein_autoprepared_prepared

>  <s_lp_Force_Field>  (1) 
S-OPLS

>  <s_lp_Variant>  (1) 
DiffSBDD_0-2

>  <s_m_source_file>  (1) 
generated_generic_title2_ligand_DiffSBDD_2026-06-23_prepared.sdf

>  <GenAI_Model>  (1) 
DiffSBDD

>  <Protein>  (1) 
generic_title2

$$$$
DiffSBDD_0
     RDKit          3D

  0  0  0  0  0  0  0  0  0  0999 V3000
M  V30 BEGIN CTAB
M  V30 COUNTS 70 74 0 0 1
M  V30 BEGIN ATOM
M  V30 1 C 10.663206 8.972960 -6.427652 0
M  V30 2 N 7.547685 4.469421 -13.748397 0
M  V30 3 C 7.101405 4.674650 -17.948081 0 CFG=1
M  V30 4 C 9.068689 5.800439 -12.382926 0
M  V30 5 F 9.760853 6.237596 -6.649254 0
M  V30 6 C 6.771367 5.614867 -14.232284 0
M  V30 7 C 11.758805 8.927889 -7.505706 0
M  V30 8 C 10.645228 7.203214 -11.317530 0
M  V30 9 C 10.497912 7.036455 -8.723463 0 CFG=1
M  V30 10 C 9.737804 4.416664 -18.114917 0
M  V30 11 C 7.297580 3.214966 -14.478973 0 CFG=1
M  V30 12 C 6.652752 0.113647 -13.566093 0
M  V30 13 C 8.367386 4.247809 -18.697237 0 CFG=1
M  V30 14 O 10.175407 5.884511 -11.585027 0
M  V30 15 C 9.432285 7.097317 -7.610616 0 CFG=2
M  V30 16 C 7.359288 3.209962 -18.236383 0 CFG=1
M  V30 17 N 7.030911 4.666533 -16.463954 0 CFG=1 CHG=1
M  V30 18 C 10.049116 7.756041 -10.015271 0
M  V30 19 C 7.362288 1.359527 -13.013347 0
M  V30 20 C 7.759627 3.508994 -15.912507 0 CFG=2
M  V30 21 O 5.328039 0.390221 -13.960849 0
M  V30 22 C 11.849098 7.550491 -8.175231 0
M  V30 23 N 10.170421 5.590224 -17.572959 0
M  V30 24 C 7.186397 5.913423 -15.688872 0
M  V30 25 N 10.612945 3.410135 -18.104329 0
M  V30 26 O 11.744072 3.952568 -17.471555 0
M  V30 27 C 11.386692 5.223974 -17.206747 0
M  V30 28 O 8.004115 2.105052 -14.034288 0
M  V30 29 N 12.359603 5.983868 -16.578400 0
M  V30 30 C 8.656009 4.632965 -12.913291 0
M  V30 31 C 9.311220 8.493721 -6.984599 0
M  V30 32 C 13.704584 5.650817 -16.146341 0
M  V30 33 C 7.505280 2.416098 -16.945681 0
M  V30 34 H 10.951507 8.337279 -5.589181 0
M  V30 35 H 10.575404 9.983201 -6.027383 0
M  V30 36 H 6.273785 5.167438 -18.455194 0
M  V30 37 H 8.586562 6.754250 -12.530907 0
M  V30 38 H 5.712801 5.353734 -14.194561 0
M  V30 39 H 6.869124 6.501678 -13.610413 0
M  V30 40 H 12.720756 9.190161 -7.064371 0
M  V30 41 H 11.567813 9.668589 -8.276470 0
M  V30 42 H 11.732981 7.190191 -11.252670 0
M  V30 43 H 10.406184 7.871902 -12.145172 0
M  V30 44 H 10.601728 5.982013 -8.974517 0
M  V30 45 H 6.226919 3.004365 -14.444049 0
M  V30 46 H 6.578373 -0.636776 -12.777722 0
M  V30 47 H 7.213438 -0.339678 -14.384528 0
M  V30 48 H 8.399589 4.467512 -19.762374 0
M  V30 49 H 8.471447 6.752148 -7.985105 0
M  V30 50 H 6.779562 2.726550 -19.021103 0
M  V30 51 H 10.258272 8.819677 -9.940436 0
M  V30 52 H 8.975410 7.682909 -10.112640 0
M  V30 53 H 6.710202 1.967416 -12.385022 0
M  V30 54 H 8.175404 1.008617 -12.385030 0
M  V30 55 H 8.825268 3.727075 -15.855085 0
M  V30 56 H 4.887947 -0.451832 -14.015959 0
M  V30 57 H 12.198908 6.836577 -7.430193 0
M  V30 58 H 12.600593 7.590224 -8.963927 0
M  V30 59 H 6.575414 6.708977 -16.116205 0
M  V30 60 H 8.226068 6.233391 -15.704762 0
M  V30 61 H 12.090776 6.937057 -16.385069 0
M  V30 62 H 9.189967 3.713755 -12.719913 0
M  V30 63 H 8.561169 8.475521 -6.194252 0
M  V30 64 H 8.942605 9.190231 -7.736580 0
M  V30 65 H 14.107369 6.437341 -15.507732 0
M  V30 66 H 13.704639 4.716476 -15.585034 0
M  V30 67 H 14.361035 5.532586 -17.008834 0
M  V30 68 H 6.575651 1.882180 -16.742927 0
M  V30 69 H 8.319729 1.692745 -17.006667 0
M  V30 70 H 6.066543 4.422896 -16.294835 0
M  V30 END ATOM
M  V30 BEGIN BOND
M  V30 1 1 6 2
M  V30 2 1 7 1
M  V30 3 1 11 2
M  V30 4 1 13 3
M  V30 5 1 13 10
M  V30 6 1 14 4
M  V30 7 1 14 8
M  V30 8 1 15 5
M  V30 9 1 15 9
M  V30 10 1 16 3
M  V30 11 1 16 13
M  V30 12 1 17 3
M  V30 13 1 18 8
M  V30 14 1 18 9
M  V30 15 1 19 12
M  V30 16 1 20 11
M  V30 17 1 20 17
M  V30 18 1 21 12
M  V30 19 1 22 7
M  V30 20 1 22 9
M  V30 21 1 23 10
M  V30 22 1 24 6
M  V30 23 1 24 17
M  V30 24 2 25 10
M  V30 25 1 26 25
M  V30 26 2 27 23
M  V30 27 1 27 26
M  V30 28 1 28 11
M  V30 29 1 28 19
M  V30 30 1 29 27
M  V30 31 1 30 2
M  V30 32 2 30 4
M  V30 33 1 31 1
M  V30 34 1 31 15
M  V30 35 1 32 29
M  V30 36 1 33 16
M  V30 37 1 33 20
M  V30 38 1 34 1
M  V30 39 1 35 1
M  V30 40 1 3 36 CFG=3
M  V30 41 1 37 4
M  V30 42 1 38 6
M  V30 43 1 39 6
M  V30 44 1 40 7
M  V30 45 1 41 7
M  V30 46 1 42 8
M  V30 47 1 43 8
M  V30 48 1 9 44 CFG=3
M  V30 49 1 11 45 CFG=3
M  V30 50 1 46 12
M  V30 51 1 47 12
M  V30 52 1 13 48 CFG=3
M  V30 53 1 15 49 CFG=3
M  V30 54 1 16 50 CFG=3
M  V30 55 1 51 18
M  V30 56 1 52 18
M  V30 57 1 53 19
M  V30 58 1 54 19
M  V30 59 1 20 55 CFG=1
M  V30 60 1 56 21
M  V30 61 1 57 22
M  V30 62 1 58 22
M  V30 63 1 59 24
M  V30 64 1 60 24
M  V30 65 1 61 29
M  V30 66 1 62 30
M  V30 67 1 63 31
M  V30 68 1 64 31
M  V30 69 1 65 32
M  V30 70 1 66 32
M  V30 71 1 67 32
M  V30 72 1 68 33
M  V30 73 1 69 33
M  V30 74 1 17 70 CFG=3
M  V30 END BOND
M  V30 END CTAB
M  END
>  <i_epik_Tot_Q>  (1) 
1

>  <i_epik_Tot_abs_Q>  (1) 
1

>  <i_i_glide_confnum>  (1) 
676

>  <i_i_glide_lignum>  (1) 
6

>  <i_i_glide_posenum>  (1) 
153

>  <i_i_glide_rotatable_bonds>  (1) 
11

>  <i_lp_mmshare_version>  (1) 
72125

>  <i_m_source_file_index>  (1) 
1

>  <i_f3d_flags>  (1) 
0

>  <num_sample>  (1) 
50

>  <b_lp_Chiralities_Consistent>  (1) 
1

>  <r_epik_Charging_Adjusted_Penalty>  (1) 
0.41344222577729461

>  <r_epik_Ionization_Penalty>  (1) 
0.0027644559619576371

>  <r_epik_Ionization_Penalty_Charging>  (1) 
0.0027623868246906495

>  <r_epik_Ionization_Penalty_Neutral>  (1) 
2.0691372669875143e-06

>  <r_epik_State_Penalty>  (1) 
0.41067983895260396

>  <r_glide_ring_energy>  (1) 
1.2880141380397496

>  <r_i_docking_score>  (1) 
-3.8937166112663015

>  <r_i_glide_ecoul>  (1) 
-1.5498183097523093

>  <r_i_glide_eff_state_penalty>  (1) 
0.41067983895260396

>  <r_i_glide_einternal>  (1) 
8.0982007178930271

>  <r_i_glide_emodel>  (1) 
-41.73979835076473

>  <r_i_glide_emodel_strain>  (1) 
0.27000837631379682

>  <r_i_glide_energy>  (1) 
-36.233896714978002

>  <r_i_glide_erotb>  (1) 
0.74142510397790429

>  <r_i_glide_esite>  (1) 
0

>  <r_i_glide_evdw>  (1) 
-34.684078405225691

>  <r_i_glide_gscore>  (1) 
-4.3043964502189054

>  <r_i_glide_gscore_strain>  (1) 
0

>  <r_i_glide_hbond>  (1) 
-0.10146434574925527

>  <r_i_glide_ligand_efficiency>  (1) 
-0.1179914124626152

>  <r_i_glide_ligand_efficiency_ln>  (1) 
-0.8659424137599836

>  <r_i_glide_ligand_efficiency_sa>  (1) 
-0.37846150611853568

>  <r_i_glide_lipo>  (1) 
-1.7555295295131683

>  <r_i_glide_metal>  (1) 
-0

>  <r_i_glide_rewards>  (1) 
-1.2221510122102548

>  <r_lp_Energy>  (1) 
52.420753999999995

>  <r_lp_tautomer_probability>  (1) 
0.5

>  <s_epik_Chemistry_Notes>  (1) 
This compound has an imine and may undergo hydrolysis. This compound contains an acetal/aminal-like group ( X-CH(R)-Y where X, Y are N, S, or O) that may be acid/base labile, releasing an aldehyde.

>  <s_epik_cmdline>  (1) 
J2VwaWtfcHl0aG9uJywgJy1waHQnLCAnMS4wJywgJy1waCcsICc3LjQnLCAnLXRuJywgJzgnLCAnLW1hJywgJzUwMCcsICctaW1hZScsICc8aW5maWxlLm1hZT4nLCAnLW9tYWUnLCAnPG91dGZpbGUubWFlPic=

>  <s_epik_input>  (1) 
W0NIMl0xW0NIMl1bQ0gyXVtDSDJdW0NASF0oRilbQ0BIXTFbQ0gyXVtDSDJdTy9bQ0hdPVtDSF0vTihbQ0BIXTJPW0NIMl1bQ0gyXVtPSF0pW0NIMl1bQ0gyXU4zW0NAQEhdMltDSDJdW0NAQEhdKFtDQEBIXTM0KVtDQEBIXTRjNW5jKG9uNSlbTkhdW0NIM10=

>  <s_glide_docking_method>  (1) 
confgen

>  <s_i_glide_gridfile>  (1) 
gpcr_drd2_6luq_protein_autoprepared_prepared

>  <s_lp_Force_Field>  (1) 
S-OPLS

>  <s_lp_Variant>  (1) 
DiffSBDD_0-6

>  <s_m_source_file>  (1) 
generated_generic_title2_ligand_DiffSBDD_2026-06-23_prepared.sdf

>  <GenAI_Model>  (1) 
DiffSBDD

>  <Protein>  (1) 
generic_title2

$$$$
DiffSBDD_0
     RDKit          3D

  0  0  0  0  0  0  0  0  0  0999 V3000
M  V30 BEGIN CTAB
M  V30 COUNTS 70 74 0 0 1
M  V30 BEGIN ATOM
M  V30 1 C 11.073680 6.929463 -5.777656 0
M  V30 2 N 8.145478 3.948604 -12.456596 0
M  V30 3 C 8.749058 5.339104 -16.290257 0 CFG=1
M  V30 4 C 7.702804 5.558251 -10.666358 0
M  V30 5 F 12.698956 7.590179 -9.072511 0
M  V30 6 C 9.536487 4.305421 -12.706344 0
M  V30 7 C 9.744081 7.587650 -6.117619 0
M  V30 8 C 9.453858 6.567650 -9.486403 0
M  V30 9 C 10.728403 8.543749 -8.317500 0 CFG=1
M  V30 10 C 7.719019 3.521678 -17.904361 0
M  V30 11 C 7.585489 3.061049 -13.448294 0 CFG=2
M  V30 12 C 5.237066 0.458081 -13.380592 0
M  V30 13 C 7.887535 4.954833 -17.484890 0 CFG=1
M  V30 14 O 8.916587 6.176999 -10.734901 0
M  V30 15 C 12.017624 7.790345 -7.946760 0 CFG=1
M  V30 16 C 7.271084 5.632583 -16.251404 0 CFG=1
M  V30 17 N 8.955634 4.390204 -15.162922 0 CFG=2 CHG=1
M  V30 18 C 9.950063 8.017210 -9.550532 0
M  V30 19 C 6.186679 1.346846 -12.577121 0
M  V30 20 C 7.644271 3.767832 -14.818964 0 CFG=2
M  V30 21 O 5.891220 -0.009458 -14.537821 0
M  V30 22 C 9.870029 8.789979 -7.062567 0
M  V30 23 N 8.679814 2.570004 -17.698569 0
M  V30 24 C 9.574633 5.109546 -14.012179 0
M  V30 25 N 6.599861 3.102865 -18.495304 0
M  V30 26 O 6.789656 1.719507 -18.637970 0
M  V30 27 C 8.017564 1.506932 -18.132099 0
M  V30 28 O 6.281503 2.615225 -13.223585 0
M  V30 29 N 8.412126 0.181933 -18.116954 0
M  V30 30 C 7.352421 4.540303 -11.471244 0
M  V30 31 C 11.775420 6.528024 -7.064062 0
M  V30 32 C 9.627731 -0.449075 -17.638117 0
M  V30 33 C 6.673131 4.924904 -15.044093 0
M  V30 34 H 11.694305 7.628265 -5.215057 0
M  V30 35 H 10.912822 6.063584 -5.132157 0
M  V30 36 H 9.531984 6.076977 -16.436154 0
M  V30 37 H 7.062684 5.979032 -9.912813 0
M  V30 38 H 10.064053 4.815041 -11.909381 0
M  V30 39 H 10.099964 3.377114 -12.785050 0
M  V30 40 H 9.375429 7.963889 -5.185044 0
M  V30 41 H 9.022009 6.858236 -6.483246 0
M  V30 42 H 8.777303 6.403530 -8.647918 0
M  V30 43 H 10.294972 5.899824 -9.360313 0
M  V30 44 H 11.077361 9.521586 -8.651411 0
M  V30 45 H 8.251465 2.197388 -13.493762 0
M  V30 46 H 4.320611 0.982858 -13.645262 0
M  V30 47 H 4.953263 -0.405743 -12.778688 0
M  V30 48 H 7.989819 5.574914 -18.374364 0
M  V30 49 H 12.649239 8.474441 -7.378232 0
M  V30 50 H 6.946868 6.662197 -16.389668 0
M  V30 51 H 10.589700 8.108718 -10.429870 0
M  V30 52 H 9.100653 8.675418 -9.742318 0
M  V30 53 H 5.775463 1.500471 -11.580431 0
M  V30 54 H 7.138302 0.834774 -12.429334 0
M  V30 55 H 7.401718 2.971199 -15.513241 0
M  V30 56 H 5.562331 -0.884545 -14.702779 0
M  V30 57 H 10.342273 9.590191 -6.491823 0
M  V30 58 H 8.880960 9.162403 -7.335862 0
M  V30 59 H 9.001420 6.016736 -13.829783 0
M  V30 60 H 10.575480 5.435218 -14.275592 0
M  V30 61 H 7.731210 -0.465022 -18.491732 0
M  V30 62 H 6.372007 4.097082 -11.394299 0
M  V30 63 H 12.683024 6.001178 -6.785141 0
M  V30 64 H 11.181501 5.765251 -7.551374 0
M  V30 65 H 9.997832 -1.163309 -18.373244 0
M  V30 66 H 10.406314 0.295291 -17.463341 0
M  V30 67 H 9.435767 -0.982464 -16.706321 0
M  V30 68 H 6.680783 5.615834 -14.201551 0
M  V30 69 H 5.647748 4.628208 -15.184978 0
M  V30 70 H 9.588417 3.662706 -15.465992 0
M  V30 END ATOM
M  V30 BEGIN BOND
M  V30 1 1 6 2
M  V30 2 1 7 1
M  V30 3 1 11 2
M  V30 4 1 13 3
M  V30 5 1 13 10
M  V30 6 1 14 4
M  V30 7 1 14 8
M  V30 8 1 15 5
M  V30 9 1 15 9
M  V30 10 1 16 3
M  V30 11 1 16 13
M  V30 12 1 17 3
M  V30 13 1 18 8
M  V30 14 1 18 9
M  V30 15 1 19 12
M  V30 16 1 20 11
M  V30 17 1 20 17
M  V30 18 1 21 12
M  V30 19 1 22 7
M  V30 20 1 22 9
M  V30 21 1 23 10
M  V30 22 1 24 6
M  V30 23 1 24 17
M  V30 24 2 25 10
M  V30 25 1 26 25
M  V30 26 2 27 23
M  V30 27 1 27 26
M  V30 28 1 28 11
M  V30 29 1 28 19
M  V30 30 1 29 27
M  V30 31 1 30 2
M  V30 32 2 30 4
M  V30 33 1 31 1
M  V30 34 1 31 15
M  V30 35 1 32 29
M  V30 36 1 33 16
M  V30 37 1 33 20
M  V30 38 1 34 1
M  V30 39 1 35 1
M  V30 40 1 3 36 CFG=3
M  V30 41 1 37 4
M  V30 42 1 38 6
M  V30 43 1 39 6
M  V30 44 1 40 7
M  V30 45 1 41 7
M  V30 46 1 42 8
M  V30 47 1 43 8
M  V30 48 1 9 44 CFG=3
M  V30 49 1 11 45 CFG=3
M  V30 50 1 46 12
M  V30 51 1 47 12
M  V30 52 1 13 48 CFG=3
M  V30 53 1 15 49 CFG=1
M  V30 54 1 16 50 CFG=3
M  V30 55 1 51 18
M  V30 56 1 52 18
M  V30 57 1 53 19
M  V30 58 1 54 19
M  V30 59 1 20 55 CFG=3
M  V30 60 1 56 21
M  V30 61 1 57 22
M  V30 62 1 58 22
M  V30 63 1 59 24
M  V30 64 1 60 24
M  V30 65 1 61 29
M  V30 66 1 62 30
M  V30 67 1 63 31
M  V30 68 1 64 31
M  V30 69 1 65 32
M  V30 70 1 66 32
M  V30 71 1 67 32
M  V30 72 1 68 33
M  V30 73 1 69 33
M  V30 74 1 17 70 CFG=3
M  V30 END BOND
M  V30 END CTAB
M  END
>  <i_epik_Tot_Q>  (1) 
1

>  <i_epik_Tot_abs_Q>  (1) 
1

>  <i_i_glide_confnum>  (1) 
699

>  <i_i_glide_lignum>  (1) 
11

>  <i_i_glide_posenum>  (1) 
85

>  <i_i_glide_rotatable_bonds>  (1) 
11

>  <i_lp_mmshare_version>  (1) 
72125

>  <i_m_source_file_index>  (1) 
1

>  <i_f3d_flags>  (1) 
0

>  <num_sample>  (1) 
50

>  <b_lp_Chiralities_Consistent>  (1) 
1

>  <r_epik_Charging_Adjusted_Penalty>  (1) 
0.41344222577729461

>  <r_epik_Ionization_Penalty>  (1) 
0.0027644559619576371

>  <r_epik_Ionization_Penalty_Charging>  (1) 
0.0027623868246906495

>  <r_epik_Ionization_Penalty_Neutral>  (1) 
2.0691372669875143e-06

>  <r_epik_State_Penalty>  (1) 
0.41067983895260396

>  <r_glide_ring_energy>  (1) 
1.6783687507504006

>  <r_i_docking_score>  (1) 
-3.8934923934515928

>  <r_i_glide_ecoul>  (1) 
-3.725780915091371

>  <r_i_glide_eff_state_penalty>  (1) 
0.41067983895260396

>  <r_i_glide_einternal>  (1) 
11.328167685058292

>  <r_i_glide_emodel>  (1) 
-29.128959211737232

>  <r_i_glide_emodel_strain>  (1) 
1.719991628385884

>  <r_i_glide_energy>  (1) 
-29.311021602327674

>  <r_i_glide_erotb>  (1) 
0.74142510397790429

>  <r_i_glide_esite>  (1) 
0

>  <r_i_glide_evdw>  (1) 
-25.585240687236304

>  <r_i_glide_gscore>  (1) 
-4.3041722324041967

>  <r_i_glide_gscore_strain>  (1) 
0

>  <r_i_glide_hbond>  (1) 
-0.076481018918244034

>  <r_i_glide_ligand_efficiency>  (1) 
-0.1179846179833816

>  <r_i_glide_ligand_efficiency_ln>  (1) 
-0.86589254887893019

>  <r_i_glide_ligand_efficiency_sa>  (1) 
-0.37843971259313947

>  <r_i_glide_lipo>  (1) 
-1.6316577502853657

>  <r_i_glide_metal>  (1) 
-0

>  <r_i_glide_rewards>  (1) 
-1.4993293955529694

>  <r_lp_Energy>  (1) 
38.871550999999997

>  <r_lp_tautomer_probability>  (1) 
0.5

>  <s_epik_Chemistry_Notes>  (1) 
This compound has an imine and may undergo hydrolysis. This compound contains an acetal/aminal-like group ( X-CH(R)-Y where X, Y are N, S, or O) that may be acid/base labile, releasing an aldehyde.

>  <s_epik_cmdline>  (1) 
J2VwaWtfcHl0aG9uJywgJy1waHQnLCAnMS4wJywgJy1waCcsICc3LjQnLCAnLXRuJywgJzgnLCAnLW1hJywgJzUwMCcsICctaW1hZScsICc8aW5maWxlLm1hZT4nLCAnLW9tYWUnLCAnPG91dGZpbGUubWFlPic=

>  <s_epik_input>  (1) 
W0NIMl0xW0NIMl1bQ0gyXVtDSDJdW0NASF0oRilbQ0BIXTFbQ0gyXVtDSDJdTy9bQ0hdPVtDSF1cTihbQ0BIXTJPW0NIMl1bQ0gyXVtPSF0pW0NIMl1bQ0gyXU4zW0NAQEhdMltDSDJdW0NAQEhdKFtDQEBIXTM0KVtDQEBIXTRjNW5jKG9uNSlbTkhdW0NIM10=

>  <s_glide_docking_method>  (1) 
confgen

>  <s_i_glide_gridfile>  (1) 
gpcr_drd2_6luq_protein_autoprepared_prepared

>  <s_lp_Force_Field>  (1) 
S-OPLS

>  <s_lp_Variant>  (1) 
DiffSBDD_0-11

>  <s_m_source_file>  (1) 
generated_generic_title2_ligand_DiffSBDD_2026-06-23_prepared.sdf

>  <GenAI_Model>  (1) 
DiffSBDD

>  <Protein>  (1) 
generic_title2

$$$$
DiffSBDD_0
     RDKit          3D

  0  0  0  0  0  0  0  0  0  0999 V3000
M  V30 BEGIN CTAB
M  V30 COUNTS 70 74 0 0 1
M  V30 BEGIN ATOM
M  V30 1 C 10.660957 8.909101 -6.655096 0
M  V30 2 N 7.807109 4.488789 -14.316299 0
M  V30 3 C 7.586301 3.966366 -18.527044 0 CFG=1
M  V30 4 C 9.193712 5.848203 -12.838489 0
M  V30 5 F 9.807746 6.134115 -6.770888 0
M  V30 6 C 7.199734 5.612974 -15.043377 0
M  V30 7 C 11.662881 8.880980 -7.820315 0
M  V30 8 C 10.526395 7.249003 -11.477483 0
M  V30 9 C 10.386536 6.919578 -8.893691 0 CFG=1
M  V30 10 C 10.216783 3.735431 -18.436370 0
M  V30 11 C 7.482732 3.162815 -14.858872 0 CFG=1
M  V30 12 C 6.160882 0.843306 -13.201986 0
M  V30 13 C 8.903061 3.421741 -19.085330 0 CFG=1
M  V30 14 O 10.175313 5.933047 -11.888255 0
M  V30 15 C 9.393446 6.977980 -7.713123 0 CFG=2
M  V30 16 C 7.844973 2.475879 -18.534825 0 CFG=1
M  V30 17 N 7.411525 4.232290 -17.073620 0 CFG=1 CHG=1
M  V30 18 C 9.811823 7.591109 -10.164751 0
M  V30 19 C 7.408377 1.707551 -12.970309 0
M  V30 20 C 8.055892 3.173837 -16.278512 0 CFG=2
M  V30 21 O 6.575389 -0.409776 -13.684461 0
M  V30 22 C 11.756521 7.482902 -8.440162 0
M  V30 23 N 10.623225 5.009903 -18.170150 0
M  V30 24 C 7.633515 5.590326 -16.531440 0
M  V30 25 N 11.065774 2.766509 -18.089985 0
M  V30 26 O 12.139901 3.453237 -17.500219 0
M  V30 27 C 11.786954 4.748324 -17.597540 0
M  V30 28 O 8.042807 2.085464 -14.185555 0
M  V30 29 N 12.707921 5.638462 -17.076323 0
M  V30 30 C 8.790959 4.669173 -13.338814 0
M  V30 31 C 9.283806 8.384994 -7.095493 0
M  V30 32 C 12.696763 7.086376 -16.996289 0
M  V30 33 C 7.846662 1.921131 -17.118817 0
M  V30 34 H 11.037597 8.294520 -5.836354 0
M  V30 35 H 10.575369 9.920800 -6.258786 0
M  V30 36 H 6.814488 4.370740 -19.178436 0
M  V30 37 H 8.799771 6.809884 -13.124611 0
M  V30 38 H 6.116219 5.505466 -14.978727 0
M  V30 39 H 7.420591 6.585377 -14.610043 0
M  V30 40 H 12.646098 9.190184 -7.464459 0
M  V30 41 H 11.375419 9.590263 -8.593303 0
M  V30 42 H 11.608257 7.305834 -11.363362 0
M  V30 43 H 10.261365 7.990189 -12.231766 0
M  V30 44 H 10.520096 5.865506 -9.133643 0
M  V30 45 H 6.398729 3.060378 -14.870495 0
M  V30 46 H 5.444473 1.298343 -13.883935 0
M  V30 47 H 5.650460 0.681768 -12.252372 0
M  V30 48 H 9.025076 3.444199 -20.166224 0
M  V30 49 H 8.415219 6.605161 -8.012388 0
M  V30 50 H 7.328708 1.864745 -19.273350 0
M  V30 51 H 9.777408 8.671569 -10.030478 0
M  V30 52 H 8.783791 7.271030 -10.311822 0
M  V30 53 H 7.147903 2.591532 -12.386301 0
M  V30 54 H 8.136590 1.147669 -12.385021 0
M  V30 55 H 9.121049 3.373688 -16.181599 0
M  V30 56 H 5.870937 -1.050001 -13.585120 0
M  V30 57 H 12.168079 6.821272 -7.675997 0
M  V30 58 H 12.468913 7.495679 -9.263887 0
M  V30 59 H 7.067328 6.322114 -17.108675 0
M  V30 60 H 8.687235 5.853310 -16.610001 0
M  V30 61 H 13.529445 5.210076 -16.676180 0
M  V30 62 H 9.232391 3.745388 -12.996425 0
M  V30 63 H 8.599441 8.363059 -6.247188 0
M  V30 64 H 8.840239 9.070553 -7.818285 0
M  V30 65 H 13.714283 7.476293 -16.968947 0
M  V30 66 H 12.187811 7.515345 -17.860221 0
M  V30 67 H 12.176240 7.406758 -16.094852 0
M  V30 68 H 6.882049 1.455781 -16.910109 0
M  V30 69 H 8.632397 1.178451 -16.975959 0
M  V30 70 H 6.425511 4.074195 -16.931642 0
M  V30 END ATOM
M  V30 BEGIN BOND
M  V30 1 1 6 2
M  V30 2 1 7 1
M  V30 3 1 11 2
M  V30 4 1 13 3
M  V30 5 1 13 10
M  V30 6 1 14 4
M  V30 7 1 14 8
M  V30 8 1 15 5
M  V30 9 1 15 9
M  V30 10 1 16 3
M  V30 11 1 16 13
M  V30 12 1 17 3
M  V30 13 1 18 8
M  V30 14 1 18 9
M  V30 15 1 19 12
M  V30 16 1 20 11
M  V30 17 1 20 17
M  V30 18 1 21 12
M  V30 19 1 22 7
M  V30 20 1 22 9
M  V30 21 1 23 10
M  V30 22 1 24 6
M  V30 23 1 24 17
M  V30 24 2 25 10
M  V30 25 1 26 25
M  V30 26 2 27 23
M  V30 27 1 27 26
M  V30 28 1 28 11
M  V30 29 1 28 19
M  V30 30 1 29 27
M  V30 31 1 30 2
M  V30 32 2 30 4
M  V30 33 1 31 1
M  V30 34 1 31 15
M  V30 35 1 32 29
M  V30 36 1 33 16
M  V30 37 1 33 20
M  V30 38 1 34 1
M  V30 39 1 35 1
M  V30 40 1 3 36 CFG=3
M  V30 41 1 37 4
M  V30 42 1 38 6
M  V30 43 1 39 6
M  V30 44 1 40 7
M  V30 45 1 41 7
M  V30 46 1 42 8
M  V30 47 1 43 8
M  V30 48 1 9 44 CFG=3
M  V30 49 1 11 45 CFG=3
M  V30 50 1 46 12
M  V30 51 1 47 12
M  V30 52 1 13 48 CFG=3
M  V30 53 1 15 49 CFG=3
M  V30 54 1 16 50 CFG=3
M  V30 55 1 51 18
M  V30 56 1 52 18
M  V30 57 1 53 19
M  V30 58 1 54 19
M  V30 59 1 20 55 CFG=1
M  V30 60 1 56 21
M  V30 61 1 57 22
M  V30 62 1 58 22
M  V30 63 1 59 24
M  V30 64 1 60 24
M  V30 65 1 61 29
M  V30 66 1 62 30
M  V30 67 1 63 31
M  V30 68 1 64 31
M  V30 69 1 65 32
M  V30 70 1 66 32
M  V30 71 1 67 32
M  V30 72 1 68 33
M  V30 73 1 69 33
M  V30 74 1 17 70 CFG=3
M  V30 END BOND
M  V30 END CTAB
M  END
>  <i_epik_Tot_Q>  (1) 
1

>  <i_epik_Tot_abs_Q>  (1) 
1

>  <i_i_glide_confnum>  (1) 
426

>  <i_i_glide_lignum>  (1) 
6

>  <i_i_glide_posenum>  (1) 
72

>  <i_i_glide_rotatable_bonds>  (1) 
11

>  <i_lp_mmshare_version>  (1) 
72125

>  <i_m_source_file_index>  (1) 
1

>  <i_f3d_flags>  (1) 
0

>  <num_sample>  (1) 
50

>  <b_lp_Chiralities_Consistent>  (1) 
1

>  <r_epik_Charging_Adjusted_Penalty>  (1) 
0.41344222577729461

>  <r_epik_Ionization_Penalty>  (1) 
0.0027644559619576371

>  <r_epik_Ionization_Penalty_Charging>  (1) 
0.0027623868246906495

>  <r_epik_Ionization_Penalty_Neutral>  (1) 
2.0691372669875143e-06

>  <r_epik_State_Penalty>  (1) 
0.41067983895260396

>  <r_glide_ring_energy>  (1) 
1.2880141380397496

>  <r_i_docking_score>  (1) 
-3.8923743809902205

>  <r_i_glide_ecoul>  (1) 
-2.7103179735101586

>  <r_i_glide_eff_state_penalty>  (1) 
0.41067983895260396

>  <r_i_glide_einternal>  (1) 
5.1957321053634677

>  <r_i_glide_emodel>  (1) 
-40.916253051033728

>  <r_i_glide_emodel_strain>  (1) 
0.27736270486730064

>  <r_i_glide_energy>  (1) 
-33.969535148449751

>  <r_i_glide_erotb>  (1) 
0.74142510397790429

>  <r_i_glide_esite>  (1) 
0

>  <r_i_glide_evdw>  (1) 
-31.25921717493959

>  <r_i_glide_gscore>  (1) 
-4.3030542199428243

>  <r_i_glide_gscore_strain>  (1) 
0

>  <r_i_glide_hbond>  (1) 
-0.16

>  <r_i_glide_ligand_efficiency>  (1) 
-0.11795073881788547

>  <r_i_glide_ligand_efficiency_ln>  (1) 
-0.86564390869627961

>  <r_i_glide_ligand_efficiency_sa>  (1) 
-0.378331044006739

>  <r_i_glide_lipo>  (1) 
-1.7737184001885913

>  <r_i_glide_metal>  (1) 
-0

>  <r_i_glide_rewards>  (1) 
-1.1412523689586334

>  <r_lp_Energy>  (1) 
52.420753999999995

>  <r_lp_tautomer_probability>  (1) 
0.5

>  <s_epik_Chemistry_Notes>  (1) 
This compound has an imine and may undergo hydrolysis. This compound contains an acetal/aminal-like group ( X-CH(R)-Y where X, Y are N, S, or O) that may be acid/base labile, releasing an aldehyde.

>  <s_epik_cmdline>  (1) 
J2VwaWtfcHl0aG9uJywgJy1waHQnLCAnMS4wJywgJy1waCcsICc3LjQnLCAnLXRuJywgJzgnLCAnLW1hJywgJzUwMCcsICctaW1hZScsICc8aW5maWxlLm1hZT4nLCAnLW9tYWUnLCAnPG91dGZpbGUubWFlPic=

>  <s_epik_input>  (1) 
W0NIMl0xW0NIMl1bQ0gyXVtDSDJdW0NASF0oRilbQ0BIXTFbQ0gyXVtDSDJdTy9bQ0hdPVtDSF0vTihbQ0BIXTJPW0NIMl1bQ0gyXVtPSF0pW0NIMl1bQ0gyXU4zW0NAQEhdMltDSDJdW0NAQEhdKFtDQEBIXTM0KVtDQEBIXTRjNW5jKG9uNSlbTkhdW0NIM10=

>  <s_glide_docking_method>  (1) 
confgen

>  <s_i_glide_gridfile>  (1) 
gpcr_drd2_6luq_protein_autoprepared_prepared

>  <s_lp_Force_Field>  (1) 
S-OPLS

>  <s_lp_Variant>  (1) 
DiffSBDD_0-6

>  <s_m_source_file>  (1) 
generated_generic_title2_ligand_DiffSBDD_2026-06-23_prepared.sdf

>  <GenAI_Model>  (1) 
DiffSBDD

>  <Protein>  (1) 
generic_title2

$$$$
DiffSBDD_1
     RDKit          3D

  0  0  0  0  0  0  0  0  0  0999 V3000
M  V30 BEGIN CTAB
M  V30 COUNTS 89 91 0 0 1
M  V30 BEGIN ATOM
M  V30 1 O 8.522077 5.597919 -12.550912 0
M  V30 2 O 8.175422 5.590217 -8.990822 0
M  V30 3 C 7.828907 2.767064 -16.973207 0 CFG=2
M  V30 4 C 9.758005 1.347563 -18.005008 0
M  V30 5 C 7.745373 -3.131378 -18.856968 0
M  V30 6 C 12.014038 8.779405 -7.101705 0
M  V30 7 C 4.818708 -1.397346 -18.143464 0
M  V30 8 C 9.392531 5.956232 -9.603657 0 CFG=1
M  V30 9 C 8.682788 4.041230 -16.667249 0 CFG=1
M  V30 10 C 5.933046 0.923044 -18.569908 0 CFG=2
M  V30 11 C 9.691632 -0.125334 -18.418883 0
M  V30 12 O 6.708185 4.662406 -19.400574 0 CHG=-1
M  V30 13 C 7.943298 -1.703883 -19.411315 0
M  V30 14 C 7.681328 1.910390 -15.681978 0
M  V30 15 C 9.188512 6.997561 -10.726719 0
M  V30 16 C 5.150894 -2.789826 -18.722205 0
M  V30 17 C 8.349766 1.945815 -18.208093 0 CFG=1
M  V30 18 C 6.421219 -3.422420 -18.122556 0
M  V30 19 C 10.368166 6.441514 -8.508540 0
M  V30 20 C 8.027934 3.929904 -14.175124 0 CFG=2
M  V30 21 C 11.159639 6.989628 -5.497098 0
M  V30 22 F 3.776053 0.345970 -19.185092 0
M  V30 23 C 10.777474 8.079361 -6.512193 0
M  V30 24 C 7.173088 2.703479 -14.474795 0
M  V30 25 C 7.710297 7.844141 -12.610311 0
M  V30 26 F 5.596477 2.019226 -19.247835 0
M  V30 27 O 6.575731 6.444686 -17.627054 0 CHG=-1
M  V30 28 O 8.013432 6.790208 -19.656383 0
M  V30 29 P 7.433399 5.781053 -18.686061 0
M  V30 30 C 9.811237 7.565287 -7.599007 0
M  V30 31 C 8.067082 6.650786 -11.722689 0 CFG=1
M  V30 32 C 7.476290 0.780926 -18.780240 0 CFG=1
M  V30 33 O 7.878951 -0.892041 -17.083321 0
M  V30 34 C 7.489809 4.726495 -12.983819 0
M  V30 35 C 8.906823 5.027266 -17.853583 0
M  V30 36 C 8.206036 -0.538009 -18.408931 0 CFG=2
M  V30 37 C 8.124806 4.798404 -15.438069 0
M  V30 38 C 4.992913 -0.189749 -19.094993 0 CFG=2
M  V30 39 H 7.618550 6.369426 -8.965239 0
M  V30 40 H 6.838339 3.134746 -17.230825 0
M  V30 41 H 10.497862 1.886201 -18.597804 0
M  V30 42 H 10.092924 1.425617 -16.973819 0
M  V30 43 H 7.801657 -3.814703 -19.705305 0
M  V30 44 H 8.575414 -3.406038 -18.207408 0
M  V30 45 H 12.671833 8.075405 -7.609939 0
M  V30 46 H 11.729296 9.546439 -7.822272 0
M  V30 47 H 12.595629 9.265967 -6.318668 0
M  V30 48 H 3.775405 -1.429551 -17.835441 0
M  V30 49 H 5.338307 -1.226436 -17.202113 0
M  V30 50 H 9.775541 5.042199 -10.055709 0
M  V30 51 H 9.678288 3.698472 -16.385065 0
M  V30 52 H 5.677951 1.129704 -17.534437 0
M  V30 53 H 10.100383 -0.191574 -19.427851 0
M  V30 54 H 10.313493 -0.761998 -17.788064 0
M  V30 55 H 7.112376 -1.469735 -20.066535 0
M  V30 56 H 8.773941 -1.757354 -20.114855 0
M  V30 57 H 8.622365 1.442334 -15.408184 0
M  V30 58 H 6.987421 1.090642 -15.837634 0
M  V30 59 H 8.975431 7.970059 -10.288366 0
M  V30 60 H 10.125204 7.134499 -11.269058 0
M  V30 61 H 5.176608 -2.790424 -19.812061 0
M  V30 62 H 4.318787 -3.446239 -18.463105 0
M  V30 63 H 8.415488 2.655641 -19.031837 0
M  V30 64 H 6.290503 -4.504884 -18.106473 0
M  V30 65 H 6.500798 -3.148495 -17.073210 0
M  V30 66 H 10.639360 5.584837 -7.891644 0
M  V30 67 H 11.289494 6.776485 -8.985212 0
M  V30 68 H 9.009323 3.590231 -13.884341 0
M  V30 69 H 11.775446 6.213279 -5.950817 0
M  V30 70 H 11.722947 7.410206 -4.664327 0
M  V30 71 H 10.272589 6.508525 -5.084471 0
M  V30 72 H 10.226637 8.840211 -5.958145 0
M  V30 73 H 7.112570 2.054473 -13.600309 0
M  V30 74 H 6.175408 3.053638 -14.682898 0
M  V30 75 H 7.374963 8.691017 -12.010583 0
M  V30 76 H 8.575378 8.157154 -13.184987 0
M  V30 77 H 6.916168 7.590408 -13.312449 0
M  V30 78 H 9.499178 8.415299 -8.205118 0
M  V30 79 H 8.902584 7.213349 -7.108261 0
M  V30 80 H 7.166247 6.354888 -11.184788 0
M  V30 81 H 7.606721 0.851587 -19.862358 0
M  V30 82 H 8.206031 -1.759786 -16.893351 0
M  V30 83 H 7.224390 4.064446 -12.158065 0
M  V30 84 H 6.586878 5.267196 -13.271725 0
M  V30 85 H 9.530752 5.844935 -17.494538 0
M  V30 86 H 9.518718 4.543047 -18.612324 0
M  V30 87 H 7.127526 5.175585 -15.653976 0
M  V30 88 H 8.743258 5.672015 -15.231897 0
M  V30 89 H 5.229059 -0.472837 -20.119165 0
M  V30 END ATOM
M  V30 BEGIN BOND
M  V30 1 1 8 2
M  V30 2 1 9 3
M  V30 3 1 11 4
M  V30 4 1 13 5
M  V30 5 1 14 3
M  V30 6 1 15 8
M  V30 7 1 16 7
M  V30 8 1 17 3
M  V30 9 1 17 4
M  V30 10 1 18 5
M  V30 11 1 18 16
M  V30 12 1 19 8
M  V30 13 1 23 6
M  V30 14 1 23 21
M  V30 15 1 24 14
M  V30 16 1 24 20
M  V30 17 1 26 10
M  V30 18 1 29 12
M  V30 19 1 29 27
M  V30 20 2 29 28
M  V30 21 1 30 19
M  V30 22 1 30 23
M  V30 23 1 31 1
M  V30 24 1 31 15
M  V30 25 1 31 25
M  V30 26 1 32 10
M  V30 27 1 32 17
M  V30 28 1 34 1
M  V30 29 1 34 20
M  V30 30 1 35 9
M  V30 31 1 35 29
M  V30 32 1 36 11
M  V30 33 1 36 13
M  V30 34 1 36 32
M  V30 35 1 36 33 CFG=1
M  V30 36 1 37 9
M  V30 37 1 37 20
M  V30 38 1 38 7
M  V30 39 1 38 10
M  V30 40 1 38 22
M  V30 41 1 39 2
M  V30 42 1 3 40 CFG=3
M  V30 43 1 41 4
M  V30 44 1 42 4
M  V30 45 1 43 5
M  V30 46 1 44 5
M  V30 47 1 45 6
M  V30 48 1 46 6
M  V30 49 1 47 6
M  V30 50 1 48 7
M  V30 51 1 49 7
M  V30 52 1 8 50 CFG=3
M  V30 53 1 9 51 CFG=1
M  V30 54 1 10 52 CFG=1
M  V30 55 1 53 11
M  V30 56 1 54 11
M  V30 57 1 55 13
M  V30 58 1 56 13
M  V30 59 1 57 14
M  V30 60 1 58 14
M  V30 61 1 59 15
M  V30 62 1 60 15
M  V30 63 1 61 16
M  V30 64 1 62 16
M  V30 65 1 17 63 CFG=3
M  V30 66 1 64 18
M  V30 67 1 65 18
M  V30 68 1 66 19
M  V30 69 1 67 19
M  V30 70 1 20 68 CFG=1
M  V30 71 1 69 21
M  V30 72 1 70 21
M  V30 73 1 71 21
M  V30 74 1 72 23
M  V30 75 1 73 24
M  V30 76 1 74 24
M  V30 77 1 75 25
M  V30 78 1 76 25
M  V30 79 1 77 25
M  V30 80 1 78 30
M  V30 81 1 79 30
M  V30 82 1 31 80 CFG=1
M  V30 83 1 32 81 CFG=3
M  V30 84 1 82 33
M  V30 85 1 83 34
M  V30 86 1 84 34
M  V30 87 1 85 35
M  V30 88 1 86 35
M  V30 89 1 87 37
M  V30 90 1 88 37
M  V30 91 1 38 89 CFG=3
M  V30 END BOND
M  V30 END CTAB
M  END
>  <i_epik_Tot_Q>  (1) 
-2

>  <i_epik_Tot_abs_Q>  (1) 
2

>  <i_i_glide_confnum>  (1) 
1930

>  <i_i_glide_lignum>  (1) 
19

>  <i_i_glide_posenum>  (1) 
217

>  <i_i_glide_rotatable_bonds>  (1) 
13

>  <i_lp_mmshare_version>  (1) 
72125

>  <i_m_source_file_index>  (1) 
2

>  <i_f3d_flags>  (1) 
0

>  <num_sample>  (1) 
50

>  <b_lp_Chiralities_Consistent>  (1) 
1

>  <r_epik_Charging_Adjusted_Penalty>  (1) 
1.8994269935217587

>  <r_epik_Ionization_Penalty>  (1) 
0.94971411018702601

>  <r_epik_Ionization_Penalty_Charging>  (1) 
0.94971349676087924

>  <r_epik_Ionization_Penalty_Neutral>  (1) 
6.1342614676121867e-07

>  <r_epik_State_Penalty>  (1) 
0.94971349676087935

>  <r_glide_ring_energy>  (1) 
0

>  <r_i_docking_score>  (1) 
-3.8603400511807111

>  <r_i_glide_ecoul>  (1) 
-2.9446656610718276

>  <r_i_glide_eff_state_penalty>  (1) 
0.94971349676087935

>  <r_i_glide_einternal>  (1) 
12.622239408215632

>  <r_i_glide_emodel>  (1) 
-39.809722648935058

>  <r_i_glide_emodel_strain>  (1) 
0.7417432066097831

>  <r_i_glide_energy>  (1) 
-36.980158974255367

>  <r_i_glide_erotb>  (1) 
0.50299043937721266

>  <r_i_glide_esite>  (1) 
0

>  <r_i_glide_evdw>  (1) 
-34.035493313183537

>  <r_i_glide_gscore>  (1) 
-4.8100535479415907

>  <r_i_glide_gscore_strain>  (1) 
0

>  <r_i_glide_hbond>  (1) 
-0.20359131604572384

>  <r_i_glide_ligand_efficiency>  (1) 
-0.10158789608370293

>  <r_i_glide_ligand_efficiency_ln>  (1) 
-0.8324028747335378

>  <r_i_glide_ligand_efficiency_sa>  (1) 
-0.34153600826185804

>  <r_i_glide_lipo>  (1) 
-2.2480451033863278

>  <r_i_glide_metal>  (1) 
-0

>  <r_i_glide_rewards>  (1) 
-0.71793305306680022

>  <r_lp_Energy>  (1) 
46.940445999999994

>  <s_epik_cmdline>  (1) 
J2VwaWtfcHl0aG9uJywgJy1waHQnLCAnMS4wJywgJy1waCcsICc3LjQnLCAnLXRuJywgJzgnLCAnLW1hJywgJzUwMCcsICctaW1hZScsICc8aW5maWxlLm1hZT4nLCAnLW9tYWUnLCAnPG91dGZpbGUubWFlPic=

>  <s_epik_input>  (1) 
W0NIM11bQ0hdKFtDSDNdKVtDSDJdW0NIMl1bQ0BASF0oW09IXSlbQ0gyXVtDQEBIXShbQ0gzXSlPW0NIMl1bQ0BASF0oW0NIMl1bQ0gyXTEpW0NIMl1bQ0BIXShbQ0gyXVAoPU8pKFtPSF0pW09IXSlbQ0BIXTFbQ0BASF0oW0NIMl1bQ0gyXTIpW0NAQEhdKFtDQF0yM1tPSF0pW0NAQEhdKEYpW0NASF0oRilbQ0gyXVtDSDJdW0NIMl1bQ0gyXVtDSDJdMw==

>  <s_glide_docking_method>  (1) 
confgen

>  <s_i_glide_gridfile>  (1) 
gpcr_drd2_6luq_protein_autoprepared_prepared

>  <s_lp_Force_Field>  (1) 
S-OPLS

>  <s_lp_Variant>  (1) 
DiffSBDD_1-3

>  <s_m_source_file>  (1) 
generated_generic_title2_ligand_DiffSBDD_2026-06-23_prepared.sdf

>  <GenAI_Model>  (1) 
DiffSBDD

>  <Protein>  (1) 
generic_title2

$$$$
DiffSBDD_39
     RDKit          3D

  0  0  0  0  0  0  0  0  0  0999 V3000
M  V30 BEGIN CTAB
M  V30 COUNTS 68 71 0 0 1
M  V30 BEGIN ATOM
M  V30 1 C 8.155853 0.741856 -14.436706 0
M  V30 2 F 7.375497 7.863258 -14.371640 0
M  V30 3 F 7.519147 5.777238 -14.926795 0
M  V30 4 C 8.129598 4.343341 -19.384037 0
M  V30 5 C 7.547324 -0.163281 -16.725567 0
M  V30 6 C 5.328450 -0.973128 -17.295080 0 CFG=1
M  V30 7 O 8.367138 4.874565 -18.096252 0
M  V30 8 C 7.593569 5.108281 -11.872767 0 CFG=2
M  V30 9 C 5.386839 0.407338 -13.568323 0
M  V30 10 C 6.175033 1.035430 -18.454288 0 CFG=2
M  V30 11 O 5.546502 5.990214 -10.785048 0
M  V30 12 C 6.551105 0.670633 -12.585117 0
M  V30 13 N 7.678533 1.427993 -13.208094 0 CFG=2 CHG=1
M  V30 14 C 5.681704 6.431869 -13.630690 0
M  V30 15 C 7.030586 0.560104 -15.469720 0 CFG=1
M  V30 16 C 7.413408 2.887988 -13.386565 0
M  V30 17 O 5.441661 5.185998 -12.974227 0
M  V30 18 C 4.788944 -0.489365 -15.925617 0
M  V30 19 N 6.513741 -0.229433 -17.767653 0
M  V30 20 C 6.986020 3.312484 -19.346962 0 CFG=1
M  V30 21 C 6.548417 2.919564 -20.766772 0
M  V30 22 C 8.222370 3.771042 -12.393017 0
M  V30 23 C 5.883539 -0.250548 -14.866168 0 CFG=2
M  V30 24 C 6.045421 5.049858 -11.717068 0 CFG=1
M  V30 25 C 8.002706 6.323012 -12.704400 0
M  V30 26 C 5.364871 1.949271 -20.712999 0
M  V30 27 C 7.170985 6.614789 -13.949941 0
M  V30 28 O 8.960002 7.027214 -12.385030 0
M  V30 29 C 5.682988 0.696204 -19.884329 0
M  V30 30 O 5.719709 -2.328170 -17.209366 0
M  V30 31 C 7.358560 2.040571 -18.557487 0
M  V30 32 H 8.564223 -0.231190 -14.157794 0
M  V30 33 H 8.975399 1.288114 -14.891348 0
M  V30 34 H 7.868443 5.172295 -20.042406 0
M  V30 35 H 9.046757 3.901230 -19.775201 0
M  V30 36 H 7.849601 -1.177890 -16.461727 0
M  V30 37 H 8.456854 0.300008 -17.104827 0
M  V30 38 H 4.519578 -0.938986 -18.023419 0
M  V30 39 H 8.715997 4.190259 -17.546813 0
M  V30 40 H 8.000989 5.276078 -10.874412 0
M  V30 41 H 4.647010 -0.237791 -13.093295 0
M  V30 42 H 4.867814 1.335897 -13.785907 0
M  V30 43 H 5.375439 1.528931 -17.901969 0
M  V30 44 H 6.230730 6.597723 -10.502082 0
M  V30 45 H 6.937439 -0.286645 -12.231751 0
M  V30 46 H 6.175368 1.190110 -11.704120 0
M  V30 47 H 5.312380 7.262074 -13.026146 0
M  V30 48 H 5.109846 6.445159 -14.558091 0
M  V30 49 H 6.649180 1.542578 -15.747020 0
M  V30 50 H 7.654996 3.206181 -14.401236 0
M  V30 51 H 6.341639 3.031811 -13.300598 0
M  V30 52 H 4.051161 -1.209713 -15.585035 0
M  V30 53 H 4.220473 0.419999 -16.039946 0
M  V30 54 H 6.133284 3.784578 -18.855397 0
M  V30 55 H 6.264026 3.806992 -21.333631 0
M  V30 56 H 7.379362 2.460519 -21.304803 0
M  V30 57 H 8.542625 3.190239 -11.536598 0
M  V30 58 H 9.178616 3.996923 -12.869140 0
M  V30 59 H 6.288331 -1.209772 -14.585660 0
M  V30 60 H 5.745705 4.077874 -11.323297 0
M  V30 61 H 4.515214 2.464687 -20.273389 0
M  V30 62 H 5.067814 1.660630 -21.722057 0
M  V30 63 H 4.790722 0.072179 -19.863766 0
M  V30 64 H 6.445993 0.113456 -20.402483 0
M  V30 65 H 5.181334 -2.772339 -16.566616 0
M  V30 66 H 8.213807 1.558991 -19.034553 0
M  V30 67 H 7.686178 2.348678 -17.566880 0
M  V30 68 H 8.446699 1.374831 -12.549547 0
M  V30 END ATOM
M  V30 BEGIN BOND
M  V30 1 1 7 4
M  V30 2 1 12 9
M  V30 3 1 13 1
M  V30 4 1 13 12
M  V30 5 1 15 1
M  V30 6 1 15 5
M  V30 7 1 16 13
M  V30 8 1 17 14
M  V30 9 1 18 6
M  V30 10 1 19 5
M  V30 11 1 19 6
M  V30 12 1 19 10
M  V30 13 1 20 4
M  V30 14 1 21 20
M  V30 15 1 22 8
M  V30 16 1 22 16
M  V30 17 1 23 9
M  V30 18 1 23 15
M  V30 19 1 23 18
M  V30 20 1 24 8
M  V30 21 1 24 11
M  V30 22 1 24 17
M  V30 23 1 25 8
M  V30 24 1 26 21
M  V30 25 1 27 2
M  V30 26 1 27 3
M  V30 27 1 27 14
M  V30 28 1 27 25
M  V30 29 2 28 25
M  V30 30 1 29 10
M  V30 31 1 29 26
M  V30 32 1 30 6
M  V30 33 1 31 10
M  V30 34 1 31 20
M  V30 35 1 32 1
M  V30 36 1 33 1
M  V30 37 1 34 4
M  V30 38 1 35 4
M  V30 39 1 36 5
M  V30 40 1 37 5
M  V30 41 1 6 38 CFG=3
M  V30 42 1 39 7
M  V30 43 1 8 40 CFG=1
M  V30 44 1 41 9
M  V30 45 1 42 9
M  V30 46 1 10 43 CFG=1
M  V30 47 1 44 11
M  V30 48 1 45 12
M  V30 49 1 46 12
M  V30 50 1 47 14
M  V30 51 1 48 14
M  V30 52 1 15 49 CFG=3
M  V30 53 1 50 16
M  V30 54 1 51 16
M  V30 55 1 52 18
M  V30 56 1 53 18
M  V30 57 1 20 54 CFG=1
M  V30 58 1 55 21
M  V30 59 1 56 21
M  V30 60 1 57 22
M  V30 61 1 58 22
M  V30 62 1 23 59 CFG=1
M  V30 63 1 24 60 CFG=1
M  V30 64 1 61 26
M  V30 65 1 62 26
M  V30 66 1 63 29
M  V30 67 1 64 29
M  V30 68 1 65 30
M  V30 69 1 66 31
M  V30 70 1 67 31
M  V30 71 1 13 68 CFG=1
M  V30 END BOND
M  V30 END CTAB
M  END
>  <i_epik_Tot_Q>  (1) 
1

>  <i_epik_Tot_abs_Q>  (1) 
1

>  <i_i_glide_confnum>  (1) 
26

>  <i_i_glide_lignum>  (1) 
110

>  <i_i_glide_posenum>  (1) 
198

>  <i_i_glide_rotatable_bonds>  (1) 
8

>  <i_lp_mmshare_version>  (1) 
72125

>  <i_m_source_file_index>  (1) 
40

>  <i_f3d_flags>  (1) 
0

>  <num_sample>  (1) 
50

>  <b_lp_Chiralities_Consistent>  (1) 
1

>  <r_epik_Charging_Adjusted_Penalty>  (1) 
0.93182942678714009

>  <r_epik_Ionization_Penalty>  (1) 
0.32046720352224994

>  <r_epik_Ionization_Penalty_Charging>  (1) 
0.0037689991519664944

>  <r_epik_Ionization_Penalty_Neutral>  (1) 
0.31669820437028345

>  <r_epik_State_Penalty>  (1) 
0.9280604276351736

>  <r_glide_ring_energy>  (1) 
1.2534239858202048

>  <r_i_docking_score>  (1) 
-3.8472780827981961

>  <r_i_glide_ecoul>  (1) 
-6.953696054358657

>  <r_i_glide_eff_state_penalty>  (1) 
0.9280604276351736

>  <r_i_glide_einternal>  (1) 
21.533614679372505

>  <r_i_glide_emodel>  (1) 
-29.677641466061132

>  <r_i_glide_emodel_strain>  (1) 
5.6476408725865781

>  <r_i_glide_energy>  (1) 
-35.581434233285037

>  <r_i_glide_erotb>  (1) 
0.49989103335302049

>  <r_i_glide_esite>  (1) 
-0.024862248277982942

>  <r_i_glide_evdw>  (1) 
-28.627738178926382

>  <r_i_glide_gscore>  (1) 
-4.7753385104333699

>  <r_i_glide_gscore_strain>  (1) 
0.41191021814664452

>  <r_i_glide_hbond>  (1) 
-0.20041048726162927

>  <r_i_glide_ligand_efficiency>  (1) 
-0.12410574460639343

>  <r_i_glide_ligand_efficiency_ln>  (1) 
-0.86767911258438646

>  <r_i_glide_ligand_efficiency_sa>  (1) 
-0.38986338495715184

>  <r_i_glide_lipo>  (1) 
-1.6598080931291657

>  <r_i_glide_metal>  (1) 
-0

>  <r_i_glide_rewards>  (1) 
-1.3276176161641409

>  <r_lp_Energy>  (1) 
48.475696999999997

>  <s_epik_Chemistry_Notes>  (1) 
This compound contains an acetal/aminal-like group ( X-CH(R)-Y where X, Y are N, S, or O) that may be acid/base labile, releasing an aldehyde.

>  <s_epik_cmdline>  (1) 
J2VwaWtfcHl0aG9uJywgJy1waHQnLCAnMS4wJywgJy1waCcsICc3LjQnLCAnLXRuJywgJzgnLCAnLW1hJywgJzUwMCcsICctaW1hZScsICc8aW5maWxlLm1hZT4nLCAnLW9tYWUnLCAnPG91dGZpbGUubWFlPic=

>  <s_epik_input>  (1) 
RkMxKEYpW0NIMl1PW0NASF0oW09IXSlbQ0BIXShDMT1PKVtDSDJdW0NIMl1OKFtDSDJdMilbQ0gyXVtDSDJdW0NASF0oW0NAQEhdMjMpW0NIMl1bQ0BIXShbT0hdKU4oW0NIMl0zKVtDQEBIXTRbQ0gyXVtDSDJdW0NIMl1bQ0BASF0oW0NIMl00KVtDSDJdW09IXQ==

>  <s_glide_docking_method>  (1) 
confgen

>  <s_i_glide_gridfile>  (1) 
gpcr_drd2_6luq_protein_autoprepared_prepared

>  <s_lp_Force_Field>  (1) 
S-OPLS

>  <s_lp_Variant>  (1) 
DiffSBDD_39-6

>  <s_m_source_file>  (1) 
generated_generic_title2_ligand_DiffSBDD_2026-06-23_prepared.sdf

>  <GenAI_Model>  (1) 
DiffSBDD

>  <Protein>  (1) 
generic_title2

$$$$
DiffSBDD_9
     RDKit          3D

  0  0  0  0  0  0  0  0  0  0999 V3000
M  V30 BEGIN CTAB
M  V30 COUNTS 77 78 0 0 1
M  V30 BEGIN ATOM
M  V30 1 C 9.769949 8.364127 -9.473293 0
M  V30 2 F 14.378685 4.004381 -18.674388 0
M  V30 3 C 8.757231 4.381780 -16.756046 0 CFG=2
M  V30 4 O 12.143976 3.917104 -18.412266 0
M  V30 5 F 6.576433 1.991854 -16.835291 0
M  V30 6 C 7.566605 4.786368 -14.437886 0 CFG=2
M  V30 7 O 10.975398 10.390019 -3.998932 0
M  V30 8 C 9.614562 5.708737 -12.057681 0
M  V30 9 C 7.939189 3.972570 -13.172473 0 CFG=2
M  V30 10 F 13.544136 3.869167 -16.630038 0
M  V30 11 O 10.557354 5.990295 -12.788098 0
M  V30 12 C 11.255632 10.253643 -5.185044 0
M  V30 13 C 10.401253 5.320375 -19.157494 0
M  V30 14 C 10.186015 4.335996 -16.178277 0
M  V30 15 O 13.655560 6.580236 -17.685907 0
M  V30 16 F 14.558869 1.512649 -17.553978 0
M  V30 17 C 10.142882 7.350317 -8.377561 0
M  V30 18 C 9.699307 7.891380 -10.941225 0
M  V30 19 F 11.949692 7.525332 -18.782061 0
M  V30 20 O 10.175548 6.140688 -8.592908 0
M  V30 21 C 13.357161 3.520295 -17.925393 0
M  V30 22 N 9.123300 6.564879 -11.151571 0
M  V30 23 C 12.624788 6.362241 -18.621926 0
M  V30 24 C 6.253637 5.612596 -14.272941 0
M  V30 25 O 8.175412 1.589887 -15.322226 0
M  V30 26 F 13.158534 6.065325 -19.832618 0
M  V30 27 C 11.617996 5.240261 -18.187392 0 CFG=2
M  V30 28 C 7.580681 3.962342 -15.794712 0 CFG=2
M  V30 29 C 8.750681 3.701353 -18.117315 0
M  V30 30 O 7.545323 4.559656 -11.918193 0
M  V30 31 C 7.141721 2.457545 -15.692987 0 CFG=1
M  V30 32 C 5.119217 4.844094 -13.582799 0
M  V30 33 C 6.469579 6.988101 -13.616235 0
M  V30 34 C 12.223876 9.185432 -5.632517 0
M  V30 35 C 8.943276 4.374162 -12.090204 0 CFG=2
M  V30 36 C 9.476350 4.113745 -19.170515 0
M  V30 37 C 13.391410 1.988057 -17.994769 0
M  V30 38 C 11.830857 8.628022 -7.007596 0
M  V30 39 C 11.125699 5.430780 -16.721509 0
M  V30 40 C 10.468445 7.913020 -7.003184 0
M  V30 41 H 10.479659 9.187301 -9.430544 0
M  V30 42 H 8.818264 8.803357 -9.185410 0
M  V30 43 H 8.554830 5.434653 -16.965180 0
M  V30 44 H 8.338037 5.547823 -14.543422 0
M  V30 45 H 7.697026 2.915800 -13.199069 0
M  V30 46 H 10.839275 10.866445 -5.977540 0
M  V30 47 H 9.808005 6.212710 -18.958216 0
M  V30 48 H 10.757137 5.432497 -20.182460 0
M  V30 49 H 10.164678 4.432067 -15.094912 0
M  V30 50 H 10.627002 3.361959 -16.385263 0
M  V30 51 H 14.474229 6.425346 -18.130831 0
M  V30 52 H 10.712986 7.946201 -11.338145 0
M  V30 53 H 9.106865 8.597935 -11.523863 0
M  V30 54 H 8.342453 6.284766 -10.570206 0
M  V30 55 H 5.887718 5.872237 -15.265295 0
M  V30 56 H 7.825223 0.955547 -14.715836 0
M  V30 57 H 6.741615 4.355341 -16.365808 0
M  V30 58 H 8.127484 2.830357 -18.222783 0
M  V30 59 H 6.386961 2.361880 -14.917885 0
M  V30 60 H 5.110293 5.001719 -12.504269 0
M  V30 61 H 4.173583 5.189906 -13.985020 0
M  V30 62 H 5.170144 3.772937 -13.749018 0
M  V30 63 H 6.774887 6.908092 -12.574582 0
M  V30 64 H 7.231087 7.564963 -14.144627 0
M  V30 65 H 5.549758 7.574360 -13.638177 0
M  V30 66 H 12.214496 8.392106 -4.885048 0
M  V30 67 H 13.230183 9.603934 -5.660405 0
M  V30 68 H 9.380584 3.580659 -11.485708 0
M  V30 69 H 9.417044 3.566822 -20.099477 0
M  V30 70 H 12.609808 1.552426 -17.370171 0
M  V30 71 H 13.255588 1.631266 -19.014810 0
M  V30 72 H 12.591590 7.932810 -7.353881 0
M  V30 73 H 11.828568 9.444169 -7.730504 0
M  V30 74 H 11.970904 5.509097 -16.039472 0
M  V30 75 H 10.624820 6.390931 -16.632626 0
M  V30 76 H 9.663913 8.591744 -6.715042 0
M  V30 77 H 10.473930 7.096202 -6.280760 0
M  V30 END ATOM
M  V30 BEGIN BOND
M  V30 1 1 9 6
M  V30 2 2 11 8
M  V30 3 2 12 7
M  V30 4 1 14 3
M  V30 5 1 17 1
M  V30 6 1 18 1
M  V30 7 2 20 17
M  V30 8 1 21 2
M  V30 9 1 21 4
M  V30 10 1 21 10
M  V30 11 1 22 8
M  V30 12 1 22 18
M  V30 13 1 23 15
M  V30 14 1 23 19
M  V30 15 1 24 6
M  V30 16 1 26 23
M  V30 17 1 27 4 CFG=1
M  V30 18 1 27 13
M  V30 19 1 27 23
M  V30 20 1 28 3
M  V30 21 1 28 6
M  V30 22 1 29 3
M  V30 23 1 30 9
M  V30 24 1 31 5
M  V30 25 1 31 25
M  V30 26 1 31 28
M  V30 27 1 32 24
M  V30 28 1 33 24
M  V30 29 1 34 12
M  V30 30 1 35 8
M  V30 31 1 35 9
M  V30 32 1 35 30
M  V30 33 1 36 13
M  V30 34 2 36 29
M  V30 35 1 37 16
M  V30 36 1 37 21
M  V30 37 1 38 34
M  V30 38 1 39 14
M  V30 39 1 39 27
M  V30 40 1 40 17
M  V30 41 1 40 38
M  V30 42 1 41 1
M  V30 43 1 42 1
M  V30 44 1 3 43 CFG=3
M  V30 45 1 6 44 CFG=3
M  V30 46 1 9 45 CFG=3
M  V30 47 1 46 12
M  V30 48 1 47 13
M  V30 49 1 48 13
M  V30 50 1 49 14
M  V30 51 1 50 14
M  V30 52 1 51 15
M  V30 53 1 52 18
M  V30 54 1 53 18
M  V30 55 1 54 22
M  V30 56 1 55 24
M  V30 57 1 56 25
M  V30 58 1 28 57 CFG=3
M  V30 59 1 58 29
M  V30 60 1 31 59 CFG=1
M  V30 61 1 60 32
M  V30 62 1 61 32
M  V30 63 1 62 32
M  V30 64 1 63 33
M  V30 65 1 64 33
M  V30 66 1 65 33
M  V30 67 1 66 34
M  V30 68 1 67 34
M  V30 69 1 35 68 CFG=1
M  V30 70 1 69 36
M  V30 71 1 70 37
M  V30 72 1 71 37
M  V30 73 1 72 38
M  V30 74 1 73 38
M  V30 75 1 74 39
M  V30 76 1 75 39
M  V30 77 1 76 40
M  V30 78 1 77 40
M  V30 END BOND
M  V30 END CTAB
M  END
>  <i_epik_Tot_Q>  (1) 
0

>  <i_epik_Tot_abs_Q>  (1) 
0

>  <i_i_glide_confnum>  (1) 
4076

>  <i_i_glide_lignum>  (1) 
44

>  <i_i_glide_posenum>  (1) 
48

>  <i_i_glide_rotatable_bonds>  (1) 
20

>  <i_lp_mmshare_version>  (1) 
72125

>  <i_m_source_file_index>  (1) 
10

>  <i_f3d_flags>  (1) 
0

>  <num_sample>  (1) 
50

>  <b_lp_Chiralities_Consistent>  (1) 
1

>  <r_epik_Charging_Adjusted_Penalty>  (1) 
0.024791601223723252

>  <r_epik_Ionization_Penalty>  (1) 
0.024829857689501161

>  <r_epik_Ionization_Penalty_Charging>  (1) 
0

>  <r_epik_Ionization_Penalty_Neutral>  (1) 
0.024829857689501161

>  <r_epik_State_Penalty>  (1) 
0.024791601223723252

>  <r_glide_ring_energy>  (1) 
0

>  <r_i_docking_score>  (1) 
-3.8399839396411886

>  <r_i_glide_ecoul>  (1) 
-0.68032996235749454

>  <r_i_glide_eff_state_penalty>  (1) 
0.024791601223723252

>  <r_i_glide_einternal>  (1) 
19.460319283275538

>  <r_i_glide_emodel>  (1) 
-28.494559944381301

>  <r_i_glide_emodel_strain>  (1) 
6.0582205652166081

>  <r_i_glide_energy>  (1) 
-33.838924935519543

>  <r_i_glide_erotb>  (1) 
0.79596426883134463

>  <r_i_glide_esite>  (1) 
-0.13158152210509746

>  <r_i_glide_evdw>  (1) 
-33.158594973162046

>  <r_i_glide_gscore>  (1) 
-3.8647755408649118

>  <r_i_glide_gscore_strain>  (1) 
0.51455514130415203

>  <r_i_glide_hbond>  (1) 
-0.005027918768900159

>  <r_i_glide_ligand_efficiency>  (1) 
-0.095999598491029708

>  <r_i_glide_ligand_efficiency_ln>  (1) 
-0.81895556864275065

>  <r_i_glide_ligand_efficiency_sa>  (1) 
-0.32831400862056276

>  <r_i_glide_lipo>  (1) 
-2.1139181508743139

>  <r_i_glide_metal>  (1) 
-0

>  <r_i_glide_rewards>  (1) 
-1.1647881162403697

>  <r_lp_Energy>  (1) 
20.029204999999997

>  <r_lp_tautomer_probability>  (1) 
0.99989996500775002

>  <s_epik_cmdline>  (1) 
J2VwaWtfcHl0aG9uJywgJy1waHQnLCAnMS4wJywgJy1waCcsICc3LjQnLCAnLXRuJywgJzgnLCAnLW1hJywgJzUwMCcsICctaW1hZScsICc8aW5maWxlLm1hZT4nLCAnLW9tYWUnLCAnPG91dGZpbGUubWFlPic=

>  <s_epik_input>  (1) 
Tz1bQ0hdW0NIMl1bQ0gyXVtDSDJdQyg9TylbQ0gyXVtDSDJdW05IXUMoPU8pW0NASF0xT1tDQEhdMVtDQEhdKFtDSF0oW0NIM10pW0NIM10pW0NASF0oW0NAQEhdKEYpW09IXSlbQ0BASF0oW0NIMl1bQ0gyXTIpW0NIXT1bQ0hdW0NIMl1bQ0BdMihDKEYpKEYpW09IXSlPQyhGKShGKVtDSDJdRg==

>  <s_glide_docking_method>  (1) 
confgen

>  <s_i_glide_gridfile>  (1) 
gpcr_drd2_6luq_protein_autoprepared_prepared

>  <s_lp_Force_Field>  (1) 
S-OPLS

>  <s_lp_Variant>  (1) 
DiffSBDD_9-1

>  <s_m_source_file>  (1) 
generated_generic_title2_ligand_DiffSBDD_2026-06-23_prepared.sdf

>  <GenAI_Model>  (1) 
DiffSBDD

>  <Protein>  (1) 
generic_title2

$$$$
DiffSBDD_44
     RDKit          3D

  0  0  0  0  0  0  0  0  0  0999 V3000
M  V30 BEGIN CTAB
M  V30 COUNTS 61 63 0 0 1
M  V30 BEGIN ATOM
M  V30 1 C 6.692942 2.575583 -21.316588 0
M  V30 2 C 7.560112 3.283876 -14.962730 0
M  V30 3 O 8.895392 1.117409 -22.483070 0
M  V30 4 O 5.885546 3.322165 -21.874809 0
M  V30 5 O 8.134112 0.614766 -15.586446 0
M  V30 6 C 7.906889 1.622426 -18.985222 0 CFG=2
M  V30 7 C 9.057171 2.493598 -22.208798 0
M  V30 8 C 6.021919 5.619689 -12.165189 0
M  V30 9 C 10.037056 3.796152 -17.489548 0
M  V30 10 C 7.228967 0.535978 -19.816940 0
M  V30 11 C 7.668047 4.726252 -17.567134 0
M  V30 12 C 6.957315 6.759483 -20.675974 0
M  V30 13 O 8.711133 2.418863 -19.856482 0
M  V30 14 C 7.363336 5.444351 -19.982399 0 CFG=1
M  V30 15 C 6.294989 1.152615 -20.878414 0 CFG=1
M  V30 16 N 7.475483 7.589601 -11.985005 0 CHG=1
M  V30 17 F 4.830381 6.144368 -10.187966 0
M  V30 18 C 6.972830 2.518241 -13.951866 0
M  V30 19 S 7.459199 5.000473 -14.528691 0
M  V30 20 O 4.975388 1.165040 -20.383042 0
M  V30 21 C 5.367612 5.258472 -11.042308 0
M  V30 22 C 8.265738 4.600349 -20.948501 0 CFG=1
M  V30 23 C 8.553839 3.821101 -17.101798 0
M  V30 24 C 6.211030 7.080651 -12.542467 0
M  V30 25 C 6.581642 4.602852 -13.082919 0
M  V30 26 N 6.458101 3.295732 -12.907439 0
M  V30 27 C 7.989185 5.782633 -18.597186 0
M  V30 28 F 5.182403 3.985464 -10.659002 0
M  V30 29 C 8.348949 1.500161 -16.409931 0
M  V30 30 C 8.817985 1.099502 -17.834581 0
M  V30 31 O 10.415823 2.799319 -21.992478 0
M  V30 32 F 9.528182 5.003537 -20.790677 0
M  V30 33 N 8.174086 2.847946 -16.136148 0
M  V30 34 C 8.155977 3.026504 -21.036775 0 CFG=2
M  V30 35 H 9.393632 0.915413 -23.260561 0
M  V30 36 H 7.101480 2.234351 -18.577115 0
M  V30 37 H 8.767843 3.011162 -23.124863 0
M  V30 38 H 10.213605 3.631083 -18.548073 0
M  V30 39 H 10.620235 3.081881 -16.907377 0
M  V30 40 H 10.466161 4.770444 -17.254796 0
M  V30 41 H 7.989444 -0.075519 -20.302675 0
M  V30 42 H 6.671674 -0.140495 -19.166102 0
M  V30 43 H 6.642037 4.690632 -17.226553 0
M  V30 44 H 7.828845 7.370626 -20.912694 0
M  V30 45 H 6.292062 7.354582 -20.049113 0
M  V30 46 H 6.426212 6.566064 -21.608346 0
M  V30 47 H 6.429640 4.910043 -19.810169 0
M  V30 48 H 6.295632 0.513347 -21.761839 0
M  V30 49 H 7.633421 8.539865 -12.284408 0
M  V30 50 H 8.254316 7.005863 -12.251062 0
M  V30 51 H 6.871433 1.446649 -13.895970 0
M  V30 52 H 4.392577 0.910530 -21.090451 0
M  V30 53 H 8.037324 4.941600 -21.959186 0
M  V30 54 H 6.136820 7.240718 -13.618300 0
M  V30 55 H 5.411145 7.675039 -12.097701 0
M  V30 56 H 9.057870 5.978625 -18.670208 0
M  V30 57 H 7.555749 6.702972 -18.204597 0
M  V30 58 H 8.788226 0.009010 -17.860952 0
M  V30 59 H 9.870430 1.314773 -18.003882 0
M  V30 60 H 10.581037 2.694792 -21.066127 0
M  V30 61 H 7.377133 7.590476 -10.960458 0
M  V30 END ATOM
M  V30 BEGIN BOND
M  V30 1 2 4 1
M  V30 2 1 7 3
M  V30 3 1 10 6
M  V30 4 1 13 6
M  V30 5 1 14 12
M  V30 6 1 15 1
M  V30 7 1 15 10
M  V30 8 2 18 2
M  V30 9 1 19 2
M  V30 10 1 20 15
M  V30 11 2 21 8
M  V30 12 1 21 17
M  V30 13 1 22 14
M  V30 14 1 23 9
M  V30 15 2 23 11
M  V30 16 1 24 8
M  V30 17 1 24 16
M  V30 18 1 25 8
M  V30 19 1 25 19
M  V30 20 1 26 18
M  V30 21 2 26 25
M  V30 22 1 27 11
M  V30 23 1 27 14
M  V30 24 1 28 21
M  V30 25 2 29 5
M  V30 26 1 30 6
M  V30 27 1 30 29
M  V30 28 1 31 7
M  V30 29 1 32 22
M  V30 30 1 33 2
M  V30 31 1 33 23
M  V30 32 1 33 29
M  V30 33 1 34 1
M  V30 34 1 34 7 CFG=3
M  V30 35 1 34 13
M  V30 36 1 34 22
M  V30 37 1 35 3
M  V30 38 1 6 36 CFG=1
M  V30 39 1 37 7
M  V30 40 1 38 9
M  V30 41 1 39 9
M  V30 42 1 40 9
M  V30 43 1 41 10
M  V30 44 1 42 10
M  V30 45 1 43 11
M  V30 46 1 44 12
M  V30 47 1 45 12
M  V30 48 1 46 12
M  V30 49 1 14 47 CFG=1
M  V30 50 1 15 48 CFG=3
M  V30 51 1 49 16
M  V30 52 1 50 16
M  V30 53 1 51 18
M  V30 54 1 52 20
M  V30 55 1 22 53 CFG=3
M  V30 56 1 54 24
M  V30 57 1 55 24
M  V30 58 1 56 27
M  V30 59 1 57 27
M  V30 60 1 58 30
M  V30 61 1 59 30
M  V30 62 1 60 31
M  V30 63 1 61 16
M  V30 END BOND
M  V30 END CTAB
M  END
>  <i_epik_Tot_Q>  (1) 
1

>  <i_epik_Tot_abs_Q>  (1) 
1

>  <i_i_glide_confnum>  (1) 
19

>  <i_i_glide_lignum>  (1) 
121

>  <i_i_glide_posenum>  (1) 
141

>  <i_i_glide_rotatable_bonds>  (1) 
7

>  <i_lp_mmshare_version>  (1) 
72125

>  <i_m_source_file_index>  (1) 
45

>  <i_f3d_flags>  (1) 
0

>  <num_sample>  (1) 
50

>  <b_lp_Chiralities_Consistent>  (1) 
1

>  <r_epik_Charging_Adjusted_Penalty>  (1) 
1.7853739982533117

>  <r_epik_Ionization_Penalty>  (1) 
0.89286729103917917

>  <r_epik_Ionization_Penalty_Charging>  (1) 
0.89268699912665583

>  <r_epik_Ionization_Penalty_Neutral>  (1) 
0.00018029191252335439

>  <r_epik_State_Penalty>  (1) 
0.89268699912665583

>  <r_glide_ring_energy>  (1) 
0

>  <r_i_docking_score>  (1) 
-3.8363727533515521

>  <r_i_glide_ecoul>  (1) 
-9.2957121636456321

>  <r_i_glide_eff_state_penalty>  (1) 
0.89268699912665583

>  <r_i_glide_einternal>  (1) 
8.5779467502960767

>  <r_i_glide_emodel>  (1) 
-44.390928891040545

>  <r_i_glide_emodel_strain>  (1) 
0.43572302971317356

>  <r_i_glide_energy>  (1) 
-36.35142503936018

>  <r_i_glide_erotb>  (1) 
0.31898952436158168

>  <r_i_glide_esite>  (1) 
-0.20479122217621254

>  <r_i_glide_evdw>  (1) 
-27.055712875714544

>  <r_i_glide_gscore>  (1) 
-4.7290597524782081

>  <r_i_glide_gscore_strain>  (1) 
0

>  <r_i_glide_hbond>  (1) 
-0.52000000000000002

>  <r_i_glide_ligand_efficiency>  (1) 
-0.11283449274563388

>  <r_i_glide_ligand_efficiency_ln>  (1) 
-0.84756234782621054

>  <r_i_glide_ligand_efficiency_sa>  (1) 
-0.36553995428991415

>  <r_i_glide_lipo>  (1) 
-0.91472115731633785

>  <r_i_glide_metal>  (1) 
-0

>  <r_i_glide_rewards>  (1) 
-0.66139442901466772

>  <r_lp_Energy>  (1) 
47.678134

>  <s_epik_Chemistry_Notes>  (1) 
This compound contains an acetal/aminal-like group ( X-CH(R)-Y where X, Y are N, S, or O) that may be acid/base labile, releasing an aldehyde.

>  <s_epik_cmdline>  (1) 
J2VwaWtfcHl0aG9uJywgJy1waHQnLCAnMS4wJywgJy1waCcsICc3LjQnLCAnLXRuJywgJzgnLCAnLW1hJywgJzUwMCcsICctaW1hZScsICc8aW5maWxlLm1hZT4nLCAnLW9tYWUnLCAnPG91dGZpbGUubWFlPic=

>  <s_epik_input>  (1) 
W09IXVtDSF0oW09IXSlbQ0BAXTEyQyg9TylbQ0BIXShbT0hdKVtDSDJdW0NASF0oTzEpW0NIMl1DKD1PKU4oQyhcW0NIM10pPVtDSF1cW0NIMl1bQ0BASF0oW0NIM10pW0NASF0yRiljM1tjSF1uYyhzMylDKD1DKEYpRilbQ0gyXVtOSDJd

>  <s_glide_docking_method>  (1) 
confgen

>  <s_i_glide_gridfile>  (1) 
gpcr_drd2_6luq_protein_autoprepared_prepared

>  <s_lp_Force_Field>  (1) 
S-OPLS

>  <s_lp_Variant>  (1) 
DiffSBDD_44-2

>  <s_m_source_file>  (1) 
generated_generic_title2_ligand_DiffSBDD_2026-06-23_prepared.sdf

>  <GenAI_Model>  (1) 
DiffSBDD

>  <Protein>  (1) 
generic_title2

$$$$
DiffSBDD_0
     RDKit          3D

  0  0  0  0  0  0  0  0  0  0999 V3000
M  V30 BEGIN CTAB
M  V30 COUNTS 70 74 0 0 1
M  V30 BEGIN ATOM
M  V30 1 C 5.876716 5.279424 -21.199130 0
M  V30 2 N 6.318102 5.699643 -13.024890 0
M  V30 3 C 9.635574 7.644544 -11.802815 0 CFG=1
M  V30 4 C 5.835944 5.701509 -15.439814 0
M  V30 5 F 3.775408 7.600237 -19.185017 0
M  V30 6 C 6.033640 7.099285 -12.748290 0
M  V30 7 C 7.210051 5.815651 -20.648230 0
M  V30 8 C 5.025944 7.344145 -16.855590 0
M  V30 9 C 5.939496 7.659133 -19.375596 0 CFG=1
M  V30 10 C 10.486885 7.166222 -9.334422 0
M  V30 11 C 6.884996 4.977227 -11.896108 0 CFG=2
M  V30 12 C 6.786282 1.371641 -12.726499 0
M  V30 13 C 10.725978 7.305087 -10.811907 0 CFG=1
M  V30 14 O 5.471884 7.010031 -15.541905 0
M  V30 15 C 4.679312 7.166896 -20.038676 0 CFG=1
M  V30 16 C 10.409099 6.363712 -11.971654 0 CFG=1
M  V30 17 N 8.231286 7.205589 -11.584990 0 CFG=2 CHG=1
M  V30 18 C 6.127883 7.118779 -17.932092 0
M  V30 19 C 6.182589 2.690920 -12.199081 0
M  V30 20 C 8.164265 5.722914 -11.386266 0 CFG=2
M  V30 21 O 6.099256 0.240180 -12.232989 0
M  V30 22 C 7.142435 7.316136 -20.286866 0
M  V30 23 N 10.668757 8.200117 -8.461251 0
M  V30 24 C 7.388140 7.789212 -12.642436 0
M  V30 25 N 10.174155 5.991771 -8.787220 0
M  V30 26 O 10.303705 6.216350 -7.411522 0
M  V30 27 C 10.639386 7.516347 -7.328982 0
M  V30 28 O 7.235584 3.651155 -12.165185 0
M  V30 29 N 10.965461 7.947355 -6.055697 0
M  V30 30 C 6.225754 5.115907 -14.296396 0
M  V30 31 C 4.694636 5.646381 -20.285990 0
M  V30 32 C 11.047059 7.224289 -4.801269 0
M  V30 33 C 9.471664 5.180231 -11.962341 0
M  V30 34 H 5.708241 5.684659 -22.197201 0
M  V30 35 H 5.934731 4.197064 -21.318773 0
M  V30 36 H 9.776271 8.481696 -12.478065 0
M  V30 37 H 5.780522 5.189935 -16.374102 0
M  V30 38 H 5.368256 7.589909 -13.447864 0
M  V30 39 H 5.515693 7.167999 -11.791051 0
M  V30 40 H 8.003499 5.648584 -21.377370 0
M  V30 41 H 7.497327 5.236640 -19.771312 0
M  V30 42 H 4.137521 6.744516 -17.060225 0
M  V30 43 H 4.716813 8.386460 -16.843733 0
M  V30 44 H 5.775397 8.739557 -19.317753 0
M  V30 45 H 6.124763 4.979475 -11.109557 0
M  V30 46 H 7.819700 1.279761 -12.385437 0
M  V30 47 H 6.809749 1.352653 -13.815296 0
M  V30 48 H 11.657869 7.854798 -10.927784 0
M  V30 49 H 4.497240 7.696568 -20.974627 0
M  V30 50 H 11.168149 6.328043 -12.751035 0
M  V30 51 H 6.975442 7.590201 -17.489591 0
M  V30 52 H 6.410278 6.076643 -18.024419 0
M  V30 53 H 5.375332 3.005030 -12.850660 0
M  V30 54 H 5.775414 2.581069 -11.190055 0
M  V30 55 H 8.180463 5.549692 -10.311700 0
M  V30 56 H 5.550255 -0.128579 -12.911947 0
M  V30 57 H 7.074732 7.903994 -21.204045 0
M  V30 58 H 8.081442 7.590158 -19.807339 0
M  V30 59 H 7.882824 7.707357 -13.611402 0
M  V30 60 H 7.364698 8.845496 -12.385207 0
M  V30 61 H 11.232349 8.917908 -5.992285 0
M  V30 62 H 6.511718 4.078683 -14.306548 0
M  V30 63 H 3.772796 5.308093 -20.753580 0
M  V30 64 H 4.775805 5.106972 -19.344488 0
M  V30 65 H 11.375722 7.877810 -3.994074 0
M  V30 66 H 10.080384 6.789332 -4.552193 0
M  V30 67 H 11.761548 6.405504 -4.889625 0
M  V30 68 H 9.342370 4.836326 -12.989655 0
M  V30 69 H 9.871620 4.355035 -11.375301 0
M  V30 70 H 7.865684 7.589832 -10.702868 0
M  V30 END ATOM
M  V30 BEGIN BOND
M  V30 1 1 6 2
M  V30 2 1 7 1
M  V30 3 1 11 2
M  V30 4 1 13 3
M  V30 5 1 13 10
M  V30 6 1 14 4
M  V30 7 1 14 8
M  V30 8 1 15 5
M  V30 9 1 15 9
M  V30 10 1 16 3
M  V30 11 1 16 13
M  V30 12 1 17 3
M  V30 13 1 18 8
M  V30 14 1 18 9
M  V30 15 1 19 12
M  V30 16 1 20 11
M  V30 17 1 20 17
M  V30 18 1 21 12
M  V30 19 1 22 7
M  V30 20 1 22 9
M  V30 21 1 23 10
M  V30 22 1 24 6
M  V30 23 1 24 17
M  V30 24 2 25 10
M  V30 25 1 26 25
M  V30 26 2 27 23
M  V30 27 1 27 26
M  V30 28 1 28 11
M  V30 29 1 28 19
M  V30 30 1 29 27
M  V30 31 1 30 2
M  V30 32 2 30 4
M  V30 33 1 31 1
M  V30 34 1 31 15
M  V30 35 1 32 29
M  V30 36 1 33 16
M  V30 37 1 33 20
M  V30 38 1 34 1
M  V30 39 1 35 1
M  V30 40 1 3 36 CFG=3
M  V30 41 1 37 4
M  V30 42 1 38 6
M  V30 43 1 39 6
M  V30 44 1 40 7
M  V30 45 1 41 7
M  V30 46 1 42 8
M  V30 47 1 43 8
M  V30 48 1 9 44 CFG=1
M  V30 49 1 11 45 CFG=1
M  V30 50 1 46 12
M  V30 51 1 47 12
M  V30 52 1 13 48 CFG=1
M  V30 53 1 15 49 CFG=3
M  V30 54 1 16 50 CFG=3
M  V30 55 1 51 18
M  V30 56 1 52 18
M  V30 57 1 53 19
M  V30 58 1 54 19
M  V30 59 1 20 55 CFG=1
M  V30 60 1 56 21
M  V30 61 1 57 22
M  V30 62 1 58 22
M  V30 63 1 59 24
M  V30 64 1 60 24
M  V30 65 1 61 29
M  V30 66 1 62 30
M  V30 67 1 63 31
M  V30 68 1 64 31
M  V30 69 1 65 32
M  V30 70 1 66 32
M  V30 71 1 67 32
M  V30 72 1 68 33
M  V30 73 1 69 33
M  V30 74 1 17 70 CFG=1
M  V30 END BOND
M  V30 END CTAB
M  END
>  <i_epik_Tot_Q>  (1) 
1

>  <i_epik_Tot_abs_Q>  (1) 
1

>  <i_i_glide_confnum>  (1) 
141

>  <i_i_glide_lignum>  (1) 
11

>  <i_i_glide_posenum>  (1) 
117

>  <i_i_glide_rotatable_bonds>  (1) 
11

>  <i_lp_mmshare_version>  (1) 
72125

>  <i_m_source_file_index>  (1) 
1

>  <i_f3d_flags>  (1) 
0

>  <num_sample>  (1) 
50

>  <b_lp_Chiralities_Consistent>  (1) 
1

>  <r_epik_Charging_Adjusted_Penalty>  (1) 
0.41344222577729461

>  <r_epik_Ionization_Penalty>  (1) 
0.0027644559619576371

>  <r_epik_Ionization_Penalty_Charging>  (1) 
0.0027623868246906495

>  <r_epik_Ionization_Penalty_Neutral>  (1) 
2.0691372669875143e-06

>  <r_epik_State_Penalty>  (1) 
0.41067983895260396

>  <r_glide_ring_energy>  (1) 
1.6783687507504006

>  <r_i_docking_score>  (1) 
-3.8361732008917833

>  <r_i_glide_ecoul>  (1) 
-6.4823350396841004

>  <r_i_glide_eff_state_penalty>  (1) 
0.41067983895260396

>  <r_i_glide_einternal>  (1) 
18.424429943642743

>  <r_i_glide_emodel>  (1) 
-26.01172463781964

>  <r_i_glide_emodel_strain>  (1) 
6.8299591900248515

>  <r_i_glide_energy>  (1) 
-34.947795815935805

>  <r_i_glide_erotb>  (1) 
0.74142510397790429

>  <r_i_glide_esite>  (1) 
-0.14893914761360777

>  <r_i_glide_evdw>  (1) 
-28.465460776251707

>  <r_i_glide_gscore>  (1) 
-4.2468530398443871

>  <r_i_glide_gscore_strain>  (1) 
0.70748979750621288

>  <r_i_glide_hbond>  (1) 
-0.20000000000000001

>  <r_i_glide_ligand_efficiency>  (1) 
-0.11624767275429647

>  <r_i_glide_ligand_efficiency_ln>  (1) 
-0.85314505723652412

>  <r_i_glide_ligand_efficiency_sa>  (1) 
-0.37286840114152642

>  <r_i_glide_lipo>  (1) 
-1.8410403785722567

>  <r_i_glide_metal>  (1) 
-0

>  <r_i_glide_rewards>  (1) 
-1.1101651203774392

>  <r_lp_Energy>  (1) 
38.871550999999997

>  <r_lp_tautomer_probability>  (1) 
0.5

>  <s_epik_Chemistry_Notes>  (1) 
This compound has an imine and may undergo hydrolysis. This compound contains an acetal/aminal-like group ( X-CH(R)-Y where X, Y are N, S, or O) that may be acid/base labile, releasing an aldehyde.

>  <s_epik_cmdline>  (1) 
J2VwaWtfcHl0aG9uJywgJy1waHQnLCAnMS4wJywgJy1waCcsICc3LjQnLCAnLXRuJywgJzgnLCAnLW1hJywgJzUwMCcsICctaW1hZScsICc8aW5maWxlLm1hZT4nLCAnLW9tYWUnLCAnPG91dGZpbGUubWFlPic=

>  <s_epik_input>  (1) 
W0NIMl0xW0NIMl1bQ0gyXVtDSDJdW0NASF0oRilbQ0BIXTFbQ0gyXVtDSDJdTy9bQ0hdPVtDSF1cTihbQ0BIXTJPW0NIMl1bQ0gyXVtPSF0pW0NIMl1bQ0gyXU4zW0NAQEhdMltDSDJdW0NAQEhdKFtDQEBIXTM0KVtDQEBIXTRjNW5jKG9uNSlbTkhdW0NIM10=

>  <s_glide_docking_method>  (1) 
confgen

>  <s_i_glide_gridfile>  (1) 
gpcr_drd2_6luq_protein_autoprepared_prepared

>  <s_lp_Force_Field>  (1) 
S-OPLS

>  <s_lp_Variant>  (1) 
DiffSBDD_0-11

>  <s_m_source_file>  (1) 
generated_generic_title2_ligand_DiffSBDD_2026-06-23_prepared.sdf

>  <GenAI_Model>  (1) 
DiffSBDD

>  <Protein>  (1) 
generic_title2

$$$$
DiffSBDD_39
     RDKit          3D

  0  0  0  0  0  0  0  0  0  0999 V3000
M  V30 BEGIN CTAB
M  V30 COUNTS 69 72 0 0 1
M  V30 BEGIN ATOM
M  V30 1 C 9.145566 4.756242 -11.327165 0
M  V30 2 F 6.575410 -0.949866 -13.439014 0
M  V30 3 F 4.620601 -0.009780 -13.246664 0
M  V30 4 C 12.174900 10.234814 -5.250133 0
M  V30 5 C 9.941041 6.265155 -9.520066 0
M  V30 6 C 9.889945 8.694000 -9.709946 0 CFG=1
M  V30 7 O 10.975403 10.656210 -4.654111 0
M  V30 8 C 7.607671 1.612806 -14.698992 0 CFG=2
M  V30 9 C 8.104314 7.051933 -12.782006 0
M  V30 10 C 10.688533 7.525866 -7.594272 0 CFG=2
M  V30 11 O 8.177754 1.512865 -17.045504 0
M  V30 12 C 8.405660 5.739470 -13.488047 0
M  V30 13 N 8.312880 4.592756 -12.542328 0 CFG=1 CHG=1
M  V30 14 C 5.502245 -0.243201 -15.420816 0
M  V30 15 C 8.914616 6.082193 -10.630006 0 CFG=1
M  V30 16 C 8.694959 3.319062 -13.159846 0
M  V30 17 O 6.672225 0.002408 -16.199508 0
M  V30 18 C 9.040151 8.562834 -11.003130 0
M  V30 19 N 9.775373 7.525373 -8.777022 0 CFG=2 CHG=1
M  V30 20 C 11.998352 8.895039 -5.920651 0 CFG=1
M  V30 21 C 11.703513 7.805493 -4.872038 0
M  V30 22 C 8.020714 3.076703 -14.534641 0
M  V30 23 C 9.108012 7.200708 -11.647107 0 CFG=2
M  V30 24 C 7.121367 1.319044 -16.136475 0 CFG=1
M  V30 25 C 6.479017 1.292859 -13.720439 0
M  V30 26 C 11.322001 6.433985 -5.433410 0
M  V30 27 C 5.770616 -0.009765 -13.921863 0
M  V30 28 O 6.175020 2.059262 -12.804335 0
M  V30 29 C 10.206546 6.583445 -6.469448 0
M  V30 30 O 11.288818 8.745633 -9.985055 0
M  V30 31 C 10.928546 8.920192 -7.000179 0
M  V30 32 H 10.195112 4.690483 -11.606297 0
M  V30 33 H 8.956851 3.940822 -10.631503 0
M  V30 34 H 12.505506 10.969627 -5.985060 0
M  V30 35 H 12.939525 10.111296 -4.481683 0
M  V30 36 H 10.926626 6.390228 -9.955472 0
M  V30 37 H 9.955839 5.380508 -8.887884 0
M  V30 38 H 9.583788 9.590219 -9.185881 0
M  V30 39 H 10.404692 10.998990 -5.323662 0
M  V30 40 H 8.451407 0.953559 -14.488126 0
M  V30 41 H 8.175183 7.882213 -13.484550 0
M  V30 42 H 7.082442 7.060513 -12.397901 0
M  V30 43 H 11.661468 7.162868 -7.937726 0
M  V30 44 H 7.853937 1.310521 -17.910809 0
M  V30 45 H 9.404682 5.759211 -13.927685 0
M  V30 46 H 7.703222 5.657195 -14.313884 0
M  V30 47 H 5.190499 -1.272670 -15.586999 0
M  V30 48 H 4.684947 0.387758 -15.773177 0
M  V30 49 H 7.903594 6.050316 -10.223451 0
M  V30 50 H 9.775421 3.304411 -13.185026 0
M  V30 51 H 8.492453 2.522575 -12.445216 0
M  V30 52 H 9.375395 9.190225 -11.815412 0
M  V30 53 H 8.023474 8.884325 -10.816770 0
M  V30 54 H 12.946612 8.790228 -6.441937 0
M  V30 55 H 12.485464 7.733205 -4.114731 0
M  V30 56 H 10.813908 8.156762 -4.385024 0
M  V30 57 H 7.103286 3.658047 -14.634231 0
M  V30 58 H 8.655188 3.426082 -15.348966 0
M  V30 59 H 10.113539 7.115819 -12.068901 0
M  V30 60 H 6.316983 1.990202 -16.441372 0
M  V30 61 H 12.176079 5.940376 -5.891418 0
M  V30 62 H 10.993003 5.789800 -4.618277 0
M  V30 63 H 9.942066 5.590279 -6.819944 0
M  V30 64 H 9.304926 6.981602 -6.000897 0
M  V30 65 H 11.535660 9.638557 -10.183488 0
M  V30 66 H 9.985531 9.326734 -6.640164 0
M  V30 67 H 11.339595 9.590236 -7.742946 0
M  V30 68 H 7.346865 4.516968 -12.250737 0
M  V30 69 H 8.813529 7.547275 -8.450699 0
M  V30 END ATOM
M  V30 BEGIN BOND
M  V30 1 1 7 4
M  V30 2 1 12 9
M  V30 3 1 13 1
M  V30 4 1 13 12
M  V30 5 1 15 1
M  V30 6 1 15 5
M  V30 7 1 16 13
M  V30 8 1 17 14
M  V30 9 1 18 6
M  V30 10 1 19 5
M  V30 11 1 19 6
M  V30 12 1 19 10
M  V30 13 1 20 4
M  V30 14 1 21 20
M  V30 15 1 22 8
M  V30 16 1 22 16
M  V30 17 1 23 9
M  V30 18 1 23 15
M  V30 19 1 23 18
M  V30 20 1 24 8
M  V30 21 1 24 11
M  V30 22 1 24 17
M  V30 23 1 25 8
M  V30 24 1 26 21
M  V30 25 1 27 2
M  V30 26 1 27 3
M  V30 27 1 27 14
M  V30 28 1 27 25
M  V30 29 2 28 25
M  V30 30 1 29 10
M  V30 31 1 29 26
M  V30 32 1 30 6
M  V30 33 1 31 10
M  V30 34 1 31 20
M  V30 35 1 32 1
M  V30 36 1 33 1
M  V30 37 1 34 4
M  V30 38 1 35 4
M  V30 39 1 36 5
M  V30 40 1 37 5
M  V30 41 1 6 38 CFG=1
M  V30 42 1 39 7
M  V30 43 1 8 40 CFG=1
M  V30 44 1 41 9
M  V30 45 1 42 9
M  V30 46 1 10 43 CFG=3
M  V30 47 1 44 11
M  V30 48 1 45 12
M  V30 49 1 46 12
M  V30 50 1 47 14
M  V30 51 1 48 14
M  V30 52 1 15 49 CFG=1
M  V30 53 1 50 16
M  V30 54 1 51 16
M  V30 55 1 52 18
M  V30 56 1 53 18
M  V30 57 1 20 54 CFG=3
M  V30 58 1 55 21
M  V30 59 1 56 21
M  V30 60 1 57 22
M  V30 61 1 58 22
M  V30 62 1 23 59 CFG=3
M  V30 63 1 24 60 CFG=3
M  V30 64 1 61 26
M  V30 65 1 62 26
M  V30 66 1 63 29
M  V30 67 1 64 29
M  V30 68 1 65 30
M  V30 69 1 66 31
M  V30 70 1 67 31
M  V30 71 1 13 68 CFG=1
M  V30 72 1 19 69 CFG=1
M  V30 END BOND
M  V30 END CTAB
M  END
>  <i_epik_Tot_Q>  (1) 
2

>  <i_epik_Tot_abs_Q>  (1) 
2

>  <i_i_glide_confnum>  (1) 
192

>  <i_i_glide_lignum>  (1) 
113

>  <i_i_glide_posenum>  (1) 
368

>  <i_i_glide_rotatable_bonds>  (1) 
8

>  <i_lp_mmshare_version>  (1) 
72125

>  <i_m_source_file_index>  (1) 
40

>  <i_f3d_flags>  (1) 
0

>  <num_sample>  (1) 
50

>  <b_lp_Chiralities_Consistent>  (1) 
1

>  <r_epik_Charging_Adjusted_Penalty>  (1) 
1.743801429740254

>  <r_epik_Ionization_Penalty>  (1) 
1.6051069046209219

>  <r_epik_Ionization_Penalty_Charging>  (1) 
0.6098477401054202

>  <r_epik_Ionization_Penalty_Neutral>  (1) 
0.99525916451550167

>  <r_epik_State_Penalty>  (1) 
1.1339536896348337

>  <r_glide_ring_energy>  (1) 
0

>  <r_i_docking_score>  (1) 
-3.8297253315928277

>  <r_i_glide_ecoul>  (1) 
-5.3714806528410435

>  <r_i_glide_eff_state_penalty>  (1) 
1.1339536896348337

>  <r_i_glide_einternal>  (1) 
6.6184084589162744

>  <r_i_glide_emodel>  (1) 
-24.734075621104218

>  <r_i_glide_emodel_strain>  (1) 
2.1586076646544257

>  <r_i_glide_energy>  (1) 
-23.51946553583263

>  <r_i_glide_erotb>  (1) 
0.49785121930328097

>  <r_i_glide_esite>  (1) 
-0.30220464762552779

>  <r_i_glide_evdw>  (1) 
-18.147984882991587

>  <r_i_glide_gscore>  (1) 
-4.9636790212276614

>  <r_i_glide_gscore_strain>  (1) 
0

>  <r_i_glide_hbond>  (1) 
-0.11491091511540763

>  <r_i_glide_ligand_efficiency>  (1) 
-0.12353952682557509

>  <r_i_glide_ligand_efficiency_ln>  (1) 
-0.86372042926035397

>  <r_i_glide_ligand_efficiency_sa>  (1) 
-0.38808467937544916

>  <r_i_glide_lipo>  (1) 
-1.870424532392067

>  <r_i_glide_metal>  (1) 
-0

>  <r_i_glide_rewards>  (1) 
-1.460868803322203

>  <r_lp_Energy>  (1) 
47.174439

>  <r_lp_tautomer_probability>  (1) 
0.99995000000000001

>  <s_epik_Chemistry_Notes>  (1) 
This compound contains an acetal/aminal-like group ( X-CH(R)-Y where X, Y are N, S, or O) that may be acid/base labile, releasing an aldehyde.

>  <s_epik_cmdline>  (1) 
J2VwaWtfcHl0aG9uJywgJy1waHQnLCAnMS4wJywgJy1waCcsICc3LjQnLCAnLXRuJywgJzgnLCAnLW1hJywgJzUwMCcsICctaW1hZScsICc8aW5maWxlLm1hZT4nLCAnLW9tYWUnLCAnPG91dGZpbGUubWFlPic=

>  <s_epik_input>  (1) 
RkMxKEYpW0NIMl1PW0NASF0oW09IXSlbQ0BIXShDMT1PKVtDSDJdW0NIMl1OKFtDSDJdMilbQ0gyXVtDSDJdW0NASF0oW0NAQEhdMjMpW0NIMl1bQ0BIXShbT0hdKU4oW0NIMl0zKVtDQEBIXTRbQ0gyXVtDSDJdW0NIMl1bQ0BASF0oW0NIMl00KVtDSDJdW09IXQ==

>  <s_glide_docking_method>  (1) 
confgen

>  <s_i_glide_gridfile>  (1) 
gpcr_drd2_6luq_protein_autoprepared_prepared

>  <s_lp_Force_Field>  (1) 
S-OPLS

>  <s_lp_Variant>  (1) 
DiffSBDD_39-9

>  <s_m_source_file>  (1) 
generated_generic_title2_ligand_DiffSBDD_2026-06-23_prepared.sdf

>  <GenAI_Model>  (1) 
DiffSBDD

>  <Protein>  (1) 
generic_title2

$$$$
DiffSBDD_18
     RDKit          3D

  0  0  0  0  0  0  0  0  0  0999 V3000
M  V30 BEGIN CTAB
M  V30 COUNTS 61 65 0 0 1
M  V30 BEGIN ATOM
M  V30 1 C 6.169321 7.308755 -15.796684 0
M  V30 2 C 10.189685 5.352641 -19.638886 0
M  V30 3 C 7.344966 3.542538 -15.202648 0 CFG=1
M  V30 4 C 6.750509 4.949966 -14.878005 0 CFG=2
M  V30 5 C 6.866060 2.838108 -19.946187 0 CFG=2
M  V30 6 C 6.033149 1.947366 -19.001645 0
M  V30 7 C 9.195383 5.001631 -18.513138 0 CFG=1
M  V30 8 C 6.942423 5.990113 -16.025401 0 CFG=1
M  V30 9 C 6.428862 2.606816 -12.983474 0
M  V30 10 O 8.826837 1.430861 -19.783485 0
M  V30 11 O 9.902932 5.456695 -17.378227 0
M  V30 12 C 6.363908 4.934815 -12.334639 0
M  V30 13 O 8.509641 -0.740153 -20.817017 0
M  V30 14 S 7.688049 6.004363 -18.768337 0
M  V30 15 C 6.595506 2.452957 -21.410793 0
M  V30 16 C 6.575393 5.460122 -17.437636 0
M  V30 17 C 7.220328 5.472107 -13.497135 0
M  V30 18 O 8.574289 3.642130 -15.924134 0
M  V30 19 C 8.741701 1.190238 -22.299797 0
M  V30 20 O 6.648173 3.590271 -11.985039 0
M  V30 21 C 7.577490 2.612618 -13.998779 0
M  V30 22 C 8.645918 2.773511 -17.054873 0 CFG=2
M  V30 23 C 8.437623 0.662554 -20.926700 0 CFG=2
M  V30 24 C 10.027629 2.667919 -17.621352 0
M  V30 25 C 8.953210 3.453625 -18.393562 0 CFG=2
M  V30 26 C 8.403824 2.796046 -19.696270 0 CFG=2
M  V30 27 C 7.300286 1.167125 -21.792397 0 CFG=1
M  V30 28 H 5.117068 7.121699 -15.582906 0
M  V30 29 H 6.579422 7.905313 -14.984055 0
M  V30 30 H 6.209165 7.944928 -16.681516 0
M  V30 31 H 11.087094 4.735171 -19.586548 0
M  V30 32 H 9.757818 5.235687 -20.631678 0
M  V30 33 H 10.507006 6.394709 -19.573334 0
M  V30 34 H 6.594637 3.038534 -15.811600 0
M  V30 35 H 5.672966 4.811629 -14.795444 0
M  V30 36 H 6.496159 3.852989 -19.838292 0
M  V30 37 H 6.339760 0.902553 -19.046589 0
M  V30 38 H 6.106249 2.262512 -17.966457 0
M  V30 39 H 4.975587 1.986882 -19.263650 0
M  V30 40 H 7.997625 6.232742 -15.997432 0
M  V30 41 H 5.451237 2.714748 -13.454100 0
M  V30 42 H 6.419325 1.643550 -12.472500 0
M  V30 43 H 9.647577 4.899702 -16.650312 0
M  V30 44 H 5.299553 5.048309 -12.542517 0
M  V30 45 H 6.560696 5.536811 -11.446694 0
M  V30 46 H 7.819147 -1.026227 -20.239115 0
M  V30 47 H 5.525225 2.344121 -21.591870 0
M  V30 48 H 6.936778 3.245538 -22.078131 0
M  V30 49 H 6.575366 4.383417 -17.490029 0
M  V30 50 H 5.557274 5.751603 -17.698608 0
M  V30 51 H 7.139971 6.554190 -13.446343 0
M  V30 52 H 8.278860 5.264336 -13.336062 0
M  V30 53 H 9.239350 2.152638 -22.389442 0
M  V30 54 H 9.006382 0.469747 -23.071416 0
M  V30 55 H 7.721029 1.599246 -14.375168 0
M  V30 56 H 8.507732 2.866113 -13.488573 0
M  V30 57 H 8.104478 1.832353 -16.978237 0
M  V30 58 H 10.332641 1.686429 -17.975486 0
M  V30 59 H 10.819433 3.194499 -17.094287 0
M  V30 60 H 8.881990 3.300722 -20.528591 0
M  V30 61 H 6.651371 0.422344 -22.250544 0
M  V30 END ATOM
M  V30 BEGIN BOND
M  V30 1 1 4 3
M  V30 2 1 6 5
M  V30 3 1 7 2
M  V30 4 1 8 1
M  V30 5 1 8 4
M  V30 6 1 7 11 CFG=1
M  V30 7 1 14 7
M  V30 8 1 15 5
M  V30 9 1 16 8
M  V30 10 1 16 14
M  V30 11 1 17 4
M  V30 12 1 17 12
M  V30 13 1 18 3
M  V30 14 1 20 9
M  V30 15 1 20 12
M  V30 16 1 21 3
M  V30 17 1 21 9
M  V30 18 1 22 18
M  V30 19 1 23 10
M  V30 20 1 23 13 CFG=1
M  V30 21 1 23 19
M  V30 22 1 24 22
M  V30 23 1 25 7
M  V30 24 1 25 22
M  V30 25 1 25 24 CFG=3
M  V30 26 1 26 5
M  V30 27 1 26 10
M  V30 28 1 26 25
M  V30 29 1 27 15
M  V30 30 1 27 19
M  V30 31 1 27 23
M  V30 32 1 28 1
M  V30 33 1 29 1
M  V30 34 1 30 1
M  V30 35 1 31 2
M  V30 36 1 32 2
M  V30 37 1 33 2
M  V30 38 1 3 34 CFG=3
M  V30 39 1 4 35 CFG=1
M  V30 40 1 5 36 CFG=3
M  V30 41 1 37 6
M  V30 42 1 38 6
M  V30 43 1 39 6
M  V30 44 1 8 40 CFG=3
M  V30 45 1 41 9
M  V30 46 1 42 9
M  V30 47 1 43 11
M  V30 48 1 44 12
M  V30 49 1 45 12
M  V30 50 1 46 13
M  V30 51 1 47 15
M  V30 52 1 48 15
M  V30 53 1 49 16
M  V30 54 1 50 16
M  V30 55 1 51 17
M  V30 56 1 52 17
M  V30 57 1 53 19
M  V30 58 1 54 19
M  V30 59 1 55 21
M  V30 60 1 56 21
M  V30 61 1 22 57 CFG=3
M  V30 62 1 58 24
M  V30 63 1 59 24
M  V30 64 1 26 60 CFG=3
M  V30 65 1 27 61 CFG=3
M  V30 END BOND
M  V30 END CTAB
M  END
>  <i_epik_Tot_Q>  (1) 
0

>  <i_epik_Tot_abs_Q>  (1) 
0

>  <i_i_glide_confnum>  (1) 
2

>  <i_i_glide_lignum>  (1) 
62

>  <i_i_glide_posenum>  (1) 
105

>  <i_i_glide_rotatable_bonds>  (1) 
3

>  <i_lp_mmshare_version>  (1) 
72125

>  <i_m_source_file_index>  (1) 
19

>  <i_f3d_flags>  (1) 
0

>  <num_sample>  (1) 
50

>  <b_lp_Chiralities_Consistent>  (1) 
1

>  <r_epik_Charging_Adjusted_Penalty>  (1) 
0

>  <r_epik_Ionization_Penalty>  (1) 
6.7783705848961877e-07

>  <r_epik_Ionization_Penalty_Charging>  (1) 
0

>  <r_epik_Ionization_Penalty_Neutral>  (1) 
6.7783705848961877e-07

>  <r_epik_State_Penalty>  (1) 
-0

>  <r_glide_ring_energy>  (1) 
0

>  <r_i_docking_score>  (1) 
-3.8269098159169297

>  <r_i_glide_ecoul>  (1) 
-0.37066876306714636

>  <r_i_glide_eff_state_penalty>  (1) 
-0

>  <r_i_glide_einternal>  (1) 
0.2253557925983225

>  <r_i_glide_emodel>  (1) 
-27.131499388473237

>  <r_i_glide_emodel_strain>  (1) 
0.013197220096927254

>  <r_i_glide_energy>  (1) 
-23.88273739749074

>  <r_i_glide_erotb>  (1) 
0.12329427839652905

>  <r_i_glide_esite>  (1) 
0

>  <r_i_glide_evdw>  (1) 
-23.512068634423592

>  <r_i_glide_gscore>  (1) 
-3.8269098159169297

>  <r_i_glide_gscore_strain>  (1) 
0

>  <r_i_glide_hbond>  (1) 
0

>  <r_i_glide_ligand_efficiency>  (1) 
-0.14173740058951592

>  <r_i_glide_ligand_efficiency_ln>  (1) 
-0.89084151360627417

>  <r_i_glide_ligand_efficiency_sa>  (1) 
-0.42521220176854785

>  <r_i_glide_lipo>  (1) 
-1.6469957455936912

>  <r_i_glide_metal>  (1) 
-0

>  <r_i_glide_rewards>  (1) 
-1.0720046025385157

>  <r_lp_Energy>  (1) 
41.521923000000001

>  <r_lp_tautomer_probability>  (1) 
1

>  <s_epik_cmdline>  (1) 
J2VwaWtfcHl0aG9uJywgJy1waHQnLCAnMS4wJywgJy1waCcsICc3LjQnLCAnLXRuJywgJzgnLCAnLW1hJywgJzUwMCcsICctaW1hZScsICc8aW5maWxlLm1hZT4nLCAnLW9tYWUnLCAnPG91dGZpbGUubWFlPic=

>  <s_epik_input>  (1) 
W0NIM11bQ0BAXTEoW09IXSlTW0NIMl1bQ0BASF0oW0NIM10pW0NASF0oW0NIMl1bQ0gyXU9bQ0gyXVtDSDJdMilbQ0BASF0yT1tDQEhdKFtDSDJdMylDMTNbQ0BASF0oTzQpW0NASF0oW0NIM10pW0NIMl1bQ0BASF0oW0NIMl01KUM0NVtPSF0=

>  <s_glide_docking_method>  (1) 
confgen

>  <s_i_glide_gridfile>  (1) 
gpcr_drd2_6luq_protein_autoprepared_prepared

>  <s_lp_Force_Field>  (1) 
S-OPLS

>  <s_lp_Variant>  (1) 
DiffSBDD_18-2

>  <s_m_source_file>  (1) 
generated_generic_title2_ligand_DiffSBDD_2026-06-23_prepared.sdf

>  <GenAI_Model>  (1) 
DiffSBDD

>  <Protein>  (1) 
generic_title2

$$$$
DiffSBDD_18
     RDKit          3D

  0  0  0  0  0  0  0  0  0  0999 V3000
M  V30 BEGIN CTAB
M  V30 COUNTS 61 65 0 0 1
M  V30 BEGIN ATOM
M  V30 1 C 5.634405 -0.809527 -16.674978 0
M  V30 2 C 10.185119 0.330369 -20.527307 0
M  V30 3 C 7.251886 2.232733 -16.210317 0 CFG=2
M  V30 4 C 7.581807 0.759016 -15.883760 0 CFG=2
M  V30 5 C 12.453402 3.135708 -19.068175 0 CFG=2
M  V30 6 C 12.435072 2.941737 -20.594860 0
M  V30 7 C 9.523290 0.750908 -19.196570 0 CFG=1
M  V30 8 C 6.991057 -0.156155 -17.010805 0 CFG=1
M  V30 9 C 6.770684 3.091525 -13.806493 0
M  V30 10 O 12.216761 0.771682 -18.438278 0
M  V30 11 O 8.202764 0.962011 -19.645318 0
M  V30 12 C 7.930899 0.994749 -13.328294 0
M  V30 13 O 14.178067 -0.485989 -19.121871 0
M  V30 14 S 9.656998 -0.614263 -17.983583 0
M  V30 15 C 13.885911 3.206447 -18.520510 0
M  V30 16 C 7.973920 -1.203287 -17.585029 0
M  V30 17 C 7.152078 0.313060 -14.464519 0
M  V30 18 O 7.807317 2.615929 -17.477841 0
M  V30 19 C 14.367606 1.000221 -17.185047 0
M  V30 20 O 7.431056 2.247800 -12.878674 0
M  V30 21 C 7.526623 3.298975 -15.123932 0
M  V30 22 C 9.216791 2.839298 -17.569933 0 CFG=2
M  V30 23 C 13.636557 0.618696 -18.435249 0 CFG=2
M  V30 24 C 9.423776 3.419511 -18.936967 0
M  V30 25 C 10.081770 2.079310 -18.593594 0 CFG=2
M  V30 26 C 11.621213 2.068547 -18.295972 0 CFG=2
M  V30 27 C 14.523219 1.842218 -18.444197 0 CFG=1
M  V30 28 H 5.726410 -1.575550 -15.905644 0
M  V30 29 H 4.907935 -0.070914 -16.334574 0
M  V30 30 H 5.209105 -1.293984 -17.554315 0
M  V30 31 H 10.120704 1.122650 -21.273225 0
M  V30 32 H 11.232499 0.056186 -20.431792 0
M  V30 33 H 9.686583 -0.544741 -20.946892 0
M  V30 34 H 6.176758 2.243496 -16.371107 0
M  V30 35 H 8.664565 0.691983 -15.893754 0
M  V30 36 H 12.051704 4.125683 -18.868049 0
M  V30 37 H 12.818614 1.962685 -20.882570 0
M  V30 38 H 11.426434 3.037674 -20.994190 0
M  V30 39 H 13.046831 3.694274 -21.092608 0
M  V30 40 H 6.718334 0.482650 -17.842610 0
M  V30 41 H 6.635547 4.054468 -13.313479 0
M  V30 42 H 5.775408 2.704583 -13.985026 0
M  V30 43 H 7.814501 1.606032 -19.064372 0
M  V30 44 H 8.975417 1.113435 -13.606642 0
M  V30 45 H 7.931783 0.340897 -12.456334 0
M  V30 46 H 14.080504 -1.256682 -18.584297 0
M  V30 47 H 14.503685 3.860420 -19.136762 0
M  V30 48 H 13.881361 3.642281 -17.520313 0
M  V30 49 H 8.097781 -2.009774 -16.864155 0
M  V30 50 H 7.552345 -1.655363 -18.483331 0
M  V30 51 H 7.355035 -0.754769 -14.385016 0
M  V30 52 H 6.079220 0.418801 -14.303459 0
M  V30 53 H 13.780084 1.424379 -16.377649 0
M  V30 54 H 15.214272 0.390221 -16.876492 0
M  V30 55 H 8.575411 3.399625 -14.891101 0
M  V30 56 H 7.221613 4.262109 -15.534508 0
M  V30 57 H 9.669687 3.403706 -16.759968 0
M  V30 58 H 9.988911 4.344796 -18.956624 0
M  V30 59 H 8.583955 3.424126 -19.628314 0
M  V30 60 H 11.722271 2.306463 -17.236170 0
M  V30 61 H 15.475227 1.758341 -18.965687 0
M  V30 END ATOM
M  V30 BEGIN BOND
M  V30 1 1 4 3
M  V30 2 1 6 5
M  V30 3 1 7 2
M  V30 4 1 8 1
M  V30 5 1 8 4
M  V30 6 1 7 11 CFG=3
M  V30 7 1 14 7
M  V30 8 1 15 5
M  V30 9 1 16 8
M  V30 10 1 16 14
M  V30 11 1 17 4
M  V30 12 1 17 12
M  V30 13 1 18 3
M  V30 14 1 20 9
M  V30 15 1 20 12
M  V30 16 1 21 3
M  V30 17 1 21 9
M  V30 18 1 22 18
M  V30 19 1 23 10
M  V30 20 1 23 13 CFG=3
M  V30 21 1 23 19
M  V30 22 1 24 22
M  V30 23 1 25 7
M  V30 24 1 25 22
M  V30 25 1 25 24 CFG=3
M  V30 26 1 26 5
M  V30 27 1 26 10
M  V30 28 1 26 25
M  V30 29 1 27 15
M  V30 30 1 27 19
M  V30 31 1 27 23
M  V30 32 1 28 1
M  V30 33 1 29 1
M  V30 34 1 30 1
M  V30 35 1 31 2
M  V30 36 1 32 2
M  V30 37 1 33 2
M  V30 38 1 3 34 CFG=3
M  V30 39 1 4 35 CFG=1
M  V30 40 1 5 36 CFG=3
M  V30 41 1 37 6
M  V30 42 1 38 6
M  V30 43 1 39 6
M  V30 44 1 8 40 CFG=3
M  V30 45 1 41 9
M  V30 46 1 42 9
M  V30 47 1 43 11
M  V30 48 1 44 12
M  V30 49 1 45 12
M  V30 50 1 46 13
M  V30 51 1 47 15
M  V30 52 1 48 15
M  V30 53 1 49 16
M  V30 54 1 50 16
M  V30 55 1 51 17
M  V30 56 1 52 17
M  V30 57 1 53 19
M  V30 58 1 54 19
M  V30 59 1 55 21
M  V30 60 1 56 21
M  V30 61 1 22 57 CFG=1
M  V30 62 1 58 24
M  V30 63 1 59 24
M  V30 64 1 26 60 CFG=1
M  V30 65 1 27 61 CFG=3
M  V30 END BOND
M  V30 END CTAB
M  END
>  <i_epik_Tot_Q>  (1) 
0

>  <i_epik_Tot_abs_Q>  (1) 
0

>  <i_i_glide_confnum>  (1) 
2

>  <i_i_glide_lignum>  (1) 
61

>  <i_i_glide_posenum>  (1) 
340

>  <i_i_glide_rotatable_bonds>  (1) 
3

>  <i_lp_mmshare_version>  (1) 
72125

>  <i_m_source_file_index>  (1) 
19

>  <i_f3d_flags>  (1) 
0

>  <num_sample>  (1) 
50

>  <b_lp_Chiralities_Consistent>  (1) 
1

>  <r_epik_Charging_Adjusted_Penalty>  (1) 
0

>  <r_epik_Ionization_Penalty>  (1) 
6.7783705848961877e-07

>  <r_epik_Ionization_Penalty_Charging>  (1) 
0

>  <r_epik_Ionization_Penalty_Neutral>  (1) 
6.7783705848961877e-07

>  <r_epik_State_Penalty>  (1) 
-0

>  <r_glide_ring_energy>  (1) 
0

>  <r_i_docking_score>  (1) 
-3.8180439033620592

>  <r_i_glide_ecoul>  (1) 
-0.54034385997131751

>  <r_i_glide_eff_state_penalty>  (1) 
-0

>  <r_i_glide_einternal>  (1) 
9.2638150486330488

>  <r_i_glide_emodel>  (1) 
-29.605172841962215

>  <r_i_glide_emodel_strain>  (1) 
0

>  <r_i_glide_energy>  (1) 
-28.128563903883659

>  <r_i_glide_erotb>  (1) 
0.12329427839652905

>  <r_i_glide_esite>  (1) 
0

>  <r_i_glide_evdw>  (1) 
-27.58822004391234

>  <r_i_glide_gscore>  (1) 
-3.8180439033620592

>  <r_i_glide_gscore_strain>  (1) 
0

>  <r_i_glide_hbond>  (1) 
0

>  <r_i_glide_ligand_efficiency>  (1) 
-0.14140903345785405

>  <r_i_glide_ligand_efficiency_ln>  (1) 
-0.88877767532949226

>  <r_i_glide_ligand_efficiency_sa>  (1) 
-0.4242271003735622

>  <r_i_glide_lipo>  (1) 
-1.4415233146856121

>  <r_i_glide_metal>  (1) 
-0

>  <r_i_glide_rewards>  (1) 
-1.0393522858816611

>  <r_lp_Energy>  (1) 
44.784799999999997

>  <r_lp_tautomer_probability>  (1) 
1

>  <s_epik_cmdline>  (1) 
J2VwaWtfcHl0aG9uJywgJy1waHQnLCAnMS4wJywgJy1waCcsICc3LjQnLCAnLXRuJywgJzgnLCAnLW1hJywgJzUwMCcsICctaW1hZScsICc8aW5maWxlLm1hZT4nLCAnLW9tYWUnLCAnPG91dGZpbGUubWFlPic=

>  <s_epik_input>  (1) 
W0NIM11bQ0BAXTEoW09IXSlTW0NIMl1bQ0BASF0oW0NIM10pW0NASF0oW0NIMl1bQ0gyXU9bQ0gyXVtDSDJdMilbQ0BASF0yT1tDQEhdKFtDSDJdMylDMTNbQ0BASF0oTzQpW0NASF0oW0NIM10pW0NIMl1bQ0BASF0oW0NIMl01KUM0NVtPSF0=

>  <s_glide_docking_method>  (1) 
confgen

>  <s_i_glide_gridfile>  (1) 
gpcr_drd2_6luq_protein_autoprepared_prepared

>  <s_lp_Force_Field>  (1) 
S-OPLS

>  <s_lp_Variant>  (1) 
DiffSBDD_18-1

>  <s_m_source_file>  (1) 
generated_generic_title2_ligand_DiffSBDD_2026-06-23_prepared.sdf

>  <GenAI_Model>  (1) 
DiffSBDD

>  <Protein>  (1) 
generic_title2

$$$$
DiffSBDD_47
     RDKit          3D

  0  0  0  0  0  0  0  0  0  0999 V3000
M  V30 BEGIN CTAB
M  V30 COUNTS 32 31 0 0 1
M  V30 BEGIN ATOM
M  V30 1 C 10.661983 6.943343 -5.254989 0
M  V30 2 C 11.555412 7.036348 -4.298057 0
M  V30 3 C 12.472229 7.189549 -3.371948 0
M  V30 4 C 10.853142 7.591701 -6.612368 0 CFG=1
M  V30 5 C 7.416064 4.731874 -11.059046 0
M  V30 6 C 10.702957 6.601256 -7.779721 0
M  V30 7 N 7.682812 5.190184 -9.683578 0 CHG=1
M  V30 8 C 5.932805 4.390943 -11.243333 0
M  V30 9 C 9.271591 6.079376 -8.008802 0
M  V30 10 C 12.336833 6.606957 -1.985074 0
M  V30 11 C 9.110684 5.364107 -9.357677 0
M  V30 12 O 9.967518 8.680869 -6.768227 0
M  V30 13 H 9.745938 6.393156 -5.106777 0
M  V30 14 H 13.375327 7.745410 -3.572881 0
M  V30 15 H 11.858233 8.013380 -6.659014 0
M  V30 16 H 7.706780 5.517410 -11.758101 0
M  V30 17 H 8.035340 3.864975 -11.287759 0
M  V30 18 H 11.053596 7.096537 -8.686231 0
M  V30 19 H 11.374885 5.758675 -7.614568 0
M  V30 20 H 7.245270 4.566835 -9.019700 0
M  V30 21 H 5.735319 4.053215 -12.261182 0
M  V30 22 H 5.618902 3.597679 -10.563472 0
M  V30 23 H 5.300976 5.260282 -11.055638 0
M  V30 24 H 8.973611 5.419873 -7.193821 0
M  V30 25 H 8.575624 6.916731 -7.985057 0
M  V30 26 H 12.575306 7.384794 -1.259940 0
M  V30 27 H 11.328990 6.236111 -1.788991 0
M  V30 28 H 13.035249 5.781609 -1.848924 0
M  V30 29 H 9.567994 5.966069 -10.144346 0
M  V30 30 H 9.620221 4.399042 -9.350297 0
M  V30 31 H 9.087114 8.348255 -6.870314 0
M  V30 32 H 7.258002 6.117189 -9.583490 0
M  V30 END ATOM
M  V30 BEGIN BOND
M  V30 1 2 2 1
M  V30 2 2 3 2
M  V30 3 1 4 1
M  V30 4 1 6 4
M  V30 5 1 7 5
M  V30 6 1 8 5
M  V30 7 1 9 6
M  V30 8 1 10 3
M  V30 9 1 11 7
M  V30 10 1 11 9
M  V30 11 1 12 4
M  V30 12 1 13 1
M  V30 13 1 14 3
M  V30 14 1 4 15 CFG=1
M  V30 15 1 16 5
M  V30 16 1 17 5
M  V30 17 1 18 6
M  V30 18 1 19 6
M  V30 19 1 20 7
M  V30 20 1 21 8
M  V30 21 1 22 8
M  V30 22 1 23 8
M  V30 23 1 24 9
M  V30 24 1 25 9
M  V30 25 1 26 10
M  V30 26 1 27 10
M  V30 27 1 28 10
M  V30 28 1 29 11
M  V30 29 1 30 11
M  V30 30 1 31 12
M  V30 31 1 32 7
M  V30 END BOND
M  V30 END CTAB
M  END
>  <i_epik_Tot_Q>  (1) 
1

>  <i_epik_Tot_abs_Q>  (1) 
1

>  <i_i_glide_confnum>  (1) 
45

>  <i_i_glide_lignum>  (1) 
125

>  <i_i_glide_posenum>  (1) 
261

>  <i_i_glide_rotatable_bonds>  (1) 
7

>  <i_lp_mmshare_version>  (1) 
72125

>  <i_m_source_file_index>  (1) 
48

>  <i_f3d_flags>  (1) 
0

>  <num_sample>  (1) 
50

>  <b_lp_Chiralities_Consistent>  (1) 
1

>  <r_epik_Charging_Adjusted_Penalty>  (1) 
0.00069192130555224092

>  <r_epik_Ionization_Penalty>  (1) 
0.00069195969174634328

>  <r_epik_Ionization_Penalty_Charging>  (1) 
0.00069192130555224092

>  <r_epik_Ionization_Penalty_Neutral>  (1) 
3.8386194102396343e-08

>  <r_epik_State_Penalty>  (1) 
-0

>  <r_glide_ring_energy>  (1) 
0

>  <r_i_docking_score>  (1) 
-3.8176705584433801

>  <r_i_glide_ecoul>  (1) 
-7.0930006604305236

>  <r_i_glide_eff_state_penalty>  (1) 
-0

>  <r_i_glide_einternal>  (1) 
3.2078929731678216

>  <r_i_glide_emodel>  (1) 
-35.831341005950982

>  <r_i_glide_emodel_strain>  (1) 
0.57256400491586024

>  <r_i_glide_energy>  (1) 
-27.726010976984298

>  <r_i_glide_erotb>  (1) 
2.6617729602706905

>  <r_i_glide_esite>  (1) 
-0.10000000000000001

>  <r_i_glide_evdw>  (1) 
-20.633010316553776

>  <r_i_glide_gscore>  (1) 
-3.8176705584433801

>  <r_i_glide_gscore_strain>  (1) 
0

>  <r_i_glide_hbond>  (1) 
-0.20000000000000001

>  <r_i_glide_ligand_efficiency>  (1) 
-0.31813921320361499

>  <r_i_glide_ligand_efficiency_ln>  (1) 
-1.0954871800298074

>  <r_i_glide_ligand_efficiency_sa>  (1) 
-0.72835697693777823

>  <r_i_glide_lipo>  (1) 
-1.3117481044949717

>  <r_i_glide_metal>  (1) 
-0

>  <r_i_glide_rewards>  (1) 
-2.7720947993268314

>  <r_lp_Energy>  (1) 
-13.973255999999999

>  <r_lp_tautomer_probability>  (1) 
1

>  <s_epik_cmdline>  (1) 
J2VwaWtfcHl0aG9uJywgJy1waHQnLCAnMS4wJywgJy1waCcsICc3LjQnLCAnLXRuJywgJzgnLCAnLW1hJywgJzUwMCcsICctaW1hZScsICc8aW5maWxlLm1hZT4nLCAnLW9tYWUnLCAnPG91dGZpbGUubWFlPic=

>  <s_epik_input>  (1) 
W0NIM11bQ0hdPUM9W0NIXVtDQEhdKFtPSF0pW0NIMl1bQ0gyXVtDSDJdW05IXVtDSDJdW0NIM10=

>  <s_glide_docking_method>  (1) 
confgen

>  <s_i_glide_gridfile>  (1) 
gpcr_drd2_6luq_protein_autoprepared_prepared

>  <s_lp_Force_Field>  (1) 
S-OPLS

>  <s_lp_Variant>  (1) 
DiffSBDD_47-1

>  <s_m_source_file>  (1) 
generated_generic_title2_ligand_DiffSBDD_2026-06-23_prepared.sdf

>  <GenAI_Model>  (1) 
DiffSBDD

>  <Protein>  (1) 
generic_title2

$$$$
DiffSBDD_48
     RDKit          3D

  0  0  0  0  0  0  0  0  0  0999 V3000
M  V30 BEGIN CTAB
M  V30 COUNTS 43 43 0 0 1
M  V30 BEGIN ATOM
M  V30 1 C 6.390395 4.632590 -13.856329 0 CFG=2
M  V30 2 C 9.972645 6.976543 -8.716026 0
M  V30 3 C 7.268520 5.483253 -12.881900 0 CFG=2
M  V30 4 C 8.821942 5.482657 -10.815635 0
M  V30 5 O 4.558028 6.822761 -16.785049 0 CHG=-1
M  V30 6 O 6.319709 1.972322 -12.785026 0
M  V30 7 F 10.053659 6.810624 -12.384878 0
M  V30 8 C 6.607070 6.095078 -15.816503 0
M  V30 9 C 8.494167 5.190137 -9.473722 0
M  V30 10 C 7.081797 3.436925 -14.545251 0
M  V30 11 C 7.041006 2.121256 -13.770918 0
M  V30 12 C 8.196136 4.671046 -11.948795 0
M  V30 13 C 5.774548 6.613505 -16.992506 0
M  V30 14 C 5.037978 8.142843 -11.585025 0
M  V30 15 C 10.299834 7.273584 -10.053197 0
M  V30 16 C 7.931790 1.000602 -14.275417 0
M  V30 17 O 6.373235 6.789121 -18.075946 0
M  V30 18 O 5.775407 5.400320 -14.889846 0
M  V30 19 O 8.575402 0.390229 -13.185110 0
M  V30 20 C 5.728395 7.277109 -12.630368 0
M  V30 21 O 6.411745 6.207859 -12.007580 0
M  V30 22 F 10.526139 7.693446 -7.708352 0
M  V30 23 C 9.071578 5.934491 -8.426296 0
M  V30 24 C 9.728593 6.527142 -11.103016 0
M  V30 25 H 5.544143 4.259127 -13.278560 0
M  V30 26 H 7.906312 6.170164 -13.436071 0
M  V30 27 H 7.077642 6.951801 -15.337613 0
M  V30 28 H 7.399197 5.455181 -16.205626 0
M  V30 29 H 7.797617 4.395705 -9.247989 0
M  V30 30 H 8.113604 3.684962 -14.795202 0
M  V30 31 H 6.576116 3.235106 -15.489682 0
M  V30 32 H 7.619267 3.865610 -11.499824 0
M  V30 33 H 8.996925 4.202342 -12.521811 0
M  V30 34 H 4.274606 8.782647 -12.029138 0
M  V30 35 H 4.574218 7.537558 -10.806533 0
M  V30 36 H 5.775393 8.790195 -11.125182 0
M  V30 37 H 10.991283 8.072374 -10.273983 0
M  V30 38 H 8.659447 1.387182 -14.986250 0
M  V30 39 H 7.324523 0.259648 -14.795857 0
M  V30 40 H 8.973635 1.048329 -12.629685 0
M  V30 41 H 6.438238 7.864272 -13.210586 0
M  V30 42 H 4.975411 6.902795 -13.311638 0
M  V30 43 H 8.817307 5.710120 -7.401035 0
M  V30 END ATOM
M  V30 BEGIN BOND
M  V30 1 1 3 1
M  V30 2 1 9 4
M  V30 3 1 10 1
M  V30 4 2 11 6
M  V30 5 1 11 10
M  V30 6 1 12 3
M  V30 7 1 12 4
M  V30 8 1 13 5
M  V30 9 1 13 8
M  V30 10 2 15 2
M  V30 11 1 16 11
M  V30 12 2 17 13
M  V30 13 1 18 1
M  V30 14 1 18 8
M  V30 15 1 19 16
M  V30 16 1 20 14
M  V30 17 1 21 3
M  V30 18 1 21 20
M  V30 19 1 22 2
M  V30 20 1 23 2
M  V30 21 2 23 9
M  V30 22 2 24 4
M  V30 23 1 24 7
M  V30 24 1 24 15
M  V30 25 1 1 25 CFG=1
M  V30 26 1 3 26 CFG=3
M  V30 27 1 27 8
M  V30 28 1 28 8
M  V30 29 1 29 9
M  V30 30 1 30 10
M  V30 31 1 31 10
M  V30 32 1 32 12
M  V30 33 1 33 12
M  V30 34 1 34 14
M  V30 35 1 35 14
M  V30 36 1 36 14
M  V30 37 1 37 15
M  V30 38 1 38 16
M  V30 39 1 39 16
M  V30 40 1 40 19
M  V30 41 1 41 20
M  V30 42 1 42 20
M  V30 43 1 43 23
M  V30 END BOND
M  V30 END CTAB
M  END
>  <i_epik_Tot_Q>  (1) 
-1

>  <i_epik_Tot_abs_Q>  (1) 
1

>  <i_i_glide_confnum>  (1) 
1030

>  <i_i_glide_lignum>  (1) 
127

>  <i_i_glide_posenum>  (1) 
239

>  <i_i_glide_rotatable_bonds>  (1) 
12

>  <i_lp_mmshare_version>  (1) 
72125

>  <i_m_source_file_index>  (1) 
49

>  <i_f3d_flags>  (1) 
0

>  <num_sample>  (1) 
50

>  <b_lp_Chiralities_Consistent>  (1) 
1

>  <r_epik_Charging_Adjusted_Penalty>  (1) 
7.9156217055703786e-05

>  <r_epik_Ionization_Penalty>  (1) 
8.8264238192330274e-05

>  <r_epik_Ionization_Penalty_Charging>  (1) 
7.9156217055703786e-05

>  <r_epik_Ionization_Penalty_Neutral>  (1) 
9.1080211366264862e-06

>  <r_epik_State_Penalty>  (1) 
-0

>  <r_glide_ring_energy>  (1) 
0

>  <r_i_docking_score>  (1) 
-3.8109688321938799

>  <r_i_glide_ecoul>  (1) 
-2.0680238558658459

>  <r_i_glide_eff_state_penalty>  (1) 
-0

>  <r_i_glide_einternal>  (1) 
11.122967960944518

>  <r_i_glide_emodel>  (1) 
-29.755230630271836

>  <r_i_glide_emodel_strain>  (1) 
1.44949962695053

>  <r_i_glide_energy>  (1) 
-29.551176046668733

>  <r_i_glide_erotb>  (1) 
1.2745455854061123

>  <r_i_glide_esite>  (1) 
-0.0079947671539743644

>  <r_i_glide_evdw>  (1) 
-27.483152190802887

>  <r_i_glide_gscore>  (1) 
-3.8109688321938799

>  <r_i_glide_gscore_strain>  (1) 
0

>  <r_i_glide_hbond>  (1) 
-0.1354087829505197

>  <r_i_glide_ligand_efficiency>  (1) 
-0.15879036800807833

>  <r_i_glide_ligand_efficiency_ln>  (1) 
-0.91213971550876483

>  <r_i_glide_ligand_efficiency_sa>  (1) 
-0.45803068005721242

>  <r_i_glide_lipo>  (1) 
-0.75541706543714826

>  <r_i_glide_metal>  (1) 
-0

>  <r_i_glide_rewards>  (1) 
-2.5023326141383286

>  <r_lp_Energy>  (1) 
23.232806999999998

>  <r_lp_tautomer_probability>  (1) 
1

>  <s_epik_cmdline>  (1) 
J2VwaWtfcHl0aG9uJywgJy1waHQnLCAnMS4wJywgJy1waCcsICc3LjQnLCAnLXRuJywgJzgnLCAnLW1hJywgJzUwMCcsICctaW1hZScsICc8aW5maWxlLm1hZT4nLCAnLW9tYWUnLCAnPG91dGZpbGUubWFlPic=

>  <s_epik_input>  (1) 
W09IXUMoPU8pW0NIMl1PW0NAQEhdKFtDSDJdQyg9TylbQ0gyXVtPSF0pW0NASF0oT1tDSDJdW0NIM10pW0NIMl1jKFtjSF1bY0hdMSljKEYpW2NIXWMxRg==

>  <s_glide_docking_method>  (1) 
confgen

>  <s_i_glide_gridfile>  (1) 
gpcr_drd2_6luq_protein_autoprepared_prepared

>  <s_lp_Force_Field>  (1) 
S-OPLS

>  <s_lp_Variant>  (1) 
DiffSBDD_48-2

>  <s_m_source_file>  (1) 
generated_generic_title2_ligand_DiffSBDD_2026-06-23_prepared.sdf

>  <GenAI_Model>  (1) 
DiffSBDD

>  <Protein>  (1) 
generic_title2

$$$$
DiffSBDD_13
     RDKit          3D

  0  0  0  0  0  0  0  0  0  0999 V3000
M  V30 BEGIN CTAB
M  V30 COUNTS 48 50 0 0 1
M  V30 BEGIN ATOM
M  V30 1 O 4.975472 5.990222 -10.784994 0
M  V30 2 C 5.922067 5.851887 -11.466717 0
M  V30 3 C 6.365736 0.300011 -19.664272 0
M  V30 4 F 10.713916 6.138086 -12.385043 0
M  V30 5 C 6.843042 3.068407 -18.807003 0
M  V30 6 F 9.436314 -0.363991 -18.459082 0
M  V30 7 C 6.957990 5.711606 -12.260775 0
M  V30 8 C 7.587360 0.281377 -16.168782 0
M  V30 9 C 8.464973 -1.196708 -18.086205 0
M  V30 10 C 6.822595 4.336179 -18.300649 0
M  V30 11 C 8.750156 5.190301 -9.466092 0
M  V30 12 F 8.975550 -2.031183 -17.185011 0
M  V30 13 C 6.804951 5.387523 -13.668128 0
M  V30 14 C 8.364429 5.925060 -11.667079 0 CFG=1
M  V30 15 C 7.636522 5.009196 -15.876561 0
M  V30 16 C 5.522962 1.442324 -20.234638 0
M  V30 17 C 7.514265 1.767269 -16.512664 0
M  V30 18 C 5.487958 3.884121 -20.882246 0
M  V30 19 N 8.677399 4.880649 -10.695695 0
M  V30 20 C 7.853200 5.324348 -14.505024 0
M  V30 21 C 9.193450 5.590227 -14.031834 0
M  V30 22 C 7.328707 4.683956 -17.012793 0
M  V30 23 C 7.427233 1.836246 -18.048856 0 CFG=1
M  V30 24 C 9.446880 5.877665 -12.743808 0
M  V30 25 F 8.097276 -1.924251 -19.141349 0
M  V30 26 C 7.240903 -0.463174 -17.464500 0 CFG=2
M  V30 27 C 6.309824 2.760667 -20.217515 0 CFG=1
M  V30 28 N 6.653803 0.612129 -18.272891 0
M  V30 29 H 5.813177 -0.638542 -19.726331 0
M  V30 30 H 7.288560 0.181348 -20.233559 0
M  V30 31 H 6.876489 0.038993 -15.377506 0
M  V30 32 H 8.575298 0.007653 -15.801192 0
M  V30 33 H 6.414685 5.143304 -18.886604 0
M  V30 34 H 8.990280 4.431884 -8.716656 0
M  V30 35 H 8.575405 6.217671 -9.134860 0
M  V30 36 H 5.812125 5.196399 -14.054102 0
M  V30 37 H 8.398934 6.927969 -11.232902 0
M  V30 38 H 4.595447 1.541315 -19.669033 0
M  V30 39 H 5.234190 1.195013 -21.256407 0
M  V30 40 H 6.616220 2.184944 -16.055786 0
M  V30 41 H 8.386142 2.288753 -16.118461 0
M  V30 42 H 6.087942 4.779312 -21.046541 0
M  V30 43 H 5.121500 3.570572 -21.860429 0
M  V30 44 H 4.619573 4.153540 -20.280182 0
M  V30 45 H 10.014702 5.568565 -14.734788 0
M  V30 46 H 8.424055 1.697753 -18.464833 0
M  V30 47 H 6.468167 -1.206410 -17.262265 0
M  V30 48 H 7.196510 2.607155 -20.834485 0
M  V30 END ATOM
M  V30 BEGIN BOND
M  V30 1 2 2 1
M  V30 2 2 7 2
M  V30 3 1 9 6
M  V30 4 2 10 5
M  V30 5 1 12 9
M  V30 6 1 13 7
M  V30 7 1 14 7
M  V30 8 1 16 3
M  V30 9 1 17 8
M  V30 10 2 19 11
M  V30 11 1 19 14
M  V30 12 2 20 13
M  V30 13 1 20 15
M  V30 14 1 21 20
M  V30 15 1 22 10
M  V30 16 3 22 15
M  V30 17 1 23 5
M  V30 18 1 23 17
M  V30 19 1 24 4
M  V30 20 1 24 14
M  V30 21 2 24 21
M  V30 22 1 25 9
M  V30 23 1 26 8
M  V30 24 1 26 9
M  V30 25 1 27 5
M  V30 26 1 27 16
M  V30 27 1 27 18
M  V30 28 1 28 3
M  V30 29 1 28 23
M  V30 30 1 28 26
M  V30 31 1 29 3
M  V30 32 1 30 3
M  V30 33 1 31 8
M  V30 34 1 32 8
M  V30 35 1 33 10
M  V30 36 1 34 11
M  V30 37 1 35 11
M  V30 38 1 36 13
M  V30 39 1 14 37 CFG=1
M  V30 40 1 38 16
M  V30 41 1 39 16
M  V30 42 1 40 17
M  V30 43 1 41 17
M  V30 44 1 42 18
M  V30 45 1 43 18
M  V30 46 1 44 18
M  V30 47 1 45 21
M  V30 48 1 23 46 CFG=3
M  V30 49 1 26 47 CFG=1
M  V30 50 1 27 48 CFG=3
M  V30 END BOND
M  V30 END CTAB
M  END
>  <i_epik_Tot_Q>  (1) 
0

>  <i_epik_Tot_abs_Q>  (1) 
0

>  <i_i_glide_confnum>  (1) 
1

>  <i_i_glide_lignum>  (1) 
51

>  <i_i_glide_posenum>  (1) 
63

>  <i_i_glide_rotatable_bonds>  (1) 
4

>  <i_lp_mmshare_version>  (1) 
72125

>  <i_m_source_file_index>  (1) 
14

>  <i_f3d_flags>  (1) 
0

>  <num_sample>  (1) 
50

>  <b_lp_Chiralities_Consistent>  (1) 
1

>  <r_epik_Charging_Adjusted_Penalty>  (1) 
0

>  <r_epik_Ionization_Penalty>  (1) 
0.00020645461892998548

>  <r_epik_Ionization_Penalty_Charging>  (1) 
0

>  <r_epik_Ionization_Penalty_Neutral>  (1) 
0.00020645461892998548

>  <r_epik_State_Penalty>  (1) 
-0

>  <r_glide_ring_energy>  (1) 
0

>  <r_i_docking_score>  (1) 
-3.8105800901995948

>  <r_i_glide_ecoul>  (1) 
-0.65948377967180805

>  <r_i_glide_eff_state_penalty>  (1) 
-0

>  <r_i_glide_einternal>  (1) 
1.5938563063404256

>  <r_i_glide_emodel>  (1) 
-34.94362004786263

>  <r_i_glide_emodel_strain>  (1) 
0.012503242006026483

>  <r_i_glide_energy>  (1) 
-29.52684248898521

>  <r_i_glide_erotb>  (1) 
0.38039990127662543

>  <r_i_glide_esite>  (1) 
-0.087371314302384304

>  <r_i_glide_evdw>  (1) 
-28.8673587093134

>  <r_i_glide_gscore>  (1) 
-3.8105800901995948

>  <r_i_glide_gscore_strain>  (1) 
0

>  <r_i_glide_hbond>  (1) 
0

>  <r_i_glide_ligand_efficiency>  (1) 
-0.13609214607855696

>  <r_i_glide_ligand_efficiency_ln>  (1) 
-0.87959376831115621

>  <r_i_glide_ligand_efficiency_sa>  (1) 
-0.41325590994103778

>  <r_i_glide_lipo>  (1) 
-1.1105132064179046

>  <r_i_glide_metal>  (1) 
-0

>  <r_i_glide_rewards>  (1) 
-1.4508049683394901

>  <r_lp_Energy>  (1) 
25.917797999999998

>  <r_lp_tautomer_probability>  (1) 
1

>  <s_epik_Chemistry_Notes>  (1) 
This compound has an imine and may undergo hydrolysis.

>  <s_epik_cmdline>  (1) 
J2VwaWtfcHl0aG9uJywgJy1waHQnLCAnMS4wJywgJy1waCcsICc3LjQnLCAnLXRuJywgJzgnLCAnLW1hJywgJzUwMCcsICctaW1hZScsICc8aW5maWxlLm1hZT4nLCAnLW9tYWUnLCAnPG91dGZpbGUubWFlPic=

>  <s_epik_input>  (1) 
W0NIMl09TltDQEhdMUMoRik9W0NIXUMoPVtDSF1DMT1DPU8pQyNDL1tDSF09Q1wyW0NASF0oW0NIM10pW0NIMl1bQ0gyXU4oW0NAQEhdMjMpW0NAQEhdKEMoRikoRilGKVtDSDJdW0NIMl0z

>  <s_glide_docking_method>  (1) 
confgen

>  <s_i_glide_gridfile>  (1) 
gpcr_drd2_6luq_protein_autoprepared_prepared

>  <s_lp_Force_Field>  (1) 
S-OPLS

>  <s_lp_Variant>  (1) 
DiffSBDD_13-2

>  <s_m_source_file>  (1) 
generated_generic_title2_ligand_DiffSBDD_2026-06-23_prepared.sdf

>  <GenAI_Model>  (1) 
DiffSBDD

>  <Protein>  (1) 
generic_title2

$$$$
DiffSBDD_39
     RDKit          3D

  0  0  0  0  0  0  0  0  0  0999 V3000
M  V30 BEGIN CTAB
M  V30 COUNTS 69 72 0 0 1
M  V30 BEGIN ATOM
M  V30 1 C 9.048941 4.993664 -15.376084 0
M  V30 2 F 9.160691 0.179590 -21.653611 0
M  V30 3 F 9.877445 1.909835 -20.576829 0
M  V30 4 C 11.634330 8.517243 -9.184855 0
M  V30 5 C 9.065810 5.477919 -12.870951 0
M  V30 6 C 7.007353 6.387543 -11.756172 0 CFG=1
M  V30 7 O 12.770758 8.390249 -8.358743 0
M  V30 8 C 7.920758 1.121018 -18.273411 0 CFG=2
M  V30 9 C 6.174083 5.452193 -15.446247 0
M  V30 10 C 9.107313 5.777561 -10.394126 0 CFG=2
M  V30 11 O 8.313137 -1.197844 -17.623321 0
M  V30 12 C 7.020820 5.380649 -16.731738 0
M  V30 13 N 8.241901 4.554633 -16.541405 0 CFG=2 CHG=1
M  V30 14 C 10.175693 -0.185057 -19.566796 0
M  V30 15 C 8.222305 5.016455 -14.072719 0 CFG=1
M  V30 16 C 7.989906 3.093324 -16.602372 0
M  V30 17 O 10.134731 0.169004 -18.179745 0
M  V30 18 C 6.166294 5.953795 -12.964021 0
M  V30 19 N 8.261623 5.573743 -11.616955 0 CFG=2 CHG=1
M  V30 20 C 10.790167 7.231494 -9.137673 0 CFG=1
M  V30 21 C 9.972137 7.064319 -7.849860 0
M  V30 22 C 8.383381 2.565501 -17.983542 0
M  V30 23 C 7.000152 5.933776 -14.254596 0 CFG=2
M  V30 24 C 8.866224 0.100919 -17.591858 0 CFG=1
M  V30 25 C 7.926849 0.888260 -19.782776 0
M  V30 26 C 9.293324 5.684313 -7.836027 0
M  V30 27 C 9.292607 0.719738 -20.441244 0
M  V30 28 O 6.883724 0.852139 -20.433799 0
M  V30 29 C 8.398300 5.432143 -9.063472 0
M  V30 30 O 7.466250 7.704693 -11.985024 0
M  V30 31 C 9.846122 7.141073 -10.340240 0
M  V30 32 H 9.413601 5.990207 -15.601328 0
M  V30 33 H 9.948371 4.390231 -15.275395 0
M  V30 34 H 11.048246 9.389683 -8.901295 0
M  V30 35 H 11.996603 8.698944 -10.196850 0
M  V30 36 H 9.519427 6.439438 -13.097019 0
M  V30 37 H 9.889178 4.776629 -12.726383 0
M  V30 38 H 6.388996 6.338998 -10.861040 0
M  V30 39 H 13.364719 9.100556 -8.559859 0
M  V30 40 H 6.908353 0.966642 -17.898374 0
M  V30 41 H 5.318022 6.109774 -15.603719 0
M  V30 42 H 5.775522 4.473608 -15.185030 0
M  V30 43 H 9.875149 5.012548 -10.477487 0
M  V30 44 H 8.713484 -1.717281 -16.939073 0
M  V30 45 H 7.322395 6.388237 -17.022919 0
M  V30 46 H 6.431019 4.992600 -17.563865 0
M  V30 47 H 9.857682 -1.214305 -19.691949 0
M  V30 48 H 11.209382 -0.137738 -19.910681 0
M  V30 49 H 7.875476 4.002666 -13.865265 0
M  V30 50 H 8.572615 2.568828 -15.844503 0
M  V30 51 H 6.945895 2.865099 -16.390458 0
M  V30 52 H 5.322295 6.634401 -13.082196 0
M  V30 53 H 5.741281 4.965935 -12.775733 0
M  V30 54 H 11.471860 6.390488 -9.185039 0
M  V30 55 H 10.620629 7.158431 -6.978154 0
M  V30 56 H 9.221531 7.852370 -7.767949 0
M  V30 57 H 7.939100 3.224616 -18.731439 0
M  V30 58 H 9.463283 2.658444 -18.112929 0
M  V30 59 H 7.343441 6.947754 -14.471259 0
M  V30 60 H 8.975409 0.347409 -16.536299 0
M  V30 61 H 10.063926 4.916493 -7.811403 0
M  V30 62 H 8.705345 5.590232 -6.923079 0
M  V30 63 H 8.083780 4.390178 -9.071944 0
M  V30 64 H 7.484427 5.990223 -8.929792 0
M  V30 65 H 7.375388 8.125546 -11.125564 0
M  V30 66 H 9.150735 7.973395 -10.258705 0
M  V30 67 H 10.418080 7.299911 -11.253180 0
M  V30 68 H 8.824491 4.741504 -17.346538 0
M  V30 69 H 7.907424 4.637794 -11.483496 0
M  V30 END ATOM
M  V30 BEGIN BOND
M  V30 1 1 7 4
M  V30 2 1 12 9
M  V30 3 1 13 1
M  V30 4 1 13 12
M  V30 5 1 15 1
M  V30 6 1 15 5
M  V30 7 1 16 13
M  V30 8 1 17 14
M  V30 9 1 18 6
M  V30 10 1 19 5
M  V30 11 1 19 6
M  V30 12 1 19 10
M  V30 13 1 20 4
M  V30 14 1 21 20
M  V30 15 1 22 8
M  V30 16 1 22 16
M  V30 17 1 23 9
M  V30 18 1 23 15
M  V30 19 1 23 18
M  V30 20 1 24 8
M  V30 21 1 24 11
M  V30 22 1 24 17
M  V30 23 1 25 8
M  V30 24 1 26 21
M  V30 25 1 27 2
M  V30 26 1 27 3
M  V30 27 1 27 14
M  V30 28 1 27 25
M  V30 29 2 28 25
M  V30 30 1 29 10
M  V30 31 1 29 26
M  V30 32 1 30 6
M  V30 33 1 31 10
M  V30 34 1 31 20
M  V30 35 1 32 1
M  V30 36 1 33 1
M  V30 37 1 34 4
M  V30 38 1 35 4
M  V30 39 1 36 5
M  V30 40 1 37 5
M  V30 41 1 6 38 CFG=1
M  V30 42 1 39 7
M  V30 43 1 8 40 CFG=1
M  V30 44 1 41 9
M  V30 45 1 42 9
M  V30 46 1 10 43 CFG=3
M  V30 47 1 44 11
M  V30 48 1 45 12
M  V30 49 1 46 12
M  V30 50 1 47 14
M  V30 51 1 48 14
M  V30 52 1 15 49 CFG=1
M  V30 53 1 50 16
M  V30 54 1 51 16
M  V30 55 1 52 18
M  V30 56 1 53 18
M  V30 57 1 20 54 CFG=3
M  V30 58 1 55 21
M  V30 59 1 56 21
M  V30 60 1 57 22
M  V30 61 1 58 22
M  V30 62 1 23 59 CFG=3
M  V30 63 1 24 60 CFG=1
M  V30 64 1 61 26
M  V30 65 1 62 26
M  V30 66 1 63 29
M  V30 67 1 64 29
M  V30 68 1 65 30
M  V30 69 1 66 31
M  V30 70 1 67 31
M  V30 71 1 13 68 CFG=3
M  V30 72 1 19 69 CFG=1
M  V30 END BOND
M  V30 END CTAB
M  END
>  <i_epik_Tot_Q>  (1) 
2

>  <i_epik_Tot_abs_Q>  (1) 
2

>  <i_i_glide_confnum>  (1) 
62

>  <i_i_glide_lignum>  (1) 
114

>  <i_i_glide_posenum>  (1) 
399

>  <i_i_glide_rotatable_bonds>  (1) 
8

>  <i_lp_mmshare_version>  (1) 
72125

>  <i_m_source_file_index>  (1) 
40

>  <i_f3d_flags>  (1) 
0

>  <num_sample>  (1) 
50

>  <b_lp_Chiralities_Consistent>  (1) 
1

>  <r_epik_Charging_Adjusted_Penalty>  (1) 
1.743801429740254

>  <r_epik_Ionization_Penalty>  (1) 
1.6051069046209219

>  <r_epik_Ionization_Penalty_Charging>  (1) 
0.6098477401054202

>  <r_epik_Ionization_Penalty_Neutral>  (1) 
0.99525916451550167

>  <r_epik_State_Penalty>  (1) 
1.1339536896348337

>  <r_glide_ring_energy>  (1) 
1.2534239858201268

>  <r_i_docking_score>  (1) 
-3.8077088246735418

>  <r_i_glide_ecoul>  (1) 
-10.541309010135306

>  <r_i_glide_eff_state_penalty>  (1) 
1.1339536896348337

>  <r_i_glide_einternal>  (1) 
15.359325550214269

>  <r_i_glide_emodel>  (1) 
-38.136784574456591

>  <r_i_glide_emodel_strain>  (1) 
0.45764320737015396

>  <r_i_glide_energy>  (1) 
-34.26144048725746

>  <r_i_glide_erotb>  (1) 
0.49785121930328097

>  <r_i_glide_esite>  (1) 
-0.13303997701190803

>  <r_i_glide_evdw>  (1) 
-23.720131477122155

>  <r_i_glide_gscore>  (1) 
-4.9416625143083754

>  <r_i_glide_gscore_strain>  (1) 
0

>  <r_i_glide_hbond>  (1) 
-0.14466251567314495

>  <r_i_glide_ligand_efficiency>  (1) 
-0.12282931692495296

>  <r_i_glide_ligand_efficiency_ln>  (1) 
-0.85875503222514937

>  <r_i_glide_ligand_efficiency_sa>  (1) 
-0.38585363973449799

>  <r_i_glide_lipo>  (1) 
-1.2116549189743464

>  <r_i_glide_metal>  (1) 
-0

>  <r_i_glide_rewards>  (1) 
-1.1829533965758525

>  <r_lp_Energy>  (1) 
49.071247

>  <r_lp_tautomer_probability>  (1) 
0.99995000000000001

>  <s_epik_Chemistry_Notes>  (1) 
This compound contains an acetal/aminal-like group ( X-CH(R)-Y where X, Y are N, S, or O) that may be acid/base labile, releasing an aldehyde.

>  <s_epik_cmdline>  (1) 
J2VwaWtfcHl0aG9uJywgJy1waHQnLCAnMS4wJywgJy1waCcsICc3LjQnLCAnLXRuJywgJzgnLCAnLW1hJywgJzUwMCcsICctaW1hZScsICc8aW5maWxlLm1hZT4nLCAnLW9tYWUnLCAnPG91dGZpbGUubWFlPic=

>  <s_epik_input>  (1) 
RkMxKEYpW0NIMl1PW0NASF0oW09IXSlbQ0BIXShDMT1PKVtDSDJdW0NIMl1OKFtDSDJdMilbQ0gyXVtDSDJdW0NASF0oW0NAQEhdMjMpW0NIMl1bQ0BIXShbT0hdKU4oW0NIMl0zKVtDQEBIXTRbQ0gyXVtDSDJdW0NIMl1bQ0BASF0oW0NIMl00KVtDSDJdW09IXQ==

>  <s_glide_docking_method>  (1) 
confgen

>  <s_i_glide_gridfile>  (1) 
gpcr_drd2_6luq_protein_autoprepared_prepared

>  <s_lp_Force_Field>  (1) 
S-OPLS

>  <s_lp_Variant>  (1) 
DiffSBDD_39-10

>  <s_m_source_file>  (1) 
generated_generic_title2_ligand_DiffSBDD_2026-06-23_prepared.sdf

>  <GenAI_Model>  (1) 
DiffSBDD

>  <Protein>  (1) 
generic_title2

$$$$
DiffSBDD_22
     RDKit          3D

  0  0  0  0  0  0  0  0  0  0999 V3000
M  V30 BEGIN CTAB
M  V30 COUNTS 59 63 0 0 1
M  V30 BEGIN ATOM
M  V30 1 C 8.208701 3.861816 -17.969480 0
M  V30 2 C 7.745401 5.285850 -18.378920 0 CFG=1
M  V30 3 C 8.880929 3.035597 -19.092743 0 CFG=2
M  V30 4 C 5.205097 7.315229 -20.878473 0 CFG=1
M  V30 5 C 8.109894 0.777835 -18.337468 0 CFG=2
M  V30 6 C 7.924625 0.478444 -16.862060 0
M  V30 7 N 9.221640 1.667717 -18.605135 0
M  V30 8 C 10.032791 3.874291 -19.708759 0
M  V30 9 O 10.823504 0.168998 -17.985033 0
M  V30 10 C 8.846811 6.045752 -19.155003 0
M  V30 11 C 6.719866 0.906296 -18.955961 0 CFG=1
M  V30 12 C 5.403568 6.979513 -17.085776 0
M  V30 13 C 6.273416 5.383386 -18.930102 0 CFG=2
M  V30 14 C 6.063086 5.005787 -20.413054 0
M  V30 15 Cl 5.775263 -0.009762 -15.229308 0
M  V30 16 C 4.472191 10.380059 -23.073517 0
M  V30 17 C 9.516208 5.209587 -20.261078 0
M  V30 18 C 5.728012 11.017268 -23.094818 0
M  V30 19 C 4.301201 9.181195 -22.353434 0
M  V30 20 C 7.657829 -0.184717 -19.430282 0
M  V30 21 C 6.645280 9.262206 -21.669155 0
M  V30 22 C 10.504258 1.286599 -18.391204 0
M  V30 23 F 4.119692 7.190156 -16.797635 0
M  V30 24 C 6.437242 0.365220 -16.851564 0
M  V30 25 N 5.234713 7.587274 -19.447565 0
M  V30 26 N 5.775463 0.528484 -17.913801 0
M  V30 27 C 5.388288 8.617026 -21.651315 0
M  V30 28 C 6.813316 10.459404 -22.391964 0
M  V30 29 C 5.602073 6.731108 -18.572100 0
M  V30 30 C 6.187649 6.220533 -21.331940 0
M  V30 31 H 7.366895 3.320152 -17.539009 0
M  V30 32 H 8.928960 3.958531 -17.155317 0
M  V30 33 H 7.722491 5.798127 -17.417844 0
M  V30 34 H 8.182644 2.892337 -19.910086 0
M  V30 35 H 4.204260 6.948695 -21.111681 0
M  V30 36 H 8.404238 -0.458423 -16.576109 0
M  V30 37 H 8.257940 1.298816 -16.225427 0
M  V30 38 H 10.796995 4.098442 -18.963167 0
M  V30 39 H 10.518302 3.320256 -20.513324 0
M  V30 40 H 9.625886 6.328357 -18.445212 0
M  V30 41 H 8.470206 6.990600 -19.545515 0
M  V30 42 H 6.415473 1.737634 -19.587051 0
M  V30 43 H 5.719638 6.128006 -16.483590 0
M  V30 44 H 5.962858 7.860983 -16.771188 0
M  V30 45 H 5.703830 4.632342 -18.384984 0
M  V30 46 H 6.725309 4.209062 -20.735664 0
M  V30 47 H 5.056010 4.601149 -20.527144 0
M  V30 48 H 3.640193 10.809109 -23.612148 0
M  V30 49 H 10.346308 5.773852 -20.687589 0
M  V30 50 H 8.831469 5.021594 -21.085316 0
M  V30 51 H 5.859236 11.934095 -23.650932 0
M  V30 52 H 3.337669 8.693756 -22.341455 0
M  V30 53 H 8.095165 -0.064255 -20.419421 0
M  V30 54 H 7.442959 -1.213607 -19.146265 0
M  V30 55 H 7.479454 8.837507 -21.130983 0
M  V30 56 H 11.212897 2.090038 -18.622379 0
M  V30 57 H 7.775398 10.949367 -22.409143 0
M  V30 58 H 5.973394 5.934817 -22.362301 0
M  V30 59 H 7.208537 6.590972 -21.333790 0
M  V30 END ATOM
M  V30 BEGIN BOND
M  V30 1 1 2 1
M  V30 2 1 3 1
M  V30 3 1 6 5
M  V30 4 1 7 3
M  V30 5 1 5 7 CFG=1
M  V30 6 1 8 3
M  V30 7 1 10 2
M  V30 8 1 11 5
M  V30 9 1 13 2
M  V30 10 1 14 13
M  V30 11 1 17 8
M  V30 12 1 17 10
M  V30 13 2 18 16
M  V30 14 1 19 16
M  V30 15 1 20 5
M  V30 16 1 20 11
M  V30 17 1 22 7
M  V30 18 2 22 9
M  V30 19 1 23 12
M  V30 20 1 24 6
M  V30 21 1 24 15
M  V30 22 1 25 4
M  V30 23 1 26 11
M  V30 24 2 26 24
M  V30 25 1 27 4
M  V30 26 2 27 19
M  V30 27 1 27 21
M  V30 28 1 28 18
M  V30 29 2 28 21
M  V30 30 1 29 12
M  V30 31 1 29 13
M  V30 32 2 29 25
M  V30 33 1 30 4
M  V30 34 1 30 14
M  V30 35 1 31 1
M  V30 36 1 32 1
M  V30 37 1 2 33 CFG=1
M  V30 38 1 3 34 CFG=3
M  V30 39 1 4 35 CFG=3
M  V30 40 1 36 6
M  V30 41 1 37 6
M  V30 42 1 38 8
M  V30 43 1 39 8
M  V30 44 1 40 10
M  V30 45 1 41 10
M  V30 46 1 11 42 CFG=3
M  V30 47 1 43 12
M  V30 48 1 44 12
M  V30 49 1 13 45 CFG=1
M  V30 50 1 46 14
M  V30 51 1 47 14
M  V30 52 1 48 16
M  V30 53 1 49 17
M  V30 54 1 50 17
M  V30 55 1 51 18
M  V30 56 1 52 19
M  V30 57 1 53 20
M  V30 58 1 54 20
M  V30 59 1 55 21
M  V30 60 1 56 22
M  V30 61 1 57 28
M  V30 62 1 58 30
M  V30 63 1 59 30
M  V30 END BOND
M  V30 END CTAB
M  END
>  <i_epik_Tot_Q>  (1) 
0

>  <i_epik_Tot_abs_Q>  (1) 
0

>  <i_i_glide_confnum>  (1) 
105

>  <i_i_glide_lignum>  (1) 
69

>  <i_i_glide_posenum>  (1) 
240

>  <i_i_glide_rotatable_bonds>  (1) 
6

>  <i_lp_mmshare_version>  (1) 
72125

>  <i_m_source_file_index>  (1) 
23

>  <i_f3d_flags>  (1) 
0

>  <num_sample>  (1) 
50

>  <b_lp_Chiralities_Consistent>  (1) 
1

>  <r_epik_Charging_Adjusted_Penalty>  (1) 
0

>  <r_epik_Ionization_Penalty>  (1) 
0.00052212265616106849

>  <r_epik_Ionization_Penalty_Charging>  (1) 
0

>  <r_epik_Ionization_Penalty_Neutral>  (1) 
0.00052212265616106849

>  <r_epik_State_Penalty>  (1) 
-0

>  <r_glide_ring_energy>  (1) 
1.9780561898571851

>  <r_i_docking_score>  (1) 
-3.7843153889432672

>  <r_i_glide_ecoul>  (1) 
-0.40931584271977756

>  <r_i_glide_eff_state_penalty>  (1) 
-0

>  <r_i_glide_einternal>  (1) 
21.922888300785459

>  <r_i_glide_emodel>  (1) 
-26.219586290818576

>  <r_i_glide_emodel_strain>  (1) 
0.10932271331625998

>  <r_i_glide_energy>  (1) 
-31.244816805912393

>  <r_i_glide_erotb>  (1) 
0.43006818046137463

>  <r_i_glide_esite>  (1) 
0

>  <r_i_glide_evdw>  (1) 
-30.835500963192615

>  <r_i_glide_gscore>  (1) 
-3.7843153889432672

>  <r_i_glide_gscore_strain>  (1) 
0

>  <r_i_glide_hbond>  (1) 
0

>  <r_i_glide_ligand_efficiency>  (1) 
-0.1261438462981089

>  <r_i_glide_ligand_efficiency_ln>  (1) 
-0.85983768978661046

>  <r_i_glide_ligand_efficiency_sa>  (1) 
-0.39195825964353137

>  <r_i_glide_lipo>  (1) 
-1.2786071590996142

>  <r_i_glide_metal>  (1) 
-0

>  <r_i_glide_rewards>  (1) 
-1.3326039857374301

>  <r_lp_Energy>  (1) 
30.166556

>  <r_lp_tautomer_probability>  (1) 
1

>  <s_epik_Chemistry_Notes>  (1) 
This compound has an imine and may undergo hydrolysis.

>  <s_epik_cmdline>  (1) 
J2VwaWtfcHl0aG9uJywgJy1waHQnLCAnMS4wJywgJy1waCcsICc3LjQnLCAnLXRuJywgJzgnLCAnLW1hJywgJzUwMCcsICctaW1hZScsICc8aW5maWxlLm1hZT4nLCAnLW9tYWUnLCAnPG91dGZpbGUubWFlPic=

>  <s_epik_input>  (1) 
W0NIMl0xQyhDbCk9TltDQEhdKFtDSDJdMilbQ0BAXTEyTihbQ0hdPU8pW0NASF0oW0NIMl1bQ0gyXVtDSDJdMylbQ0gyXVtDQEBIXTNbQ0BIXShbQ0gyXVtDSDJdNClDKFtDSDJdRik9TltDQEhdNGM1W2NIXVtjSF1bY0hdW2NIXVtjSF01

>  <s_glide_docking_method>  (1) 
confgen

>  <s_i_glide_gridfile>  (1) 
gpcr_drd2_6luq_protein_autoprepared_prepared

>  <s_lp_Force_Field>  (1) 
S-OPLS

>  <s_lp_Variant>  (1) 
DiffSBDD_22-1

>  <s_m_source_file>  (1) 
generated_generic_title2_ligand_DiffSBDD_2026-06-23_prepared.sdf

>  <GenAI_Model>  (1) 
DiffSBDD

>  <Protein>  (1) 
generic_title2

$$$$
DiffSBDD_8
     RDKit          3D

  0  0  0  0  0  0  0  0  0  0999 V3000
M  V30 BEGIN CTAB
M  V30 COUNTS 70 73 0 0 1
M  V30 BEGIN ATOM
M  V30 1 N 6.210390 5.190374 -15.290131 0
M  V30 2 C 5.663361 5.225031 -18.553990 0
M  V30 3 C 8.782482 6.353393 -13.255984 0 CFG=1
M  V30 4 N 7.043789 6.580728 -19.925443 0
M  V30 5 O 7.502807 3.729873 -11.985016 0
M  V30 6 C 9.548051 6.665240 -9.134233 0
M  V30 7 F 8.660095 5.426938 -18.832959 0
M  V30 8 C 10.389174 7.950389 -8.956169 0
M  V30 9 N 8.975411 6.729739 -10.491525 0 CHG=1
M  V30 10 C 7.866516 5.827857 -10.934765 0 CFG=1
M  V30 11 C 7.745029 6.378560 -18.655254 0 CFG=2
M  V30 12 C 11.814415 7.053613 -3.434237 0
M  V30 13 C 7.578692 6.007986 -12.406543 0 CFG=2
M  V30 14 O 9.375551 3.990060 -10.777809 0
M  V30 15 O 6.172198 7.710035 -19.715727 0
M  V30 16 C 11.477088 7.936642 -7.870617 0
M  V30 17 C 5.500270 4.485684 -12.875790 0
M  V30 18 C 5.023253 6.037135 -15.285494 0
M  V30 19 C 6.370020 4.302890 -14.142327 0 CFG=2
M  V30 20 C 6.646362 5.984632 -17.633944 0 CFG=2
M  V30 21 C 7.043226 5.143055 -16.373417 0
M  V30 22 C 10.262229 5.990110 -13.096762 0
M  V30 23 C 8.042594 4.322898 -10.839383 0 CFG=2
M  V30 24 C 6.958199 4.715840 -12.813043 0 CFG=2
M  V30 25 O 11.427045 6.591967 -2.154669 0
M  V30 26 O 8.057767 4.445156 -16.390559 0
M  V30 27 C 10.936513 6.397471 -4.512352 0
M  V30 28 C 6.218115 8.517864 -20.878287 0
M  V30 29 C 6.140163 5.445912 -19.991453 0
M  V30 30 O 11.368397 6.702932 -5.830194 0
M  V30 31 C 10.929445 7.806140 -6.462161 0
M  V30 32 N 9.386866 5.189789 -13.906989 0 CHG=1
M  V30 33 O 10.170688 8.643049 -5.985833 0
M  V30 34 H 5.627030 4.149885 -18.385143 0
M  V30 35 H 4.654014 5.619321 -18.441287 0
M  V30 36 H 8.473491 7.069659 -13.985125 0
M  V30 37 H 10.167563 5.775556 -9.032646 0
M  V30 38 H 8.758094 6.609415 -8.383247 0
M  V30 39 H 9.714692 8.791570 -8.790597 0
M  V30 40 H 10.902940 8.175040 -9.892221 0
M  V30 41 H 8.511501 7.633043 -10.504322 0
M  V30 42 H 6.943555 5.990262 -10.384822 0
M  V30 43 H 8.293920 7.275268 -18.385375 0
M  V30 44 H 11.743324 8.141443 -3.469647 0
M  V30 45 H 12.862580 6.807001 -3.584486 0
M  V30 46 H 6.854190 6.814733 -12.535274 0
M  V30 47 H 9.437208 3.049912 -10.648380 0
M  V30 48 H 12.039559 8.870472 -7.904498 0
M  V30 49 H 12.190327 7.142224 -8.062178 0
M  V30 50 H 5.112041 3.593096 -12.391987 0
M  V30 51 H 4.975522 5.406796 -12.647255 0
M  V30 52 H 4.520582 6.143471 -16.244320 0
M  V30 53 H 4.268144 5.590225 -14.651036 0
M  V30 54 H 5.276384 7.025421 -14.895951 0
M  V30 55 H 6.565603 3.265491 -14.415399 0
M  V30 56 H 6.210341 6.936176 -17.327055 0
M  V30 57 H 11.029480 6.388711 -13.756036 0
M  V30 58 H 10.628583 5.390703 -12.275177 0
M  V30 59 H 7.548300 3.990403 -9.928691 0
M  V30 60 H 11.429297 5.643697 -2.149070 0
M  V30 61 H 10.997384 5.323567 -4.391580 0
M  V30 62 H 9.885847 6.649021 -4.387098 0
M  V30 63 H 5.621791 9.413363 -20.709549 0
M  V30 64 H 7.235336 8.839636 -21.105164 0
M  V30 65 H 5.804707 7.998445 -21.743822 0
M  V30 66 H 6.702118 4.577810 -20.337567 0
M  V30 67 H 5.320388 5.608629 -20.693552 0
M  V30 68 H 9.180781 4.281972 -13.505909 0
M  V30 69 H 9.729521 6.704776 -11.158088 0
M  V30 70 H 9.545423 5.254950 -14.905604 0
M  V30 END ATOM
M  V30 BEGIN BOND
M  V30 1 1 8 6
M  V30 2 1 9 6
M  V30 3 1 10 9
M  V30 4 1 11 4
M  V30 5 1 11 7
M  V30 6 1 13 3
M  V30 7 1 13 10
M  V30 8 1 15 4
M  V30 9 1 16 8
M  V30 10 1 18 1
M  V30 11 1 19 1
M  V30 12 1 19 17
M  V30 13 1 20 2
M  V30 14 1 20 11
M  V30 15 1 21 1
M  V30 16 1 21 20
M  V30 17 1 22 3
M  V30 18 1 23 5
M  V30 19 1 23 10
M  V30 20 1 23 14
M  V30 21 1 24 5 CFG=1
M  V30 22 1 24 13
M  V30 23 1 24 17
M  V30 24 1 24 19
M  V30 25 1 25 12
M  V30 26 2 26 21
M  V30 27 1 27 12
M  V30 28 1 28 15
M  V30 29 1 29 2
M  V30 30 1 29 4
M  V30 31 1 30 27
M  V30 32 1 31 16
M  V30 33 1 31 30
M  V30 34 1 32 3
M  V30 35 1 32 22
M  V30 36 2 33 31
M  V30 37 1 34 2
M  V30 38 1 35 2
M  V30 39 1 3 36 CFG=3
M  V30 40 1 37 6
M  V30 41 1 38 6
M  V30 42 1 39 8
M  V30 43 1 40 8
M  V30 44 1 41 9
M  V30 45 1 10 42 CFG=1
M  V30 46 1 11 43 CFG=1
M  V30 47 1 44 12
M  V30 48 1 45 12
M  V30 49 1 13 46 CFG=1
M  V30 50 1 47 14
M  V30 51 1 48 16
M  V30 52 1 49 16
M  V30 53 1 50 17
M  V30 54 1 51 17
M  V30 55 1 52 18
M  V30 56 1 53 18
M  V30 57 1 54 18
M  V30 58 1 19 55 CFG=3
M  V30 59 1 20 56 CFG=1
M  V30 60 1 57 22
M  V30 61 1 58 22
M  V30 62 1 23 59 CFG=1
M  V30 63 1 60 25
M  V30 64 1 61 27
M  V30 65 1 62 27
M  V30 66 1 63 28
M  V30 67 1 64 28
M  V30 68 1 65 28
M  V30 69 1 66 29
M  V30 70 1 67 29
M  V30 71 1 68 32
M  V30 72 1 69 9
M  V30 73 1 70 32
M  V30 END BOND
M  V30 END CTAB
M  END
>  <i_epik_Tot_Q>  (1) 
2

>  <i_epik_Tot_abs_Q>  (1) 
2

>  <i_i_glide_confnum>  (1) 
5842

>  <i_i_glide_lignum>  (1) 
42

>  <i_i_glide_posenum>  (1) 
92

>  <i_i_glide_rotatable_bonds>  (1) 
15

>  <i_lp_mmshare_version>  (1) 
72125

>  <i_m_source_file_index>  (1) 
9

>  <i_f3d_flags>  (1) 
0

>  <num_sample>  (1) 
50

>  <b_lp_Chiralities_Consistent>  (1) 
1

>  <r_epik_Charging_Adjusted_Penalty>  (1) 
2.8797985042560583

>  <r_epik_Ionization_Penalty>  (1) 
1.6442763990741283

>  <r_epik_Ionization_Penalty_Charging>  (1) 
1.6439676131770962

>  <r_epik_Ionization_Penalty_Neutral>  (1) 
0.00030878589703216643

>  <r_epik_State_Penalty>  (1) 
1.2358308910789622

>  <r_glide_ring_energy>  (1) 
2.1602850750454077

>  <r_i_docking_score>  (1) 
-3.7706698157490126

>  <r_i_glide_ecoul>  (1) 
-10.258475436524432

>  <r_i_glide_eff_state_penalty>  (1) 
1.2358308910789622

>  <r_i_glide_einternal>  (1) 
37.196081531618219

>  <r_i_glide_emodel>  (1) 
-22.234150463797235

>  <r_i_glide_emodel_strain>  (1) 
1.7623783266170676

>  <r_i_glide_energy>  (1) 
-28.179979668150811

>  <r_i_glide_erotb>  (1) 
1.0700444368793263

>  <r_i_glide_esite>  (1) 
-0.10303846380955593

>  <r_i_glide_evdw>  (1) 
-17.921504231626379

>  <r_i_glide_gscore>  (1) 
-5.0065007068279748

>  <r_i_glide_gscore_strain>  (1) 
0

>  <r_i_glide_hbond>  (1) 
-0.12457699531105476

>  <r_i_glide_ligand_efficiency>  (1) 
-0.11426272168936402

>  <r_i_glide_ligand_efficiency_ln>  (1) 
-0.83857744353914876

>  <r_i_glide_ligand_efficiency_sa>  (1) 
-0.36650160245739383

>  <r_i_glide_lipo>  (1) 
-1.7415161333389217

>  <r_i_glide_metal>  (1) 
-0

>  <r_i_glide_rewards>  (1) 
-1.6725670241877852

>  <r_lp_Energy>  (1) 
51.627417999999999

>  <s_epik_Chemistry_Notes>  (1) 
This compound has an ester and may undergo hydrolysis at high or low pH. This compound contains an acetal/aminal-like group ( X-CH(R)-Y where X, Y are N, S, or O) that may be acid/base labile, releasing an aldehyde. This compound has a N-S or N-O group and may undergo hydrolysis at high or low pH.

>  <s_epik_cmdline>  (1) 
J2VwaWtfcHl0aG9uJywgJy1waHQnLCAnMS4wJywgJy1waCcsICc3LjQnLCAnLXRuJywgJzgnLCAnLW1hJywgJzUwMCcsICctaW1hZScsICc8aW5maWxlLm1hZT4nLCAnLW9tYWUnLCAnPG91dGZpbGUubWFlPic=

>  <s_epik_input>  (1) 
W0NIM11PTjFbQ0BIXShGKVtDQEBIXShbQ0gyXVtDSDJdMSlDKD1PKU4oW0NIM10pW0NASF0yW0NIMl1DMjNPW0NAQEhdKFtPSF0pW0NASF0oW0NASF0zW0NASF00W0NIMl1bTkhdNClbTkhdW0NIMl1bQ0gyXVtDSDJdQyg9TylPW0NIMl1bQ0gyXVtPSF0=

>  <s_glide_docking_method>  (1) 
confgen

>  <s_i_glide_gridfile>  (1) 
gpcr_drd2_6luq_protein_autoprepared_prepared

>  <s_lp_Force_Field>  (1) 
S-OPLS

>  <s_lp_Variant>  (1) 
DiffSBDD_8-11

>  <s_m_source_file>  (1) 
generated_generic_title2_ligand_DiffSBDD_2026-06-23_prepared.sdf

>  <GenAI_Model>  (1) 
DiffSBDD

>  <Protein>  (1) 
generic_title2

$$$$
DiffSBDD_28
     RDKit          3D

  0  0  0  0  0  0  0  0  0  0999 V3000
M  V30 BEGIN CTAB
M  V30 COUNTS 79 86 0 0 1
M  V30 BEGIN ATOM
M  V30 1 F 8.517251 1.986893 -18.246440 0
M  V30 2 C 11.652512 8.659045 -7.115325 0 CFG=1
M  V30 3 C 10.238338 6.883611 -10.062099 0 CFG=2
M  V30 4 C 11.487416 6.672383 -5.040894 0 CFG=2
M  V30 5 C 8.985607 5.274428 -14.145204 0 CFG=1
M  V30 6 C 13.074711 8.427142 -7.599641 0
M  V30 7 C 8.482719 6.080795 -11.680776 0 CFG=2
M  V30 8 C 7.389437 4.574380 -16.961202 0 CFG=1
M  V30 9 C 9.892957 8.318822 -10.381192 0
M  V30 10 C 7.524574 5.012316 -14.465185 0 CFG=1
M  V30 11 C 11.131258 9.357644 -5.146417 0 CFG=1
M  V30 12 C 8.448015 5.575562 -9.172100 0
M  V30 13 C 11.386944 8.027911 -5.729872 0 CFG=1
M  V30 14 O 11.768125 9.681562 -3.934319 0
M  V30 15 C 9.015035 3.261937 -18.448326 0 CFG=1
M  V30 16 C 9.447255 5.773401 -12.800851 0 CFG=1
M  V30 17 O 9.515047 4.393790 -13.145683 0
M  V30 18 N 9.215366 5.860106 -10.398174 0 CFG=2 CHG=1
M  V30 19 O 12.575335 5.990275 -2.958043 0
M  V30 20 C 9.024803 3.672326 -19.869837 0
M  V30 21 O 10.268567 7.146885 -5.603603 0
M  V30 22 C 6.610926 5.536873 -13.315478 0
M  V30 23 C 11.567921 10.049778 -6.381609 0
M  V30 24 N 10.641247 8.302236 -8.150677 0
M  V30 25 C 11.421076 6.549510 -3.524738 0
M  V30 26 N 6.576429 5.134803 -18.070702 0 CHG=1
M  V30 27 C 7.177639 5.274782 -11.893630 0
M  V30 28 C 5.758488 6.248126 -17.559413 0
M  V30 29 C 5.921019 6.199889 -16.045352 0
M  V30 30 O 8.504491 4.735255 -20.208473 0
M  V30 31 C 9.214170 6.199832 -7.998480 0
M  V30 32 C 8.857526 4.327564 -17.371734 0
M  V30 33 O 10.190333 3.413650 -19.316098 0
M  V30 34 N 7.227607 5.542837 -15.836134 0 CFG=2 CHG=1
M  V30 35 C 10.858501 8.955251 -9.423476 0
M  V30 36 C 12.569700 5.992107 -1.569900 0
M  V30 37 C 10.478734 6.890724 -8.545113 0 CFG=1
M  V30 38 H 11.177757 6.790306 -10.603910 0
M  V30 39 H 11.904800 5.828401 -5.584446 0
M  V30 40 H 9.663314 5.439511 -14.979432 0
M  V30 41 H 13.776697 8.790231 -6.857806 0
M  V30 42 H 13.282150 7.387645 -7.810892 0
M  V30 43 H 13.337498 9.006504 -8.480770 0
M  V30 44 H 8.187940 7.126177 -11.762288 0
M  V30 45 H 6.952255 3.618109 -16.674779 0
M  V30 46 H 8.881283 8.603569 -10.116555 0
M  V30 47 H 10.070904 8.554298 -11.428392 0
M  V30 48 H 7.398640 3.928521 -14.487331 0
M  V30 49 H 10.068194 9.553610 -5.184964 0
M  V30 50 H 8.352511 4.498089 -9.044468 0
M  V30 51 H 7.443056 5.974367 -9.221396 0
M  V30 52 H 12.655056 9.357971 -3.988388 0
M  V30 53 H 10.407716 6.284895 -12.777330 0
M  V30 54 H 5.620760 5.084537 -13.394533 0
M  V30 55 H 6.463732 6.612497 -13.418930 0
M  V30 56 H 10.780341 10.792118 -6.385025 0
M  V30 57 H 12.526601 10.547793 -6.241992 0
M  V30 58 H 11.375258 7.531515 -3.078746 0
M  V30 59 H 10.529934 5.990526 -3.245585 0
M  V30 60 H 5.972760 4.410422 -18.439379 0
M  V30 61 H 7.344849 4.206266 -11.746645 0
M  V30 62 H 6.426087 5.573378 -11.163401 0
M  V30 63 H 4.714757 6.166411 -17.870336 0
M  V30 64 H 6.153986 7.185013 -17.957148 0
M  V30 65 H 5.120096 5.599816 -15.615487 0
M  V30 66 H 5.879298 7.193494 -15.600780 0
M  V30 67 H 9.456753 5.439130 -7.256255 0
M  V30 68 H 8.575058 6.933516 -7.506993 0
M  V30 69 H 9.328946 5.260235 -17.688007 0
M  V30 70 H 9.435153 3.965116 -16.524729 0
M  V30 71 H 10.707398 9.992368 -9.350500 0
M  V30 72 H 11.860220 8.800295 -9.818521 0
M  V30 73 H 13.377985 5.377628 -1.178686 0
M  V30 74 H 12.722719 7.010873 -1.212582 0
M  V30 75 H 11.631732 5.591259 -1.184993 0
M  V30 76 H 11.365097 6.308055 -8.302812 0
M  V30 77 H 9.734194 5.003845 -10.537429 0
M  V30 78 H 7.175056 5.464536 -18.822259 0
M  V30 79 H 7.904830 6.276192 -15.990937 0
M  V30 END ATOM
M  V30 BEGIN BOND
M  V30 1 1 2 6 CFG=3
M  V30 2 1 9 3
M  V30 3 1 10 5
M  V30 4 1 13 2
M  V30 5 1 13 4
M  V30 6 1 13 11
M  V30 7 1 14 11
M  V30 8 1 15 1 CFG=3
M  V30 9 1 16 5
M  V30 10 1 16 7
M  V30 11 1 17 5
M  V30 12 1 17 16
M  V30 13 1 18 3
M  V30 14 1 18 7
M  V30 15 1 18 12
M  V30 16 1 20 15
M  V30 17 1 21 4
M  V30 18 1 13 21 CFG=3
M  V30 19 1 22 10
M  V30 20 1 23 2
M  V30 21 1 23 11
M  V30 22 1 24 2
M  V30 23 1 25 4
M  V30 24 1 25 19
M  V30 25 1 26 8
M  V30 26 1 27 7
M  V30 27 1 27 22
M  V30 28 1 28 26
M  V30 29 1 29 28
M  V30 30 2 30 20
M  V30 31 1 31 12
M  V30 32 1 32 8
M  V30 33 1 32 15
M  V30 34 1 33 15
M  V30 35 1 33 20
M  V30 36 1 34 8
M  V30 37 1 34 10
M  V30 38 1 34 29
M  V30 39 1 35 9
M  V30 40 1 35 24
M  V30 41 1 36 19
M  V30 42 1 37 3
M  V30 43 1 37 24
M  V30 44 1 37 31
M  V30 45 1 3 38 CFG=3
M  V30 46 1 4 39 CFG=3
M  V30 47 1 5 40 CFG=3
M  V30 48 1 41 6
M  V30 49 1 42 6
M  V30 50 1 43 6
M  V30 51 1 7 44 CFG=3
M  V30 52 1 8 45 CFG=1
M  V30 53 1 46 9
M  V30 54 1 47 9
M  V30 55 1 10 48 CFG=3
M  V30 56 1 11 49 CFG=1
M  V30 57 1 50 12
M  V30 58 1 51 12
M  V30 59 1 52 14
M  V30 60 1 16 53 CFG=3
M  V30 61 1 54 22
M  V30 62 1 55 22
M  V30 63 1 56 23
M  V30 64 1 57 23
M  V30 65 1 58 25
M  V30 66 1 59 25
M  V30 67 1 60 26
M  V30 68 1 61 27
M  V30 69 1 62 27
M  V30 70 1 63 28
M  V30 71 1 64 28
M  V30 72 1 65 29
M  V30 73 1 66 29
M  V30 74 1 67 31
M  V30 75 1 68 31
M  V30 76 1 69 32
M  V30 77 1 70 32
M  V30 78 1 71 35
M  V30 79 1 72 35
M  V30 80 1 73 36
M  V30 81 1 74 36
M  V30 82 1 75 36
M  V30 83 1 37 76 CFG=3
M  V30 84 1 18 77 CFG=3
M  V30 85 1 78 26
M  V30 86 1 34 79 CFG=3
M  V30 END BOND
M  V30 END CTAB
M  END
>  <i_epik_Tot_Q>  (1) 
3

>  <i_epik_Tot_abs_Q>  (1) 
3

>  <i_i_glide_confnum>  (1) 
153

>  <i_i_glide_lignum>  (1) 
81

>  <i_i_glide_posenum>  (1) 
79

>  <i_i_glide_rotatable_bonds>  (1) 
8

>  <i_lp_mmshare_version>  (1) 
72125

>  <i_m_source_file_index>  (1) 
29

>  <i_f3d_flags>  (1) 
0

>  <num_sample>  (1) 
50

>  <b_lp_Chiralities_Consistent>  (1) 
1

>  <r_epik_Charging_Adjusted_Penalty>  (1) 
2.5241965566360229

>  <r_epik_Ionization_Penalty>  (1) 
2.0480993089750741

>  <r_epik_Ionization_Penalty_Charging>  (1) 
2.0477503768466887

>  <r_epik_Ionization_Penalty_Neutral>  (1) 
0.00034893212838530931

>  <r_epik_State_Penalty>  (1) 
0.4764461797893344

>  <r_glide_ring_energy>  (1) 
0.81914574756083636

>  <r_i_docking_score>  (1) 
-3.76976804993912

>  <r_i_glide_ecoul>  (1) 
-2.7098486415862357

>  <r_i_glide_eff_state_penalty>  (1) 
0.4764461797893344

>  <r_i_glide_einternal>  (1) 
12.720173823105966

>  <r_i_glide_emodel>  (1) 
-19.061154826802753

>  <r_i_glide_emodel_strain>  (1) 
5.1708987083083002

>  <r_i_glide_energy>  (1) 
-22.604246543500793

>  <r_i_glide_erotb>  (1) 
0.44698704239028575

>  <r_i_glide_esite>  (1) 
-0.062852507750710523

>  <r_i_glide_evdw>  (1) 
-19.894397901914555

>  <r_i_glide_gscore>  (1) 
-4.2462142297284542

>  <r_i_glide_gscore_strain>  (1) 
0.29272467707707506

>  <r_i_glide_hbond>  (1) 
0

>  <r_i_glide_ligand_efficiency>  (1) 
-0.10188562297132757

>  <r_i_glide_ligand_efficiency_ln>  (1) 
-0.81757431412984549

>  <r_i_glide_ligand_efficiency_sa>  (1) 
-0.33950549923361867

>  <r_i_glide_lipo>  (1) 
-2.4818402298126485

>  <r_i_glide_metal>  (1) 
-0

>  <r_i_glide_rewards>  (1) 
-1.0400360202987928

>  <r_lp_Energy>  (1) 
75.273594000000003

>  <s_epik_Chemistry_Notes>  (1) 
This compound has an ester and may undergo hydrolysis at high or low pH. This compound contains an acetal/aminal-like group ( X-CH(R)-Y where X, Y are N, S, or O) that may be acid/base labile, releasing an aldehyde.

>  <s_epik_cmdline>  (1) 
J2VwaWtfcHl0aG9uJywgJy1waHQnLCAnMS4wJywgJy1waCcsICc3LjQnLCAnLXRuJywgJzgnLCAnLW1hJywgJzUwMCcsICctaW1hZScsICc8aW5maWxlLm1hZT4nLCAnLW9tYWUnLCAnPG91dGZpbGUubWFlPic=

>  <s_epik_input>  (1) 
Tz1DKE8xKUMxKEYpW0NIMl1bQ0BASF0yW05IXVtDSDJdW0NIMl1OMltDQEBIXTNbQ0gyXVtDSDJdW0NASF0oW0NAQEhdKE80KVtDQEhdMzQpTjVbQ0gyXVtDSDJdW0NAQEhdKFtDQEhdNTYpTihbQ0gyXVtDSDJdNilbQ0BAXShbQ0gzXSkoW0NIMl1bQ0BASF03W09IXSlbQ0BAXTc4W0NASF0oTzgpW0NIMl1PW0NIM10=

>  <s_glide_docking_method>  (1) 
confgen

>  <s_i_glide_gridfile>  (1) 
gpcr_drd2_6luq_protein_autoprepared_prepared

>  <s_lp_Force_Field>  (1) 
S-OPLS

>  <s_lp_Variant>  (1) 
DiffSBDD_28-4

>  <s_m_source_file>  (1) 
generated_generic_title2_ligand_DiffSBDD_2026-06-23_prepared.sdf

>  <GenAI_Model>  (1) 
DiffSBDD

>  <Protein>  (1) 
generic_title2

$$$$
DiffSBDD_38
     RDKit          3D

  0  0  0  0  0  0  0  0  0  0999 V3000
M  V30 BEGIN CTAB
M  V30 COUNTS 55 57 0 0 1
M  V30 BEGIN ATOM
M  V30 1 C 9.383846 7.982337 -11.487220 0
M  V30 2 C 10.176267 7.317630 -8.292768 0
M  V30 3 N 9.941756 6.650515 -9.559191 0
M  V30 4 C 6.179128 5.589787 -16.850455 0 CFG=2
M  V30 5 C 6.311879 5.000504 -18.242979 0 CFG=1
M  V30 6 C 7.061107 6.259567 -17.879160 0
M  V30 7 C 8.695864 7.092800 -12.491950 0
M  V30 8 C 7.565987 4.983379 -13.222352 0
M  V30 9 C 5.447725 6.214800 -13.890444 0
M  V30 10 C 11.174817 8.213018 -8.126630 0
M  V30 11 C 9.148116 7.065957 -7.196408 0
M  V30 12 C 6.830420 5.742292 -14.360948 0 CFG=2
M  V30 13 C 10.253458 8.843643 -5.823111 0
M  V30 14 C 7.997595 5.821705 -11.987235 0 CFG=1
M  V30 15 C 6.759078 4.876703 -15.627384 0
M  V30 16 C 10.518026 7.239665 -10.783743 0
M  V30 17 C 8.948073 8.414187 -6.494747 0
M  V30 18 C 8.909387 4.950324 -11.078533 0
M  V30 19 C 7.062898 3.710479 -18.516369 0
M  V30 20 C 11.384988 8.982353 -6.838087 0
M  V30 21 C 9.180851 5.497928 -9.658270 0
M  V30 22 O 8.733497 4.886833 -8.687316 0
M  V30 23 H 9.775326 8.814410 -12.056935 0
M  V30 24 H 8.669111 8.413707 -10.784848 0
M  V30 25 H 5.213928 6.057143 -16.670864 0
M  V30 26 H 5.440219 5.128865 -18.882024 0
M  V30 27 H 6.707105 7.189501 -18.316350 0
M  V30 28 H 8.140179 6.180204 -17.763038 0
M  V30 29 H 9.462592 6.766823 -13.183082 0
M  V30 30 H 7.996132 7.734106 -13.024834 0
M  V30 31 H 8.465360 4.532213 -13.645567 0
M  V30 32 H 6.951655 4.144416 -12.892944 0
M  V30 33 H 4.792877 5.362313 -13.711519 0
M  V30 34 H 5.509406 6.789606 -12.966496 0
M  V30 35 H 4.978193 6.867727 -14.623733 0
M  V30 36 H 11.876695 8.414125 -8.908219 0
M  V30 37 H 8.176147 6.784387 -7.564099 0
M  V30 38 H 9.492993 6.300638 -6.500077 0
M  V30 39 H 7.404160 6.610902 -14.675405 0
M  V30 40 H 10.175333 9.774550 -5.264369 0
M  V30 41 H 10.527605 8.080609 -5.093462 0
M  V30 42 H 7.113010 6.111529 -11.416195 0
M  V30 43 H 7.764497 4.535934 -15.874144 0
M  V30 44 H 6.186532 3.979690 -15.403869 0
M  V30 45 H 11.323646 7.949394 -10.672255 0
M  V30 46 H 10.972563 6.501070 -11.442807 0
M  V30 47 H 8.650086 9.158836 -7.234899 0
M  V30 48 H 8.116893 8.390496 -5.810565 0
M  V30 49 H 9.840498 4.686012 -11.577715 0
M  V30 50 H 8.409036 3.991872 -10.932937 0
M  V30 51 H 7.996823 3.665754 -17.956235 0
M  V30 52 H 6.451162 2.851137 -18.242246 0
M  V30 53 H 7.298486 3.639318 -19.577467 0
M  V30 54 H 12.221382 8.558690 -6.331885 0
M  V30 55 H 11.608027 10.022243 -7.057575 0
M  V30 END ATOM
M  V30 BEGIN BOND
M  V30 1 1 3 2
M  V30 2 1 5 4
M  V30 3 1 6 4
M  V30 4 1 6 5
M  V30 5 1 7 1
M  V30 6 2 10 2
M  V30 7 1 11 2
M  V30 8 1 12 8
M  V30 9 1 12 9
M  V30 10 1 14 7
M  V30 11 1 14 8
M  V30 12 1 15 4
M  V30 13 1 15 12
M  V30 14 1 16 1
M  V30 15 1 16 3
M  V30 16 1 17 11
M  V30 17 1 17 13
M  V30 18 1 18 14
M  V30 19 1 19 5
M  V30 20 1 20 10
M  V30 21 1 20 13
M  V30 22 1 21 3
M  V30 23 1 21 18
M  V30 24 2 22 21
M  V30 25 1 23 1
M  V30 26 1 24 1
M  V30 27 1 4 25 CFG=1
M  V30 28 1 5 26 CFG=3
M  V30 29 1 27 6
M  V30 30 1 28 6
M  V30 31 1 29 7
M  V30 32 1 30 7
M  V30 33 1 31 8
M  V30 34 1 32 8
M  V30 35 1 33 9
M  V30 36 1 34 9
M  V30 37 1 35 9
M  V30 38 1 36 10
M  V30 39 1 37 11
M  V30 40 1 38 11
M  V30 41 1 12 39 CFG=3
M  V30 42 1 40 13
M  V30 43 1 41 13
M  V30 44 1 14 42 CFG=1
M  V30 45 1 43 15
M  V30 46 1 44 15
M  V30 47 1 45 16
M  V30 48 1 46 16
M  V30 49 1 47 17
M  V30 50 1 48 17
M  V30 51 1 49 18
M  V30 52 1 50 18
M  V30 53 1 51 19
M  V30 54 1 52 19
M  V30 55 1 53 19
M  V30 56 1 54 20
M  V30 57 1 55 20
M  V30 END BOND
M  V30 END CTAB
M  END
>  <i_epik_Tot_Q>  (1) 
0

>  <i_epik_Tot_abs_Q>  (1) 
0

>  <i_i_glide_confnum>  (1) 
402

>  <i_i_glide_lignum>  (1) 
103

>  <i_i_glide_posenum>  (1) 
315

>  <i_i_glide_rotatable_bonds>  (1) 
5

>  <i_lp_mmshare_version>  (1) 
72125

>  <i_m_source_file_index>  (1) 
39

>  <i_f3d_flags>  (1) 
0

>  <num_sample>  (1) 
50

>  <b_lp_Chiralities_Consistent>  (1) 
1

>  <r_epik_Charging_Adjusted_Penalty>  (1) 
0

>  <r_epik_Ionization_Penalty>  (1) 
3.750095861585333e-08

>  <r_epik_Ionization_Penalty_Charging>  (1) 
0

>  <r_epik_Ionization_Penalty_Neutral>  (1) 
3.750095861585333e-08

>  <r_epik_State_Penalty>  (1) 
-0

>  <r_glide_ring_energy>  (1) 
0.00030315173059249431

>  <r_i_docking_score>  (1) 
-3.7516974325702184

>  <r_i_glide_ecoul>  (1) 
0.052166612301037973

>  <r_i_glide_eff_state_penalty>  (1) 
-0

>  <r_i_glide_einternal>  (1) 
4.7230550961151962

>  <r_i_glide_emodel>  (1) 
-19.750528409605142

>  <r_i_glide_emodel_strain>  (1) 
3.5028042198661069

>  <r_i_glide_energy>  (1) 
-22.43162693956257

>  <r_i_glide_erotb>  (1) 
1.0003538244760346

>  <r_i_glide_esite>  (1) 
-0.12744569382997498

>  <r_i_glide_evdw>  (1) 
-22.483793551863606

>  <r_i_glide_gscore>  (1) 
-3.7516974325702184

>  <r_i_glide_gscore_strain>  (1) 
0

>  <r_i_glide_hbond>  (1) 
0

>  <r_i_glide_ligand_efficiency>  (1) 
-0.17053170148046448

>  <r_i_glide_ligand_efficiency_ln>  (1) 
-0.91705169900900663

>  <r_i_glide_ligand_efficiency_sa>  (1) 
-0.477836534671845

>  <r_i_glide_lipo>  (1) 
-1.3748437264967077

>  <r_i_glide_metal>  (1) 
-0

>  <r_i_glide_rewards>  (1) 
-2.1333971509715455

>  <r_lp_Energy>  (1) 
35.460141

>  <r_lp_tautomer_probability>  (1) 
1

>  <s_epik_cmdline>  (1) 
J2VwaWtfcHl0aG9uJywgJy1waHQnLCAnMS4wJywgJy1waCcsICc3LjQnLCAnLXRuJywgJzgnLCAnLW1hJywgJzUwMCcsICctaW1hZScsICc8aW5maWxlLm1hZT4nLCAnLW9tYWUnLCAnPG91dGZpbGUubWFlPic=

>  <s_epik_input>  (1) 
W0NIMl0xW0NIMl1bQ0gyXVtDSDJdW0NIXT1DMU4yW0NIMl1bQ0gyXVtDSDJdW0NASF0oW0NIMl1DMj1PKVtDSDJdW0NASF0oW0NIM10pW0NIMl1bQ0BASF0zW0NAQEhdKFtDSDJdMylbQ0gzXQ==

>  <s_glide_docking_method>  (1) 
confgen

>  <s_i_glide_gridfile>  (1) 
gpcr_drd2_6luq_protein_autoprepared_prepared

>  <s_lp_Force_Field>  (1) 
S-OPLS

>  <s_lp_Variant>  (1) 
DiffSBDD_38-1

>  <s_m_source_file>  (1) 
generated_generic_title2_ligand_DiffSBDD_2026-06-23_prepared.sdf

>  <GenAI_Model>  (1) 
DiffSBDD

>  <Protein>  (1) 
generic_title2

$$$$
DiffSBDD_48
     RDKit          3D

  0  0  0  0  0  0  0  0  0  0999 V3000
M  V30 BEGIN CTAB
M  V30 COUNTS 43 43 0 0 1
M  V30 BEGIN ATOM
M  V30 1 C 7.826890 4.702979 -13.006835 0 CFG=2
M  V30 2 C 5.258990 6.208035 -18.853692 0
M  V30 3 C 6.787338 5.371226 -13.953481 0 CFG=2
M  V30 4 C 6.691950 6.117593 -16.429381 0
M  V30 5 O 9.427070 6.412396 -11.025939 0 CHG=-1
M  V30 6 O 7.052532 2.210706 -15.179577 0
M  V30 7 F 5.414621 7.986789 -15.641113 0
M  V30 8 C 8.216809 4.390228 -10.601202 0
M  V30 9 C 6.975410 5.190227 -17.454068 0
M  V30 10 C 8.392586 3.365377 -13.543721 0
M  V30 11 C 7.375409 2.314152 -13.995471 0
M  V30 12 C 7.485297 6.079396 -15.135569 0
M  V30 13 C 9.073125 5.590225 -10.151462 0
M  V30 14 C 5.243670 7.990227 -11.812323 0
M  V30 15 C 4.970800 7.133392 -17.830828 0
M  V30 16 C 6.784508 1.395994 -12.919999 0
M  V30 17 O 9.375425 5.640371 -8.938119 0
M  V30 18 O 7.296085 4.563855 -11.690044 0
M  V30 19 O 5.949250 0.403706 -13.493917 0
M  V30 20 C 6.401876 7.281018 -12.492410 0
M  V30 21 O 5.863406 6.231974 -13.289540 0
M  V30 22 F 4.575428 6.253567 -20.020403 0
M  V30 23 C 6.258635 5.236342 -18.664094 0
M  V30 24 C 5.686800 7.090239 -16.619043 0
M  V30 25 H 8.667817 5.387870 -12.977524 0
M  V30 26 H 6.140409 4.599302 -14.365548 0
M  V30 27 H 7.611337 4.083758 -9.748258 0
M  V30 28 H 8.918152 3.589934 -10.812627 0
M  V30 29 H 7.745568 4.445344 -17.312374 0
M  V30 30 H 9.085964 2.914349 -12.835417 0
M  V30 31 H 8.975409 3.604448 -14.429673 0
M  V30 32 H 7.775418 7.091411 -14.864545 0
M  V30 33 H 8.425224 5.575959 -15.360678 0
M  V30 34 H 5.626007 8.790224 -11.185027 0
M  V30 35 H 4.575410 8.420841 -12.550684 0
M  V30 36 H 4.676913 7.307187 -11.180093 0
M  V30 37 H 4.203957 7.879083 -17.977571 0
M  V30 38 H 6.208812 1.990803 -12.210119 0
M  V30 39 H 7.600876 0.912894 -12.384794 0
M  V30 40 H 5.671120 -0.213914 -12.832872 0
M  V30 41 H 7.060696 6.921620 -11.711442 0
M  V30 42 H 6.975408 7.990221 -13.085183 0
M  V30 43 H 6.477547 4.527191 -19.448871 0
M  V30 END ATOM
M  V30 BEGIN BOND
M  V30 1 1 3 1
M  V30 2 1 9 4
M  V30 3 1 10 1
M  V30 4 2 11 6
M  V30 5 1 11 10
M  V30 6 1 12 3
M  V30 7 1 12 4
M  V30 8 1 13 5
M  V30 9 1 13 8
M  V30 10 2 15 2
M  V30 11 1 16 11
M  V30 12 2 17 13
M  V30 13 1 18 1
M  V30 14 1 18 8
M  V30 15 1 19 16
M  V30 16 1 20 14
M  V30 17 1 21 3
M  V30 18 1 21 20
M  V30 19 1 22 2
M  V30 20 1 23 2
M  V30 21 2 23 9
M  V30 22 2 24 4
M  V30 23 1 24 7
M  V30 24 1 24 15
M  V30 25 1 1 25 CFG=1
M  V30 26 1 3 26 CFG=3
M  V30 27 1 27 8
M  V30 28 1 28 8
M  V30 29 1 29 9
M  V30 30 1 30 10
M  V30 31 1 31 10
M  V30 32 1 32 12
M  V30 33 1 33 12
M  V30 34 1 34 14
M  V30 35 1 35 14
M  V30 36 1 36 14
M  V30 37 1 37 15
M  V30 38 1 38 16
M  V30 39 1 39 16
M  V30 40 1 40 19
M  V30 41 1 41 20
M  V30 42 1 42 20
M  V30 43 1 43 23
M  V30 END BOND
M  V30 END CTAB
M  END
>  <i_epik_Tot_Q>  (1) 
-1

>  <i_epik_Tot_abs_Q>  (1) 
1

>  <i_i_glide_confnum>  (1) 
1466

>  <i_i_glide_lignum>  (1) 
127

>  <i_i_glide_posenum>  (1) 
395

>  <i_i_glide_rotatable_bonds>  (1) 
12

>  <i_lp_mmshare_version>  (1) 
72125

>  <i_m_source_file_index>  (1) 
49

>  <i_f3d_flags>  (1) 
0

>  <num_sample>  (1) 
50

>  <b_lp_Chiralities_Consistent>  (1) 
1

>  <r_epik_Charging_Adjusted_Penalty>  (1) 
7.9156217055703786e-05

>  <r_epik_Ionization_Penalty>  (1) 
8.8264238192330274e-05

>  <r_epik_Ionization_Penalty_Charging>  (1) 
7.9156217055703786e-05

>  <r_epik_Ionization_Penalty_Neutral>  (1) 
9.1080211366264862e-06

>  <r_epik_State_Penalty>  (1) 
-0

>  <r_glide_ring_energy>  (1) 
0

>  <r_i_docking_score>  (1) 
-3.7368073070018153

>  <r_i_glide_ecoul>  (1) 
-0.42912378739447687

>  <r_i_glide_eff_state_penalty>  (1) 
-0

>  <r_i_glide_einternal>  (1) 
6.6389972430582453

>  <r_i_glide_emodel>  (1) 
-29.295107682393624

>  <r_i_glide_emodel_strain>  (1) 
1.3690290545458446

>  <r_i_glide_energy>  (1) 
-26.909001946417874

>  <r_i_glide_erotb>  (1) 
1.2745455854061123

>  <r_i_glide_esite>  (1) 
-0.059986230467853452

>  <r_i_glide_evdw>  (1) 
-26.479878159023396

>  <r_i_glide_gscore>  (1) 
-3.7368073070018153

>  <r_i_glide_gscore_strain>  (1) 
0

>  <r_i_glide_hbond>  (1) 
0

>  <r_i_glide_ligand_efficiency>  (1) 
-0.15570030445840896

>  <r_i_glide_ligand_efficiency_ln>  (1) 
-0.89438945947965842

>  <r_i_glide_ligand_efficiency_sa>  (1) 
-0.44911739440374598

>  <r_i_glide_lipo>  (1) 
-1.7234095806151053

>  <r_i_glide_metal>  (1) 
-0

>  <r_i_glide_rewards>  (1) 
-1.8395946052646281

>  <r_lp_Energy>  (1) 
23.232806999999998

>  <r_lp_tautomer_probability>  (1) 
1

>  <s_epik_cmdline>  (1) 
J2VwaWtfcHl0aG9uJywgJy1waHQnLCAnMS4wJywgJy1waCcsICc3LjQnLCAnLXRuJywgJzgnLCAnLW1hJywgJzUwMCcsICctaW1hZScsICc8aW5maWxlLm1hZT4nLCAnLW9tYWUnLCAnPG91dGZpbGUubWFlPic=

>  <s_epik_input>  (1) 
W09IXUMoPU8pW0NIMl1PW0NAQEhdKFtDSDJdQyg9TylbQ0gyXVtPSF0pW0NASF0oT1tDSDJdW0NIM10pW0NIMl1jKFtjSF1bY0hdMSljKEYpW2NIXWMxRg==

>  <s_glide_docking_method>  (1) 
confgen

>  <s_i_glide_gridfile>  (1) 
gpcr_drd2_6luq_protein_autoprepared_prepared

>  <s_lp_Force_Field>  (1) 
S-OPLS

>  <s_lp_Variant>  (1) 
DiffSBDD_48-2

>  <s_m_source_file>  (1) 
generated_generic_title2_ligand_DiffSBDD_2026-06-23_prepared.sdf

>  <GenAI_Model>  (1) 
DiffSBDD

>  <Protein>  (1) 
generic_title2

$$$$
DiffSBDD_1
     RDKit          3D

  0  0  0  0  0  0  0  0  0  0999 V3000
M  V30 BEGIN CTAB
M  V30 COUNTS 89 91 0 0 1
M  V30 BEGIN ATOM
M  V30 1 O 8.497459 5.251773 -12.291196 0
M  V30 2 O 8.175461 5.547970 -8.643648 0
M  V30 3 C 7.816460 2.626130 -16.843212 0 CFG=2
M  V30 4 C 9.743626 1.309714 -18.009499 0
M  V30 5 C 7.745669 -3.169291 -19.003012 0
M  V30 6 C 11.161119 6.819034 -5.267485 0
M  V30 7 C 4.820745 -1.488219 -18.170171 0
M  V30 8 C 9.375337 5.766960 -9.351677 0 CFG=1
M  V30 9 C 8.651683 3.899914 -16.487348 0 CFG=1
M  V30 10 C 5.916823 0.839262 -18.504583 0 CFG=2
M  V30 11 C 9.700557 -0.102580 -18.597677 0
M  V30 12 O 6.571129 4.643236 -19.085620 0 CHG=-1
M  V30 13 C 7.960508 -1.727924 -19.522991 0
M  V30 14 C 7.711509 1.698728 -15.597848 0
M  V30 15 C 9.176620 6.742867 -10.530956 0
M  V30 16 C 5.156797 -2.857573 -18.792253 0
M  V30 17 C 8.318782 1.886804 -18.136083 0 CFG=1
M  V30 18 C 6.447889 -3.479971 -18.236282 0
M  V30 19 C 10.445470 6.219733 -8.339879 0
M  V30 20 C 8.006792 3.645606 -13.981924 0 CFG=2
M  V30 21 C 11.153987 9.246675 -5.974516 0
M  V30 22 F 3.775567 0.267605 -19.185109 0
M  V30 23 C 11.211943 7.791511 -6.461168 0
M  V30 24 C 7.181114 2.415471 -14.348976 0
M  V30 25 C 7.698287 7.511625 -12.451995 0
M  V30 26 F 5.559550 1.963962 -19.122627 0
M  V30 27 O 6.559202 6.393296 -17.275461 0 CHG=-1
M  V30 28 O 7.910150 6.748751 -19.361787 0
M  V30 29 P 7.351558 5.733642 -18.385205 0
M  V30 30 C 10.125099 7.485310 -7.514412 0
M  V30 31 C 8.049798 6.347845 -11.511285 0 CFG=1
M  V30 32 C 7.455038 0.732509 -18.747085 0 CFG=1
M  V30 33 O 8.075264 -1.036309 -17.170333 0
M  V30 34 C 7.460793 4.397440 -12.761294 0
M  V30 35 C 8.841094 4.944504 -17.628270 0
M  V30 36 C 8.239879 -0.586354 -18.495517 0 CFG=2
M  V30 37 C 8.110159 4.578120 -15.204144 0
M  V30 38 C 4.995450 -0.256685 -19.085897 0 CFG=2
M  V30 39 H 7.667445 6.358422 -8.654566 0
M  V30 40 H 6.811989 2.985352 -17.055092 0
M  V30 41 H 10.474731 1.935333 -18.522133 0
M  V30 42 H 10.069580 1.253616 -16.974579 0
M  V30 43 H 7.785805 -3.835185 -19.865643 0
M  V30 44 H 8.575372 -3.466713 -18.366966 0
M  V30 45 H 10.170970 6.792081 -4.814330 0
M  V30 46 H 11.413139 5.802320 -5.565789 0
M  V30 47 H 11.865754 7.105781 -4.486570 0
M  V30 48 H 3.775172 -1.531516 -17.865378 0
M  V30 49 H 5.348497 -1.344800 -17.228122 0
M  V30 50 H 9.679579 4.801587 -9.758228 0
M  V30 51 H 9.664220 3.578292 -16.256988 0
M  V30 52 H 5.671346 0.990036 -17.456761 0
M  V30 53 H 10.003168 -0.030501 -19.643510 0
M  V30 54 H 10.406594 -0.775807 -18.109327 0
M  V30 55 H 7.140889 -1.465924 -20.183429 0
M  V30 56 H 8.802685 -1.782280 -20.213473 0
M  V30 57 H 8.672405 1.256007 -15.351949 0
M  V30 58 H 7.051036 0.858861 -15.795547 0
M  V30 59 H 8.975534 7.737902 -10.138459 0
M  V30 60 H 10.112105 6.839257 -11.083322 0
M  V30 61 H 5.157110 -2.832298 -19.882310 0
M  V30 62 H 4.341950 -3.534946 -18.530028 0
M  V30 63 H 8.343627 2.640063 -18.922636 0
M  V30 64 H 6.329033 -4.564170 -18.233979 0
M  V30 65 H 6.562931 -3.227305 -17.184363 0
M  V30 66 H 10.636113 5.387513 -7.664144 0
M  V30 67 H 11.375434 6.390267 -8.874743 0
M  V30 68 H 8.975416 3.285265 -13.677022 0
M  V30 69 H 10.175682 9.489374 -5.566687 0
M  V30 70 H 11.895455 9.432275 -5.196957 0
M  V30 71 H 11.365762 9.942232 -6.785074 0
M  V30 72 H 12.175354 7.670824 -6.951742 0
M  V30 73 H 7.138845 1.720210 -13.510000 0
M  V30 74 H 6.175351 2.746045 -14.540011 0
M  V30 75 H 7.353836 8.380297 -11.889971 0
M  V30 76 H 8.566130 7.815694 -13.035943 0
M  V30 77 H 6.907214 7.241037 -13.150466 0
M  V30 78 H 10.035919 8.332323 -8.194279 0
M  V30 79 H 9.154672 7.392571 -7.023802 0
M  V30 80 H 7.157818 6.061290 -10.951818 0
M  V30 81 H 7.551416 0.869520 -19.826580 0
M  V30 82 H 7.265474 -1.518408 -17.101780 0
M  V30 83 H 7.188891 3.707954 -11.961884 0
M  V30 84 H 6.558611 4.946750 -13.034355 0
M  V30 85 H 9.471970 5.745099 -17.243999 0
M  V30 86 H 9.436530 4.501779 -18.424067 0
M  V30 87 H 7.115031 4.973627 -15.395517 0
M  V30 88 H 8.735013 5.436185 -14.955272 0
M  V30 89 H 5.252638 -0.504907 -20.114146 0
M  V30 END ATOM
M  V30 BEGIN BOND
M  V30 1 1 8 2
M  V30 2 1 9 3
M  V30 3 1 11 4
M  V30 4 1 13 5
M  V30 5 1 14 3
M  V30 6 1 15 8
M  V30 7 1 16 7
M  V30 8 1 17 3
M  V30 9 1 17 4
M  V30 10 1 18 5
M  V30 11 1 18 16
M  V30 12 1 19 8
M  V30 13 1 23 6
M  V30 14 1 23 21
M  V30 15 1 24 14
M  V30 16 1 24 20
M  V30 17 1 26 10
M  V30 18 1 29 12
M  V30 19 1 29 27
M  V30 20 2 29 28
M  V30 21 1 30 19
M  V30 22 1 30 23
M  V30 23 1 31 1
M  V30 24 1 31 15
M  V30 25 1 31 25
M  V30 26 1 32 10
M  V30 27 1 32 17
M  V30 28 1 34 1
M  V30 29 1 34 20
M  V30 30 1 35 9
M  V30 31 1 35 29
M  V30 32 1 36 11
M  V30 33 1 36 13
M  V30 34 1 36 32
M  V30 35 1 36 33 CFG=1
M  V30 36 1 37 9
M  V30 37 1 37 20
M  V30 38 1 38 7
M  V30 39 1 38 10
M  V30 40 1 38 22
M  V30 41 1 39 2
M  V30 42 1 3 40 CFG=3
M  V30 43 1 41 4
M  V30 44 1 42 4
M  V30 45 1 43 5
M  V30 46 1 44 5
M  V30 47 1 45 6
M  V30 48 1 46 6
M  V30 49 1 47 6
M  V30 50 1 48 7
M  V30 51 1 49 7
M  V30 52 1 8 50 CFG=3
M  V30 53 1 9 51 CFG=1
M  V30 54 1 10 52 CFG=1
M  V30 55 1 53 11
M  V30 56 1 54 11
M  V30 57 1 55 13
M  V30 58 1 56 13
M  V30 59 1 57 14
M  V30 60 1 58 14
M  V30 61 1 59 15
M  V30 62 1 60 15
M  V30 63 1 61 16
M  V30 64 1 62 16
M  V30 65 1 17 63 CFG=3
M  V30 66 1 64 18
M  V30 67 1 65 18
M  V30 68 1 66 19
M  V30 69 1 67 19
M  V30 70 1 20 68 CFG=1
M  V30 71 1 69 21
M  V30 72 1 70 21
M  V30 73 1 71 21
M  V30 74 1 72 23
M  V30 75 1 73 24
M  V30 76 1 74 24
M  V30 77 1 75 25
M  V30 78 1 76 25
M  V30 79 1 77 25
M  V30 80 1 78 30
M  V30 81 1 79 30
M  V30 82 1 31 80 CFG=1
M  V30 83 1 32 81 CFG=3
M  V30 84 1 82 33
M  V30 85 1 83 34
M  V30 86 1 84 34
M  V30 87 1 85 35
M  V30 88 1 86 35
M  V30 89 1 87 37
M  V30 90 1 88 37
M  V30 91 1 38 89 CFG=3
M  V30 END BOND
M  V30 END CTAB
M  END
>  <i_epik_Tot_Q>  (1) 
-2

>  <i_epik_Tot_abs_Q>  (1) 
2

>  <i_i_glide_confnum>  (1) 
1930

>  <i_i_glide_lignum>  (1) 
19

>  <i_i_glide_posenum>  (1) 
259

>  <i_i_glide_rotatable_bonds>  (1) 
13

>  <i_lp_mmshare_version>  (1) 
72125

>  <i_m_source_file_index>  (1) 
2

>  <i_f3d_flags>  (1) 
0

>  <num_sample>  (1) 
50

>  <b_lp_Chiralities_Consistent>  (1) 
1

>  <r_epik_Charging_Adjusted_Penalty>  (1) 
1.8994269935217587

>  <r_epik_Ionization_Penalty>  (1) 
0.94971411018702601

>  <r_epik_Ionization_Penalty_Charging>  (1) 
0.94971349676087924

>  <r_epik_Ionization_Penalty_Neutral>  (1) 
6.1342614676121867e-07

>  <r_epik_State_Penalty>  (1) 
0.94971349676087935

>  <r_glide_ring_energy>  (1) 
0

>  <r_i_docking_score>  (1) 
-3.7296953316090082

>  <r_i_glide_ecoul>  (1) 
-1.2927833985908603

>  <r_i_glide_eff_state_penalty>  (1) 
0.94971349676087935

>  <r_i_glide_einternal>  (1) 
10.941136285666827

>  <r_i_glide_emodel>  (1) 
-38.471463037426517

>  <r_i_glide_emodel_strain>  (1) 
0.79935904100538835

>  <r_i_glide_energy>  (1) 
-35.1273778722313

>  <r_i_glide_erotb>  (1) 
0.50299043937721266

>  <r_i_glide_esite>  (1) 
0

>  <r_i_glide_evdw>  (1) 
-33.834594473640436

>  <r_i_glide_gscore>  (1) 
-4.6794088283698878

>  <r_i_glide_gscore_strain>  (1) 
0

>  <r_i_glide_hbond>  (1) 
-0.24522326767316396

>  <r_i_glide_ligand_efficiency>  (1) 
-0.09814987714760548

>  <r_i_glide_ligand_efficiency_ln>  (1) 
-0.8042320300156014

>  <r_i_glide_ligand_efficiency_sa>  (1) 
-0.32997747315058928

>  <r_i_glide_lipo>  (1) 
-2.3904141682525752

>  <r_i_glide_metal>  (1) 
-0

>  <r_i_glide_rewards>  (1) 
-0.66111459835071118

>  <r_lp_Energy>  (1) 
46.940445999999994

>  <s_epik_cmdline>  (1) 
J2VwaWtfcHl0aG9uJywgJy1waHQnLCAnMS4wJywgJy1waCcsICc3LjQnLCAnLXRuJywgJzgnLCAnLW1hJywgJzUwMCcsICctaW1hZScsICc8aW5maWxlLm1hZT4nLCAnLW9tYWUnLCAnPG91dGZpbGUubWFlPic=

>  <s_epik_input>  (1) 
W0NIM11bQ0hdKFtDSDNdKVtDSDJdW0NIMl1bQ0BASF0oW09IXSlbQ0gyXVtDQEBIXShbQ0gzXSlPW0NIMl1bQ0BASF0oW0NIMl1bQ0gyXTEpW0NIMl1bQ0BIXShbQ0gyXVAoPU8pKFtPSF0pW09IXSlbQ0BIXTFbQ0BASF0oW0NIMl1bQ0gyXTIpW0NAQEhdKFtDQF0yM1tPSF0pW0NAQEhdKEYpW0NASF0oRilbQ0gyXVtDSDJdW0NIMl1bQ0gyXVtDSDJdMw==

>  <s_glide_docking_method>  (1) 
confgen

>  <s_i_glide_gridfile>  (1) 
gpcr_drd2_6luq_protein_autoprepared_prepared

>  <s_lp_Force_Field>  (1) 
S-OPLS

>  <s_lp_Variant>  (1) 
DiffSBDD_1-3

>  <s_m_source_file>  (1) 
generated_generic_title2_ligand_DiffSBDD_2026-06-23_prepared.sdf

>  <GenAI_Model>  (1) 
DiffSBDD

>  <Protein>  (1) 
generic_title2

$$$$
DiffSBDD_18
     RDKit          3D

  0  0  0  0  0  0  0  0  0  0999 V3000
M  V30 BEGIN CTAB
M  V30 COUNTS 61 65 0 0 1
M  V30 BEGIN ATOM
M  V30 1 C 5.749498 -0.653627 -16.723882 0
M  V30 2 C 10.417744 0.600981 -20.393554 0
M  V30 3 C 7.326576 2.371606 -16.125124 0 CFG=2
M  V30 4 C 7.671199 0.892706 -15.836458 0 CFG=2
M  V30 5 C 12.586585 3.379891 -18.962928 0 CFG=2
M  V30 6 C 12.599889 3.099947 -20.473747 0
M  V30 7 C 9.698502 0.997490 -19.088537 0 CFG=1
M  V30 8 C 7.116386 0.006211 -17.003442 0 CFG=1
M  V30 9 C 6.725113 3.144674 -13.727241 0
M  V30 10 O 12.356933 1.068277 -18.143715 0
M  V30 11 O 8.393888 1.201424 -19.585016 0
M  V30 12 C 7.933452 1.073732 -13.265374 0
M  V30 13 O 14.351586 -0.279989 -18.405651 0
M  V30 14 S 9.807622 -0.409784 -17.921127 0
M  V30 15 C 14.012906 3.505465 -18.408936 0
M  V30 16 C 8.118707 -1.021660 -17.577509 0
M  V30 17 C 7.221032 0.390162 -14.442185 0
M  V30 18 O 7.904911 2.799266 -17.366633 0
M  V30 19 C 14.444695 1.520265 -16.785053 0
M  V30 20 O 7.339214 2.275485 -12.790533 0
M  V30 21 C 7.543316 3.407461 -14.996496 0
M  V30 22 C 9.311451 3.040849 -17.412778 0 CFG=2
M  V30 23 C 13.770146 0.933252 -17.989225 0 CFG=2
M  V30 24 C 9.542414 3.663364 -18.756768 0
M  V30 25 C 10.215354 2.326164 -18.437053 0 CFG=2
M  V30 26 C 11.749108 2.363749 -18.122752 0 CFG=2
M  V30 27 C 14.641374 2.158009 -18.153547 0 CFG=1
M  V30 28 H 5.811885 -1.434914 -15.966503 0
M  V30 29 H 5.014279 0.079775 -16.391309 0
M  V30 30 H 5.350886 -1.117599 -17.626592 0
M  V30 31 H 10.339661 1.378536 -21.152529 0
M  V30 32 H 11.470771 0.371820 -20.250149 0
M  V30 33 H 9.971033 -0.298353 -20.820221 0
M  V30 34 H 6.257328 2.373443 -16.317279 0
M  V30 35 H 8.755273 0.843643 -15.827425 0
M  V30 36 H 12.171045 4.377144 -18.841709 0
M  V30 37 H 12.986909 2.106487 -20.697952 0
M  V30 38 H 11.601573 3.189284 -20.898026 0
M  V30 39 H 13.226175 3.820852 -20.999568 0
M  V30 40 H 6.869013 0.665534 -17.827182 0
M  V30 41 H 6.537580 4.086320 -13.210721 0
M  V30 42 H 5.755284 2.741663 -13.984704 0
M  V30 43 H 7.972421 1.824007 -19.004356 0
M  V30 44 H 8.975567 1.262658 -13.513323 0
M  V30 45 H 7.951670 0.390124 -12.416812 0
M  V30 46 H 14.289322 -0.333667 -19.346482 0
M  V30 47 H 14.646218 4.078733 -19.086819 0
M  V30 48 H 13.996098 4.060513 -17.469845 0
M  V30 49 H 8.224407 -1.849281 -16.876182 0
M  V30 50 H 7.721934 -1.449227 -18.498681 0
M  V30 51 H 7.465574 -0.670432 -14.385093 0
M  V30 52 H 6.140985 0.450481 -14.308459 0
M  V30 53 H 13.825496 2.047073 -16.063662 0
M  V30 54 H 15.285269 0.977073 -16.357472 0
M  V30 55 H 8.577490 3.516043 -14.710437 0
M  V30 56 H 7.243243 4.379151 -15.389913 0
M  V30 57 H 9.729435 3.590136 -16.573247 0
M  V30 58 H 10.096187 4.595906 -18.731288 0
M  V30 59 H 8.719995 3.676258 -19.468843 0
M  V30 60 H 11.828405 2.693698 -17.086854 0
M  V30 61 H 15.613407 2.014033 -18.621600 0
M  V30 END ATOM
M  V30 BEGIN BOND
M  V30 1 1 4 3
M  V30 2 1 6 5
M  V30 3 1 7 2
M  V30 4 1 8 1
M  V30 5 1 8 4
M  V30 6 1 7 11 CFG=3
M  V30 7 1 14 7
M  V30 8 1 15 5
M  V30 9 1 16 8
M  V30 10 1 16 14
M  V30 11 1 17 4
M  V30 12 1 17 12
M  V30 13 1 18 3
M  V30 14 1 20 9
M  V30 15 1 20 12
M  V30 16 1 21 3
M  V30 17 1 21 9
M  V30 18 1 22 18
M  V30 19 1 23 10
M  V30 20 1 23 13 CFG=3
M  V30 21 1 23 19
M  V30 22 1 24 22
M  V30 23 1 25 7
M  V30 24 1 25 22
M  V30 25 1 25 24 CFG=3
M  V30 26 1 26 5
M  V30 27 1 26 10
M  V30 28 1 26 25
M  V30 29 1 27 15
M  V30 30 1 27 19
M  V30 31 1 27 23
M  V30 32 1 28 1
M  V30 33 1 29 1
M  V30 34 1 30 1
M  V30 35 1 31 2
M  V30 36 1 32 2
M  V30 37 1 33 2
M  V30 38 1 3 34 CFG=3
M  V30 39 1 4 35 CFG=1
M  V30 40 1 5 36 CFG=3
M  V30 41 1 37 6
M  V30 42 1 38 6
M  V30 43 1 39 6
M  V30 44 1 8 40 CFG=3
M  V30 45 1 41 9
M  V30 46 1 42 9
M  V30 47 1 43 11
M  V30 48 1 44 12
M  V30 49 1 45 12
M  V30 50 1 46 13
M  V30 51 1 47 15
M  V30 52 1 48 15
M  V30 53 1 49 16
M  V30 54 1 50 16
M  V30 55 1 51 17
M  V30 56 1 52 17
M  V30 57 1 53 19
M  V30 58 1 54 19
M  V30 59 1 55 21
M  V30 60 1 56 21
M  V30 61 1 22 57 CFG=1
M  V30 62 1 58 24
M  V30 63 1 59 24
M  V30 64 1 26 60 CFG=1
M  V30 65 1 27 61 CFG=3
M  V30 END BOND
M  V30 END CTAB
M  END
>  <i_epik_Tot_Q>  (1) 
0

>  <i_epik_Tot_abs_Q>  (1) 
0

>  <i_i_glide_confnum>  (1) 
2

>  <i_i_glide_lignum>  (1) 
61

>  <i_i_glide_posenum>  (1) 
340

>  <i_i_glide_rotatable_bonds>  (1) 
3

>  <i_lp_mmshare_version>  (1) 
72125

>  <i_m_source_file_index>  (1) 
19

>  <i_f3d_flags>  (1) 
0

>  <num_sample>  (1) 
50

>  <b_lp_Chiralities_Consistent>  (1) 
1

>  <r_epik_Charging_Adjusted_Penalty>  (1) 
0

>  <r_epik_Ionization_Penalty>  (1) 
6.7783705848961877e-07

>  <r_epik_Ionization_Penalty_Charging>  (1) 
0

>  <r_epik_Ionization_Penalty_Neutral>  (1) 
6.7783705848961877e-07

>  <r_epik_State_Penalty>  (1) 
-0

>  <r_glide_ring_energy>  (1) 
0

>  <r_i_docking_score>  (1) 
-3.7276521093278596

>  <r_i_glide_ecoul>  (1) 
-0.64650757513060542

>  <r_i_glide_eff_state_penalty>  (1) 
-0

>  <r_i_glide_einternal>  (1) 
10.534108216241268

>  <r_i_glide_emodel>  (1) 
-28.409707698503041

>  <r_i_glide_emodel_strain>  (1) 
0.1541513766304945

>  <r_i_glide_energy>  (1) 
-27.867015215538288

>  <r_i_glide_erotb>  (1) 
0.12329427839652905

>  <r_i_glide_esite>  (1) 
0

>  <r_i_glide_evdw>  (1) 
-27.220507640407682

>  <r_i_glide_gscore>  (1) 
-3.7276521093278596

>  <r_i_glide_gscore_strain>  (1) 
0

>  <r_i_glide_hbond>  (1) 
0

>  <r_i_glide_ligand_efficiency>  (1) 
-0.13806118923436517

>  <r_i_glide_ligand_efficiency_ln>  (1) 
-0.8677359559035227

>  <r_i_glide_ligand_efficiency_sa>  (1) 
-0.41418356770309561

>  <r_i_glide_lipo>  (1) 
-1.3588303463962284

>  <r_i_glide_metal>  (1) 
-0

>  <r_i_glide_rewards>  (1) 
-1.034114523038185

>  <r_lp_Energy>  (1) 
44.784799999999997

>  <r_lp_tautomer_probability>  (1) 
1

>  <s_epik_cmdline>  (1) 
J2VwaWtfcHl0aG9uJywgJy1waHQnLCAnMS4wJywgJy1waCcsICc3LjQnLCAnLXRuJywgJzgnLCAnLW1hJywgJzUwMCcsICctaW1hZScsICc8aW5maWxlLm1hZT4nLCAnLW9tYWUnLCAnPG91dGZpbGUubWFlPic=

>  <s_epik_input>  (1) 
W0NIM11bQ0BAXTEoW09IXSlTW0NIMl1bQ0BASF0oW0NIM10pW0NASF0oW0NIMl1bQ0gyXU9bQ0gyXVtDSDJdMilbQ0BASF0yT1tDQEhdKFtDSDJdMylDMTNbQ0BASF0oTzQpW0NASF0oW0NIM10pW0NIMl1bQ0BASF0oW0NIMl01KUM0NVtPSF0=

>  <s_glide_docking_method>  (1) 
confgen

>  <s_i_glide_gridfile>  (1) 
gpcr_drd2_6luq_protein_autoprepared_prepared

>  <s_lp_Force_Field>  (1) 
S-OPLS

>  <s_lp_Variant>  (1) 
DiffSBDD_18-1

>  <s_m_source_file>  (1) 
generated_generic_title2_ligand_DiffSBDD_2026-06-23_prepared.sdf

>  <GenAI_Model>  (1) 
DiffSBDD

>  <Protein>  (1) 
generic_title2

$$$$
DiffSBDD_18
     RDKit          3D

  0  0  0  0  0  0  0  0  0  0999 V3000
M  V30 BEGIN CTAB
M  V30 COUNTS 61 65 0 0 1
M  V30 BEGIN ATOM
M  V30 1 C 13.670206 5.445969 -18.976422 0
M  V30 2 C 7.694085 4.517493 -18.077777 0
M  V30 3 C 12.677158 2.163332 -19.195474 0 CFG=2
M  V30 4 C 12.885362 3.148112 -18.015693 0 CFG=2
M  V30 5 C 7.451363 0.622091 -17.153529 0 CFG=2
M  V30 6 C 6.205628 1.190229 -17.851856 0
M  V30 7 C 9.125050 3.931043 -18.155547 0 CFG=1
M  V30 8 C 12.489711 4.591429 -18.472973 0 CFG=1
M  V30 9 C 14.728708 0.619942 -18.957992 0
M  V30 10 O 8.078703 2.633527 -15.898587 0
M  V30 11 O 9.487670 4.454276 -19.416301 0
M  V30 12 C 14.657946 1.722225 -16.785025 0
M  V30 13 O 6.625254 3.162504 -14.029095 0
M  V30 14 S 10.145229 4.599769 -16.785024 0
M  V30 15 C 7.076800 -0.130383 -15.870233 0
M  V30 16 C 11.647766 5.399288 -17.458599 0
M  V30 17 C 14.302555 3.086114 -17.392893 0
M  V30 18 O 11.307301 2.176822 -19.609011 0
M  V30 19 C 7.998127 1.185395 -13.815279 0
M  V30 20 O 15.315254 0.832213 -17.678265 0
M  V30 21 C 13.192048 0.715408 -19.007024 0
M  V30 22 C 10.340889 1.580654 -18.746535 0 CFG=2
M  V30 23 C 7.375423 2.197229 -14.731184 0 CFG=2
M  V30 24 C 9.053004 1.633103 -19.509816 0
M  V30 25 C 9.147225 2.364280 -18.165433 0 CFG=2
M  V30 26 C 8.542699 1.697052 -16.879235 0 CFG=2
M  V30 27 C 6.823937 0.791939 -14.703690 0 CFG=1
M  V30 28 H 14.350212 5.720506 -18.169599 0
M  V30 29 H 14.243075 4.921288 -19.741556 0
M  V30 30 H 13.314666 6.374516 -19.424427 0
M  V30 31 H 7.051183 4.093069 -18.849971 0
M  V30 32 H 7.194867 4.361757 -17.125853 0
M  V30 33 H 7.703461 5.599110 -18.223576 0
M  V30 34 H 13.221378 2.570694 -20.048550 0
M  V30 35 H 12.203664 2.831812 -17.227281 0
M  V30 36 H 7.864858 -0.149742 -17.799877 0
M  V30 37 H 5.775410 1.990226 -17.258513 0
M  V30 38 H 6.432127 1.603023 -18.833351 0
M  V30 39 H 5.441351 0.425164 -17.991232 0
M  V30 40 H 11.883683 4.495267 -19.366016 0
M  V30 41 H 15.040585 -0.373844 -19.280928 0
M  V30 42 H 15.172859 1.315755 -19.670720 0
M  V30 43 H 10.209505 5.048501 -19.289101 0
M  V30 44 H 13.767883 1.241805 -16.385026 0
M  V30 45 H 15.331130 1.868198 -15.940021 0
M  V30 46 H 5.920645 3.451596 -14.586890 0
M  V30 47 H 6.200335 -0.760084 -16.028738 0
M  V30 48 H 7.885802 -0.809642 -15.597447 0
M  V30 49 H 12.271397 5.667702 -16.605250 0
M  V30 50 H 11.338133 6.341502 -17.911963 0
M  V30 51 H 14.341154 3.823727 -16.590111 0
M  V30 52 H 15.076005 3.370794 -18.105990 0
M  V30 53 H 8.975410 0.790186 -14.066707 0
M  V30 54 H 7.805306 1.273924 -12.748189 0
M  V30 55 H 12.755336 0.221758 -18.139615 0
M  V30 56 H 12.858083 0.139598 -19.870949 0
M  V30 57 H 10.602699 0.599471 -18.359068 0
M  V30 58 H 8.526075 0.690502 -19.610058 0
M  V30 59 H 9.030038 2.226412 -20.421402 0
M  V30 60 H 9.375394 1.190205 -16.393455 0
M  V30 61 H 5.872178 0.635305 -14.198404 0
M  V30 END ATOM
M  V30 BEGIN BOND
M  V30 1 1 4 3
M  V30 2 1 6 5
M  V30 3 1 7 2
M  V30 4 1 8 1
M  V30 5 1 8 4
M  V30 6 1 7 11 CFG=3
M  V30 7 1 14 7
M  V30 8 1 15 5
M  V30 9 1 16 8
M  V30 10 1 16 14
M  V30 11 1 17 4
M  V30 12 1 17 12
M  V30 13 1 18 3
M  V30 14 1 20 9
M  V30 15 1 20 12
M  V30 16 1 21 3
M  V30 17 1 21 9
M  V30 18 1 22 18
M  V30 19 1 23 10
M  V30 20 1 23 13 CFG=1
M  V30 21 1 23 19
M  V30 22 1 24 22
M  V30 23 1 25 7
M  V30 24 1 25 22
M  V30 25 1 25 24 CFG=3
M  V30 26 1 26 5
M  V30 27 1 26 10
M  V30 28 1 26 25
M  V30 29 1 27 15
M  V30 30 1 27 19
M  V30 31 1 27 23
M  V30 32 1 28 1
M  V30 33 1 29 1
M  V30 34 1 30 1
M  V30 35 1 31 2
M  V30 36 1 32 2
M  V30 37 1 33 2
M  V30 38 1 3 34 CFG=3
M  V30 39 1 4 35 CFG=1
M  V30 40 1 5 36 CFG=3
M  V30 41 1 37 6
M  V30 42 1 38 6
M  V30 43 1 39 6
M  V30 44 1 8 40 CFG=3
M  V30 45 1 41 9
M  V30 46 1 42 9
M  V30 47 1 43 11
M  V30 48 1 44 12
M  V30 49 1 45 12
M  V30 50 1 46 13
M  V30 51 1 47 15
M  V30 52 1 48 15
M  V30 53 1 49 16
M  V30 54 1 50 16
M  V30 55 1 51 17
M  V30 56 1 52 17
M  V30 57 1 53 19
M  V30 58 1 54 19
M  V30 59 1 55 21
M  V30 60 1 56 21
M  V30 61 1 22 57 CFG=1
M  V30 62 1 58 24
M  V30 63 1 59 24
M  V30 64 1 26 60 CFG=1
M  V30 65 1 27 61 CFG=1
M  V30 END BOND
M  V30 END CTAB
M  END
>  <i_epik_Tot_Q>  (1) 
0

>  <i_epik_Tot_abs_Q>  (1) 
0

>  <i_i_glide_confnum>  (1) 
3

>  <i_i_glide_lignum>  (1) 
61

>  <i_i_glide_posenum>  (1) 
173

>  <i_i_glide_rotatable_bonds>  (1) 
3

>  <i_lp_mmshare_version>  (1) 
72125

>  <i_m_source_file_index>  (1) 
19

>  <i_f3d_flags>  (1) 
0

>  <num_sample>  (1) 
50

>  <b_lp_Chiralities_Consistent>  (1) 
1

>  <r_epik_Charging_Adjusted_Penalty>  (1) 
0

>  <r_epik_Ionization_Penalty>  (1) 
6.7783705848961877e-07

>  <r_epik_Ionization_Penalty_Charging>  (1) 
0

>  <r_epik_Ionization_Penalty_Neutral>  (1) 
6.7783705848961877e-07

>  <r_epik_State_Penalty>  (1) 
-0

>  <r_glide_ring_energy>  (1) 
0

>  <r_i_docking_score>  (1) 
-3.7264228399118369

>  <r_i_glide_ecoul>  (1) 
-1.5261545881684606

>  <r_i_glide_eff_state_penalty>  (1) 
-0

>  <r_i_glide_einternal>  (1) 
10.194518941976284

>  <r_i_glide_emodel>  (1) 
-28.955957725609103

>  <r_i_glide_emodel_strain>  (1) 
0.036896064333930667

>  <r_i_glide_energy>  (1) 
-28.128182010375852

>  <r_i_glide_erotb>  (1) 
0.12329427839652905

>  <r_i_glide_esite>  (1) 
0

>  <r_i_glide_evdw>  (1) 
-26.602027422207392

>  <r_i_glide_gscore>  (1) 
-3.7264228399118369

>  <r_i_glide_gscore_strain>  (1) 
0

>  <r_i_glide_hbond>  (1) 
-0.15384865995613153

>  <r_i_glide_ligand_efficiency>  (1) 
-0.13801566073747543

>  <r_i_glide_ligand_efficiency_ln>  (1) 
-0.86744980224956281

>  <r_i_glide_ligand_efficiency_sa>  (1) 
-0.41404698221242642

>  <r_i_glide_lipo>  (1) 
-1.2540864759283208

>  <r_i_glide_metal>  (1) 
-0

>  <r_i_glide_rewards>  (1) 
-0.88275742308827432

>  <r_lp_Energy>  (1) 
44.784799999999997

>  <r_lp_tautomer_probability>  (1) 
1

>  <s_epik_cmdline>  (1) 
J2VwaWtfcHl0aG9uJywgJy1waHQnLCAnMS4wJywgJy1waCcsICc3LjQnLCAnLXRuJywgJzgnLCAnLW1hJywgJzUwMCcsICctaW1hZScsICc8aW5maWxlLm1hZT4nLCAnLW9tYWUnLCAnPG91dGZpbGUubWFlPic=

>  <s_epik_input>  (1) 
W0NIM11bQ0BAXTEoW09IXSlTW0NIMl1bQ0BASF0oW0NIM10pW0NASF0oW0NIMl1bQ0gyXU9bQ0gyXVtDSDJdMilbQ0BASF0yT1tDQEhdKFtDSDJdMylDMTNbQ0BASF0oTzQpW0NASF0oW0NIM10pW0NIMl1bQ0BASF0oW0NIMl01KUM0NVtPSF0=

>  <s_glide_docking_method>  (1) 
confgen

>  <s_i_glide_gridfile>  (1) 
gpcr_drd2_6luq_protein_autoprepared_prepared

>  <s_lp_Force_Field>  (1) 
S-OPLS

>  <s_lp_Variant>  (1) 
DiffSBDD_18-1

>  <s_m_source_file>  (1) 
generated_generic_title2_ligand_DiffSBDD_2026-06-23_prepared.sdf

>  <GenAI_Model>  (1) 
DiffSBDD

>  <Protein>  (1) 
generic_title2

$$$$
DiffSBDD_8
     RDKit          3D

  0  0  0  0  0  0  0  0  0  0999 V3000
M  V30 BEGIN CTAB
M  V30 COUNTS 69 72 0 0 1
M  V30 BEGIN ATOM
M  V30 1 N 6.575402 5.190231 -15.777650 0
M  V30 2 C 7.260758 5.074321 -19.145194 0
M  V30 3 C 8.704951 6.217499 -13.570891 0 CFG=1
M  V30 4 N 9.556714 4.586470 -19.081825 0
M  V30 5 O 6.817071 3.743352 -12.231994 0
M  V30 6 C 8.776149 5.990217 -9.079586 0
M  V30 7 F 10.188103 5.684844 -17.166068 0
M  V30 8 C 9.550291 7.036164 -8.265325 0
M  V30 9 N 8.671119 6.385771 -10.506704 0 CHG=1
M  V30 10 C 7.588602 5.702235 -11.244851 0 CFG=1
M  V30 11 C 9.369028 5.749224 -18.219215 0 CFG=2
M  V30 12 C 12.393535 9.225571 -4.606716 0
M  V30 13 C 7.456059 5.982676 -12.736404 0 CFG=2
M  V30 14 O 8.975399 3.732814 -11.328831 0
M  V30 15 O 10.821224 4.605968 -19.837471 0
M  V30 16 C 11.057100 6.868026 -8.461345 0
M  V30 17 C 5.229176 4.903640 -13.557044 0
M  V30 18 C 5.758057 6.383989 -16.062187 0
M  V30 19 C 6.209269 4.408062 -14.606966 0 CFG=2
M  V30 20 C 7.869930 5.677491 -17.862723 0 CFG=2
M  V30 21 C 7.559953 4.784371 -16.626617 0
M  V30 22 C 10.155970 5.940561 -13.185029 0
M  V30 23 C 7.639254 4.188301 -11.191687 0 CFG=2
M  V30 24 C 6.681445 4.776165 -13.204762 0 CFG=2
M  V30 25 O 11.375408 9.883724 -3.891543 0
M  V30 26 O 8.201746 3.749454 -16.441847 0
M  V30 27 C 12.255089 9.527695 -6.107465 0
M  V30 28 C 11.238307 5.904870 -20.264921 0
M  V30 29 C 8.443723 4.624449 -20.017505 0
M  V30 30 O 11.507552 8.505054 -6.761224 0
M  V30 31 C 11.927693 8.006290 -7.943425 0
M  V30 32 N 9.375400 4.980111 -13.922626 0
M  V30 33 O 12.917327 8.390503 -8.562763 0
M  V30 34 H 6.610726 4.223936 -18.929463 0
M  V30 35 H 6.652125 5.807882 -19.674377 0
M  V30 36 H 8.457988 6.789426 -14.457898 0
M  V30 37 H 9.237899 5.006715 -8.983250 0
M  V30 38 H 7.775399 5.900923 -8.657526 0
M  V30 39 H 9.312980 6.902873 -7.208341 0
M  V30 40 H 9.225943 8.045736 -8.523871 0
M  V30 41 H 8.391108 7.361331 -10.479287 0
M  V30 42 H 6.641338 5.989665 -10.783506 0
M  V30 43 H 9.537939 6.703206 -18.717826 0
M  V30 44 H 13.350736 9.604312 -4.246766 0
M  V30 45 H 12.374895 8.157785 -4.385065 0
M  V30 46 H 6.842353 6.876077 -12.859481 0
M  V30 47 H 8.975172 2.782793 -11.322318 0
M  V30 48 H 11.273110 6.789591 -9.526781 0
M  V30 49 H 11.375102 5.941482 -7.987132 0
M  V30 50 H 4.542192 4.168377 -13.144424 0
M  V30 51 H 4.864484 5.924515 -13.567311 0
M  V30 52 H 5.531319 6.499649 -17.122076 0
M  V30 53 H 4.766202 6.328325 -15.626264 0
M  V30 54 H 6.246231 7.289189 -15.698150 0
M  V30 55 H 6.175841 3.335121 -14.785074 0
M  V30 56 H 7.537461 6.704028 -17.739147 0
M  V30 57 H 10.975455 6.390207 -13.741552 0
M  V30 58 H 10.425961 5.649782 -12.176102 0
M  V30 59 H 7.244696 3.875588 -10.226494 0
M  V30 60 H 11.546500 9.788099 -2.966012 0
M  V30 61 H 11.792134 10.500682 -6.276523 0
M  V30 62 H 13.262235 9.590227 -6.520724 0
M  V30 63 H 12.079673 5.787062 -20.947566 0
M  V30 64 H 10.470296 6.455744 -20.806758 0
M  V30 65 H 11.602810 6.511577 -19.434852 0
M  V30 66 H 8.280991 3.651460 -20.481405 0
M  V30 67 H 8.612262 5.353416 -20.808989 0
M  V30 68 H 9.634186 4.818240 -14.889299 0
M  V30 69 H 9.552967 6.259115 -10.975980 0
M  V30 END ATOM
M  V30 BEGIN BOND
M  V30 1 1 8 6
M  V30 2 1 9 6
M  V30 3 1 10 9
M  V30 4 1 11 4
M  V30 5 1 11 7
M  V30 6 1 13 3
M  V30 7 1 13 10
M  V30 8 1 15 4
M  V30 9 1 16 8
M  V30 10 1 18 1
M  V30 11 1 19 1
M  V30 12 1 19 17
M  V30 13 1 20 2
M  V30 14 1 20 11
M  V30 15 1 21 1
M  V30 16 1 21 20
M  V30 17 1 22 3
M  V30 18 1 23 5
M  V30 19 1 23 10
M  V30 20 1 23 14
M  V30 21 1 24 5 CFG=1
M  V30 22 1 24 13
M  V30 23 1 24 17
M  V30 24 1 24 19
M  V30 25 1 25 12
M  V30 26 2 26 21
M  V30 27 1 27 12
M  V30 28 1 28 15
M  V30 29 1 29 2
M  V30 30 1 29 4
M  V30 31 1 30 27
M  V30 32 1 31 16
M  V30 33 1 31 30
M  V30 34 1 32 3
M  V30 35 1 32 22
M  V30 36 2 33 31
M  V30 37 1 34 2
M  V30 38 1 35 2
M  V30 39 1 3 36 CFG=3
M  V30 40 1 37 6
M  V30 41 1 38 6
M  V30 42 1 39 8
M  V30 43 1 40 8
M  V30 44 1 41 9
M  V30 45 1 10 42 CFG=1
M  V30 46 1 11 43 CFG=3
M  V30 47 1 44 12
M  V30 48 1 45 12
M  V30 49 1 13 46 CFG=1
M  V30 50 1 47 14
M  V30 51 1 48 16
M  V30 52 1 49 16
M  V30 53 1 50 17
M  V30 54 1 51 17
M  V30 55 1 52 18
M  V30 56 1 53 18
M  V30 57 1 54 18
M  V30 58 1 19 55 CFG=3
M  V30 59 1 20 56 CFG=1
M  V30 60 1 57 22
M  V30 61 1 58 22
M  V30 62 1 23 59 CFG=1
M  V30 63 1 60 25
M  V30 64 1 61 27
M  V30 65 1 62 27
M  V30 66 1 63 28
M  V30 67 1 64 28
M  V30 68 1 65 28
M  V30 69 1 66 29
M  V30 70 1 67 29
M  V30 71 1 68 32
M  V30 72 1 69 9
M  V30 END BOND
M  V30 END CTAB
M  END
>  <i_epik_Tot_Q>  (1) 
1

>  <i_epik_Tot_abs_Q>  (1) 
1

>  <i_i_glide_confnum>  (1) 
4225

>  <i_i_glide_lignum>  (1) 
34

>  <i_i_glide_posenum>  (1) 
50

>  <i_i_glide_rotatable_bonds>  (1) 
15

>  <i_lp_mmshare_version>  (1) 
72125

>  <i_m_source_file_index>  (1) 
9

>  <i_f3d_flags>  (1) 
0

>  <num_sample>  (1) 
50

>  <b_lp_Chiralities_Consistent>  (1) 
1

>  <r_epik_Charging_Adjusted_Penalty>  (1) 
0.31458683345696248

>  <r_epik_Ionization_Penalty>  (1) 
0.14300301403106822

>  <r_epik_Ionization_Penalty_Charging>  (1) 
0.065080964065447874

>  <r_epik_Ionization_Penalty_Neutral>  (1) 
0.077922049965620341

>  <r_epik_State_Penalty>  (1) 
0.24950586939151459

>  <r_glide_ring_energy>  (1) 
0

>  <r_i_docking_score>  (1) 
-3.7112931778911915

>  <r_i_glide_ecoul>  (1) 
-5.423865861791926

>  <r_i_glide_eff_state_penalty>  (1) 
0.24950586939151459

>  <r_i_glide_einternal>  (1) 
71.292737882649021

>  <r_i_glide_emodel>  (1) 
-1.7104198333648384

>  <r_i_glide_emodel_strain>  (1) 
0.91894815563107102

>  <r_i_glide_energy>  (1) 
-27.356586587744189

>  <r_i_glide_erotb>  (1) 
1.0741905119875848

>  <r_i_glide_esite>  (1) 
-0.10250804381229309

>  <r_i_glide_evdw>  (1) 
-21.932720725952265

>  <r_i_glide_gscore>  (1) 
-3.9607990472827059

>  <r_i_glide_gscore_strain>  (1) 
0

>  <r_i_glide_hbond>  (1) 
-0.1741116399027372

>  <r_i_glide_ligand_efficiency>  (1) 
-0.11246342963306641

>  <r_i_glide_ligand_efficiency_ln>  (1) 
-0.82537238671534663

>  <r_i_glide_ligand_efficiency_sa>  (1) 
-0.36073031141713047

>  <r_i_glide_lipo>  (1) 
-1.4639564006489194

>  <r_i_glide_metal>  (1) 
-0

>  <r_i_glide_rewards>  (1) 
-1.3841975593399387

>  <r_lp_Energy>  (1) 
39.880201

>  <s_epik_Chemistry_Notes>  (1) 
This compound has an ester and may undergo hydrolysis at high or low pH. This compound contains an acetal/aminal-like group ( X-CH(R)-Y where X, Y are N, S, or O) that may be acid/base labile, releasing an aldehyde. This compound has a N-S or N-O group and may undergo hydrolysis at high or low pH.

>  <s_epik_cmdline>  (1) 
J2VwaWtfcHl0aG9uJywgJy1waHQnLCAnMS4wJywgJy1waCcsICc3LjQnLCAnLXRuJywgJzgnLCAnLW1hJywgJzUwMCcsICctaW1hZScsICc8aW5maWxlLm1hZT4nLCAnLW9tYWUnLCAnPG91dGZpbGUubWFlPic=

>  <s_epik_input>  (1) 
W0NIM11PTjFbQ0BIXShGKVtDQEBIXShbQ0gyXVtDSDJdMSlDKD1PKU4oW0NIM10pW0NASF0yW0NIMl1DMjNPW0NAQEhdKFtPSF0pW0NASF0oW0NASF0zW0NASF00W0NIMl1bTkhdNClbTkhdW0NIMl1bQ0gyXVtDSDJdQyg9TylPW0NIMl1bQ0gyXVtPSF0=

>  <s_glide_docking_method>  (1) 
confgen

>  <s_i_glide_gridfile>  (1) 
gpcr_drd2_6luq_protein_autoprepared_prepared

>  <s_lp_Force_Field>  (1) 
S-OPLS

>  <s_lp_Variant>  (1) 
DiffSBDD_8-3

>  <s_m_source_file>  (1) 
generated_generic_title2_ligand_DiffSBDD_2026-06-23_prepared.sdf

>  <GenAI_Model>  (1) 
DiffSBDD

>  <Protein>  (1) 
generic_title2

$$$$
DiffSBDD_13
     RDKit          3D

  0  0  0  0  0  0  0  0  0  0999 V3000
M  V30 BEGIN CTAB
M  V30 COUNTS 48 50 0 0 1
M  V30 BEGIN ATOM
M  V30 1 O 15.772983 10.390612 -20.665657 0
M  V30 2 C 15.618030 9.386683 -20.072018 0
M  V30 3 C 7.346215 4.713753 -15.302177 0
M  V30 4 F 17.382371 5.033535 -18.668335 0
M  V30 5 C 10.201838 5.288534 -15.251907 0
M  V30 6 F 5.921074 4.357438 -11.326452 0
M  V30 7 C 15.520891 8.259466 -19.399190 0
M  V30 8 C 8.433974 5.562372 -11.871098 0
M  V30 9 C 6.330064 4.285916 -12.593621 0
M  V30 10 C 11.375486 5.990163 -15.185149 0
M  V30 11 C 18.179901 8.361712 -18.002204 0
M  V30 12 F 5.244808 4.347438 -13.362257 0
M  V30 13 C 14.358811 7.937870 -18.579167 0
M  V30 14 C 16.698186 7.263732 -19.485408 0 CFG=1
M  V30 15 C 13.112875 6.516829 -17.097271 0
M  V30 16 C 8.102995 4.960173 -16.619537 0
M  V30 17 C 9.699960 5.770076 -12.686859 0
M  V30 18 C 10.225007 4.889835 -17.947721 0
M  V30 19 N 17.993804 7.857458 -19.153866 0
M  V30 20 C 14.264494 6.779572 -17.895862 0
M  V30 21 C 15.325867 5.795562 -17.951995 0
M  V30 22 C 12.233089 6.244124 -16.294958 0
M  V30 23 C 9.341304 5.060690 -13.998437 0 CFG=1
M  V30 24 C 16.442280 5.993668 -18.670523 0
M  V30 25 F 6.930768 3.109893 -12.781668 0
M  V30 26 C 7.285228 5.470181 -12.896713 0 CFG=2
M  V30 27 C 9.616008 4.652545 -16.548377 0 CFG=1
M  V30 28 N 7.959267 5.468123 -14.210661 0
M  V30 29 H 6.307398 5.021303 -15.426062 0
M  V30 30 H 7.345836 3.646652 -15.079715 0
M  V30 31 H 8.272632 6.358413 -11.142884 0
M  V30 32 H 8.517966 4.627846 -11.314526 0
M  V30 33 H 11.699067 6.389913 -14.236435 0
M  V30 34 H 19.137695 8.821997 -17.748012 0
M  V30 35 H 17.386720 8.345403 -17.249238 0
M  V30 36 H 13.548568 8.653986 -18.515312 0
M  V30 37 H 16.742317 6.936554 -20.525785 0
M  V30 38 H 7.951588 5.990313 -16.933850 0
M  V30 39 H 7.644064 4.344089 -17.393282 0
M  V30 40 H 9.876546 6.839601 -12.794514 0
M  V30 41 H 10.575372 5.335263 -12.205869 0
M  V30 42 H 11.224667 4.465879 -18.033057 0
M  V30 43 H 9.628916 4.394536 -18.714302 0
M  V30 44 H 10.252437 5.947974 -18.209989 0
M  V30 45 H 15.217096 4.873915 -17.398094 0
M  V30 46 H 9.347614 3.990301 -13.792886 0
M  V30 47 H 6.700484 6.390480 -12.854001 0
M  V30 48 H 9.702324 3.578773 -16.383275 0
M  V30 END ATOM
M  V30 BEGIN BOND
M  V30 1 2 2 1
M  V30 2 2 7 2
M  V30 3 1 9 6
M  V30 4 2 10 5
M  V30 5 1 12 9
M  V30 6 1 13 7
M  V30 7 1 14 7
M  V30 8 1 16 3
M  V30 9 1 17 8
M  V30 10 2 19 11
M  V30 11 1 19 14
M  V30 12 2 20 13
M  V30 13 1 20 15
M  V30 14 1 21 20
M  V30 15 1 22 10
M  V30 16 3 22 15
M  V30 17 1 23 5
M  V30 18 1 23 17
M  V30 19 1 24 4
M  V30 20 1 24 14
M  V30 21 2 24 21
M  V30 22 1 25 9
M  V30 23 1 26 8
M  V30 24 1 26 9
M  V30 25 1 27 5
M  V30 26 1 27 16
M  V30 27 1 27 18
M  V30 28 1 28 3
M  V30 29 1 28 23
M  V30 30 1 28 26
M  V30 31 1 29 3
M  V30 32 1 30 3
M  V30 33 1 31 8
M  V30 34 1 32 8
M  V30 35 1 33 10
M  V30 36 1 34 11
M  V30 37 1 35 11
M  V30 38 1 36 13
M  V30 39 1 14 37 CFG=3
M  V30 40 1 38 16
M  V30 41 1 39 16
M  V30 42 1 40 17
M  V30 43 1 41 17
M  V30 44 1 42 18
M  V30 45 1 43 18
M  V30 46 1 44 18
M  V30 47 1 45 21
M  V30 48 1 23 46 CFG=1
M  V30 49 1 26 47 CFG=3
M  V30 50 1 27 48 CFG=1
M  V30 END BOND
M  V30 END CTAB
M  END
>  <i_epik_Tot_Q>  (1) 
0

>  <i_epik_Tot_abs_Q>  (1) 
0

>  <i_i_glide_confnum>  (1) 
3

>  <i_i_glide_lignum>  (1) 
50

>  <i_i_glide_posenum>  (1) 
149

>  <i_i_glide_rotatable_bonds>  (1) 
4

>  <i_lp_mmshare_version>  (1) 
72125

>  <i_m_source_file_index>  (1) 
14

>  <i_f3d_flags>  (1) 
0

>  <num_sample>  (1) 
50

>  <b_lp_Chiralities_Consistent>  (1) 
1

>  <r_epik_Charging_Adjusted_Penalty>  (1) 
0

>  <r_epik_Ionization_Penalty>  (1) 
0.00020645461892998548

>  <r_epik_Ionization_Penalty_Charging>  (1) 
0

>  <r_epik_Ionization_Penalty_Neutral>  (1) 
0.00020645461892998548

>  <r_epik_State_Penalty>  (1) 
-0

>  <r_glide_ring_energy>  (1) 
0

>  <r_i_docking_score>  (1) 
-3.6893476831901189

>  <r_i_glide_ecoul>  (1) 
-1.2553956341816073

>  <r_i_glide_eff_state_penalty>  (1) 
-0

>  <r_i_glide_einternal>  (1) 
2.5910879373345725

>  <r_i_glide_emodel>  (1) 
-30.100787556942247

>  <r_i_glide_emodel_strain>  (1) 
0.029749042347980037

>  <r_i_glide_energy>  (1) 
-25.648258598142519

>  <r_i_glide_erotb>  (1) 
0.38039990127662543

>  <r_i_glide_esite>  (1) 
-0.016539762555042675

>  <r_i_glide_evdw>  (1) 
-24.392862963960912

>  <r_i_glide_gscore>  (1) 
-3.6893476831901189

>  <r_i_glide_gscore_strain>  (1) 
0

>  <r_i_glide_hbond>  (1) 
0

>  <r_i_glide_ligand_efficiency>  (1) 
-0.13176241725678997

>  <r_i_glide_ligand_efficiency_ln>  (1) 
-0.8516097692352278

>  <r_i_glide_ligand_efficiency_sa>  (1) 
-0.40010830314964796

>  <r_i_glide_lipo>  (1) 
-1.0562118082607272

>  <r_i_glide_metal>  (1) 
-0

>  <r_i_glide_rewards>  (1) 
-1.5890435203256876

>  <r_lp_Energy>  (1) 
26.927206999999999

>  <r_lp_tautomer_probability>  (1) 
1

>  <s_epik_Chemistry_Notes>  (1) 
This compound has an imine and may undergo hydrolysis.

>  <s_epik_cmdline>  (1) 
J2VwaWtfcHl0aG9uJywgJy1waHQnLCAnMS4wJywgJy1waCcsICc3LjQnLCAnLXRuJywgJzgnLCAnLW1hJywgJzUwMCcsICctaW1hZScsICc8aW5maWxlLm1hZT4nLCAnLW9tYWUnLCAnPG91dGZpbGUubWFlPic=

>  <s_epik_input>  (1) 
W0NIMl09TltDQEhdMUMoRik9W0NIXUMoPVtDSF1DMT1DPU8pQyNDXFtDSF09Q1wyW0NASF0oW0NIM10pW0NIMl1bQ0gyXU4oW0NAQEhdMjMpW0NAQEhdKEMoRikoRilGKVtDSDJdW0NIMl0z

>  <s_glide_docking_method>  (1) 
confgen

>  <s_i_glide_gridfile>  (1) 
gpcr_drd2_6luq_protein_autoprepared_prepared

>  <s_lp_Force_Field>  (1) 
S-OPLS

>  <s_lp_Variant>  (1) 
DiffSBDD_13-1

>  <s_m_source_file>  (1) 
generated_generic_title2_ligand_DiffSBDD_2026-06-23_prepared.sdf

>  <GenAI_Model>  (1) 
DiffSBDD

>  <Protein>  (1) 
generic_title2

$$$$
DiffSBDD_8
     RDKit          3D

  0  0  0  0  0  0  0  0  0  0999 V3000
M  V30 BEGIN CTAB
M  V30 COUNTS 69 72 0 0 1
M  V30 BEGIN ATOM
M  V30 1 N 7.428724 4.128456 -15.426261 0
M  V30 2 C 7.085221 3.677442 -18.863664 0
M  V30 3 C 6.887634 5.881009 -11.698788 0 CFG=1
M  V30 4 N 9.216011 3.423547 -19.826435 0
M  V30 5 O 9.257909 4.446605 -13.256583 0
M  V30 6 C 9.565472 5.018816 -8.592820 0
M  V30 7 F 10.531787 3.649575 -17.956738 0
M  V30 8 C 10.427169 6.032393 -7.819365 0
M  V30 9 N 9.081211 5.572883 -9.857412 0
M  V30 10 C 8.933836 4.579614 -10.930695 0 CFG=1
M  V30 11 C 9.377352 3.156276 -18.407006 0 CFG=1
M  V30 12 C 12.192732 7.496988 -2.983349 0
M  V30 13 C 7.567116 4.529617 -11.597281 0 CFG=2
M  V30 14 O 10.080543 6.345541 -12.200705 0
M  V30 15 O 9.995749 2.428948 -20.510253 0
M  V30 16 C 9.600990 7.030557 -6.997164 0
M  V30 17 C 7.741838 2.573973 -13.360204 0
M  V30 18 C 7.365829 5.576364 -15.647824 0
M  V30 19 C 7.026356 3.685674 -14.119886 0 CFG=1
M  V30 20 C 8.167384 3.866033 -17.790527 0 CFG=2
M  V30 21 C 7.775435 3.265209 -16.420483 0
M  V30 22 C 5.496812 6.050606 -12.209159 0
M  V30 23 C 9.861899 4.951213 -12.105037 0 CFG=2
M  V30 24 C 7.937645 4.015736 -12.958389 0 CFG=2
M  V30 25 O 12.537365 8.390226 -1.944190 0
M  V30 26 O 7.781001 2.043416 -16.266176 0
M  V30 27 C 11.775406 8.282283 -4.236007 0
M  V30 28 C 10.925809 3.127022 -21.318793 0
M  V30 29 C 7.823781 3.068928 -20.060629 0
M  V30 30 O 11.083105 7.439787 -5.152261 0
M  V30 31 C 10.472684 8.007989 -6.206138 0
M  V30 32 N 5.775404 5.990227 -10.785027 0 CHG=1
M  V30 33 O 10.575663 9.190216 -6.524822 0
M  V30 34 H 6.265282 3.029700 -18.549609 0
M  V30 35 H 6.652360 4.642284 -19.130908 0
M  V30 36 H 7.503866 6.776129 -11.661829 0
M  V30 37 H 10.175437 4.137703 -8.785064 0
M  V30 38 H 8.730059 4.669023 -7.984865 0
M  V30 39 H 11.090163 6.563937 -8.503805 0
M  V30 40 H 11.084146 5.486889 -7.142116 0
M  V30 41 H 9.734051 6.282287 -10.182984 0
M  V30 42 H 9.223054 3.583288 -10.611874 0
M  V30 43 H 9.372758 2.081694 -18.214492 0
M  V30 44 H 13.030568 6.832584 -3.184990 0
M  V30 45 H 11.374478 6.869439 -2.630859 0
M  V30 46 H 6.902003 3.819253 -11.107044 0
M  V30 47 H 9.248050 6.757081 -12.368709 0
M  V30 48 H 8.952359 6.499210 -6.300408 0
M  V30 49 H 8.946895 7.601805 -7.656844 0
M  V30 50 H 8.575400 2.061621 -13.829827 0
M  V30 51 H 7.122862 1.941830 -12.727483 0
M  V30 52 H 8.367877 5.990112 -15.767769 0
M  V30 53 H 6.756270 5.830762 -16.516166 0
M  V30 54 H 6.915334 6.084302 -14.795085 0
M  V30 55 H 5.954920 3.716728 -13.942568 0
M  V30 56 H 8.435876 4.919608 -17.751300 0
M  V30 57 H 5.110769 7.032811 -12.476005 0
M  V30 58 H 4.975401 5.164159 -12.547181 0
M  V30 59 H 10.832635 4.480024 -11.985037 0
M  V30 60 H 13.217447 8.978988 -2.238529 0
M  V30 61 H 11.110810 9.098517 -3.945781 0
M  V30 62 H 12.636766 8.749699 -4.713121 0
M  V30 63 H 11.539564 2.415118 -21.869749 0
M  V30 64 H 10.419557 3.765813 -22.044572 0
M  V30 65 H 11.590914 3.744446 -20.712431 0
M  V30 66 H 7.707353 1.983373 -20.055282 0
M  V30 67 H 7.466752 3.447203 -21.019005 0
M  V30 68 H 5.664082 5.122526 -10.279403 0
M  V30 69 H 6.015218 6.828404 -10.238118 0
M  V30 END ATOM
M  V30 BEGIN BOND
M  V30 1 1 8 6
M  V30 2 1 9 6
M  V30 3 1 10 9
M  V30 4 1 11 4
M  V30 5 1 11 7
M  V30 6 1 13 3
M  V30 7 1 13 10
M  V30 8 1 15 4
M  V30 9 1 16 8
M  V30 10 1 18 1
M  V30 11 1 19 1
M  V30 12 1 19 17
M  V30 13 1 20 2
M  V30 14 1 20 11
M  V30 15 1 21 1
M  V30 16 1 21 20
M  V30 17 1 22 3
M  V30 18 1 23 5
M  V30 19 1 23 10
M  V30 20 1 23 14
M  V30 21 1 24 5 CFG=3
M  V30 22 1 24 13
M  V30 23 1 24 17
M  V30 24 1 24 19
M  V30 25 1 25 12
M  V30 26 2 26 21
M  V30 27 1 27 12
M  V30 28 1 28 15
M  V30 29 1 29 2
M  V30 30 1 29 4
M  V30 31 1 30 27
M  V30 32 1 31 16
M  V30 33 1 31 30
M  V30 34 1 32 3
M  V30 35 1 32 22
M  V30 36 2 33 31
M  V30 37 1 34 2
M  V30 38 1 35 2
M  V30 39 1 3 36 CFG=1
M  V30 40 1 37 6
M  V30 41 1 38 6
M  V30 42 1 39 8
M  V30 43 1 40 8
M  V30 44 1 41 9
M  V30 45 1 10 42 CFG=1
M  V30 46 1 11 43 CFG=3
M  V30 47 1 44 12
M  V30 48 1 45 12
M  V30 49 1 13 46 CFG=1
M  V30 50 1 47 14
M  V30 51 1 48 16
M  V30 52 1 49 16
M  V30 53 1 50 17
M  V30 54 1 51 17
M  V30 55 1 52 18
M  V30 56 1 53 18
M  V30 57 1 54 18
M  V30 58 1 19 55 CFG=1
M  V30 59 1 20 56 CFG=1
M  V30 60 1 57 22
M  V30 61 1 58 22
M  V30 62 1 23 59 CFG=1
M  V30 63 1 60 25
M  V30 64 1 61 27
M  V30 65 1 62 27
M  V30 66 1 63 28
M  V30 67 1 64 28
M  V30 68 1 65 28
M  V30 69 1 66 29
M  V30 70 1 67 29
M  V30 71 1 68 32
M  V30 72 1 69 32
M  V30 END BOND
M  V30 END CTAB
M  END
>  <i_epik_Tot_Q>  (1) 
1

>  <i_epik_Tot_abs_Q>  (1) 
1

>  <i_i_glide_confnum>  (1) 
1707

>  <i_i_glide_lignum>  (1) 
37

>  <i_i_glide_posenum>  (1) 
331

>  <i_i_glide_rotatable_bonds>  (1) 
15

>  <i_lp_mmshare_version>  (1) 
72125

>  <i_m_source_file_index>  (1) 
9

>  <i_f3d_flags>  (1) 
0

>  <num_sample>  (1) 
50

>  <b_lp_Chiralities_Consistent>  (1) 
1

>  <r_epik_Charging_Adjusted_Penalty>  (1) 
1.2103720943885907

>  <r_epik_Ionization_Penalty>  (1) 
0.55446808147534954

>  <r_epik_Ionization_Penalty_Charging>  (1) 
0.13553905892425583

>  <r_epik_Ionization_Penalty_Neutral>  (1) 
0.41892902255109377

>  <r_epik_State_Penalty>  (1) 
1.074833035464335

>  <r_glide_ring_energy>  (1) 
0

>  <r_i_docking_score>  (1) 
-3.6864196850562325

>  <r_i_glide_ecoul>  (1) 
-7.1607566197517212

>  <r_i_glide_eff_state_penalty>  (1) 
1.074833035464335

>  <r_i_glide_einternal>  (1) 
16.990494745370867

>  <r_i_glide_emodel>  (1) 
-46.327440126192833

>  <r_i_glide_emodel_strain>  (1) 
3.1934953689062553

>  <r_i_glide_energy>  (1) 
-43.364508003143499

>  <r_i_glide_erotb>  (1) 
1.0741905119875848

>  <r_i_glide_esite>  (1) 
-0.080696600097948212

>  <r_i_glide_evdw>  (1) 
-36.203751383391776

>  <r_i_glide_gscore>  (1) 
-4.7612527205205675

>  <r_i_glide_gscore_strain>  (1) 
0

>  <r_i_glide_hbond>  (1) 
-0.20000000000000001

>  <r_i_glide_ligand_efficiency>  (1) 
-0.11170968742594645

>  <r_i_glide_ligand_efficiency_ln>  (1) 
-0.81984065069690504

>  <r_i_glide_ligand_efficiency_sa>  (1) 
-0.35831265741182633

>  <r_i_glide_lipo>  (1) 
-1.5421510111130263

>  <r_i_glide_metal>  (1) 
-0

>  <r_i_glide_rewards>  (1) 
-1.1282945591648303

>  <r_lp_Energy>  (1) 
37.411439999999999

>  <s_epik_Chemistry_Notes>  (1) 
This compound has an ester and may undergo hydrolysis at high or low pH. This compound contains an acetal/aminal-like group ( X-CH(R)-Y where X, Y are N, S, or O) that may be acid/base labile, releasing an aldehyde. This compound has a N-S or N-O group and may undergo hydrolysis at high or low pH.

>  <s_epik_cmdline>  (1) 
J2VwaWtfcHl0aG9uJywgJy1waHQnLCAnMS4wJywgJy1waCcsICc3LjQnLCAnLXRuJywgJzgnLCAnLW1hJywgJzUwMCcsICctaW1hZScsICc8aW5maWxlLm1hZT4nLCAnLW9tYWUnLCAnPG91dGZpbGUubWFlPic=

>  <s_epik_input>  (1) 
W0NIM11PTjFbQ0BIXShGKVtDQEBIXShbQ0gyXVtDSDJdMSlDKD1PKU4oW0NIM10pW0NASF0yW0NIMl1DMjNPW0NAQEhdKFtPSF0pW0NASF0oW0NASF0zW0NASF00W0NIMl1bTkhdNClbTkhdW0NIMl1bQ0gyXVtDSDJdQyg9TylPW0NIMl1bQ0gyXVtPSF0=

>  <s_glide_docking_method>  (1) 
confgen

>  <s_i_glide_gridfile>  (1) 
gpcr_drd2_6luq_protein_autoprepared_prepared

>  <s_lp_Force_Field>  (1) 
S-OPLS

>  <s_lp_Variant>  (1) 
DiffSBDD_8-6

>  <s_m_source_file>  (1) 
generated_generic_title2_ligand_DiffSBDD_2026-06-23_prepared.sdf

>  <GenAI_Model>  (1) 
DiffSBDD

>  <Protein>  (1) 
generic_title2

$$$$
DiffSBDD_0
     RDKit          3D

  0  0  0  0  0  0  0  0  0  0999 V3000
M  V30 BEGIN CTAB
M  V30 COUNTS 70 74 0 0 1
M  V30 BEGIN ATOM
M  V30 1 C 10.952762 8.798382 -7.271036 0
M  V30 2 N 8.025160 3.599660 -14.002571 0
M  V30 3 C 7.381008 3.839441 -18.217399 0 CFG=1
M  V30 4 C 9.185283 4.722179 -12.143065 0
M  V30 5 F 10.075013 6.068772 -7.405526 0
M  V30 6 C 7.209105 4.739920 -14.476371 0
M  V30 7 C 11.650448 8.936484 -8.633554 0
M  V30 8 C 8.268874 6.690157 -11.238201 0
M  V30 9 C 10.185173 7.021049 -9.541677 0 CFG=1
M  V30 10 C 9.996604 4.134679 -18.444219 0
M  V30 11 C 7.894852 2.381289 -14.798984 0 CFG=2
M  V30 12 C 4.895513 0.680320 -13.658097 0
M  V30 13 C 8.682425 3.681415 -19.007075 0 CFG=1
M  V30 14 O 8.683875 5.966160 -12.385328 0
M  V30 15 C 9.466041 6.974792 -8.173415 0 CFG=2
M  V30 16 C 7.897239 2.457508 -18.554998 0 CFG=1
M  V30 17 N 7.375498 3.811314 -16.730190 0 CFG=1 CHG=1
M  V30 18 C 9.376715 7.625626 -10.705241 0
M  V30 19 C 6.385869 0.990788 -13.690239 0
M  V30 20 C 8.272129 2.762723 -16.235068 0 CFG=2
M  V30 21 O 4.567645 -0.009837 -14.834798 0
M  V30 22 C 11.591028 7.627543 -9.420166 0
M  V30 23 N 11.036939 3.283117 -18.212945 0
M  V30 24 C 7.489890 5.066479 -15.961155 0
M  V30 25 N 10.211541 5.415576 -18.140450 0
M  V30 26 O 11.512576 5.423746 -17.610960 0
M  V30 27 C 11.900818 4.137562 -17.689718 0
M  V30 28 O 6.611528 1.874894 -14.777696 0
M  V30 29 N 13.163166 3.883533 -17.185488 0
M  V30 30 C 8.886271 3.645607 -12.896176 0
M  V30 31 C 9.502574 8.322360 -7.436696 0
M  V30 32 C 13.906927 2.645733 -17.052553 0
M  V30 33 C 8.201031 1.667342 -17.291640 0
M  V30 34 H 11.502054 8.090739 -6.647421 0
M  V30 35 H 10.977005 9.749262 -6.742340 0
M  V30 36 H 6.465567 4.193439 -18.687245 0
M  V30 37 H 9.847246 4.699003 -11.297712 0
M  V30 38 H 6.167943 4.427648 -14.385045 0
M  V30 39 H 7.242650 5.653576 -13.904080 0
M  V30 40 H 12.698318 9.190250 -8.482070 0
M  V30 41 H 11.208559 9.739874 -9.220114 0
M  V30 42 H 7.431089 7.297857 -11.584905 0
M  V30 43 H 7.868325 6.020120 -10.471327 0
M  V30 44 H 10.340303 5.988881 -9.798421 0
M  V30 45 H 8.575275 1.619915 -14.418954 0
M  V30 46 H 4.301722 1.589412 -13.584815 0
M  V30 47 H 4.656615 0.039900 -12.808408 0
M  V30 48 H 8.643710 3.922469 -20.068184 0
M  V30 49 H 8.448777 6.605647 -8.268669 0
M  V30 50 H 7.394831 1.899100 -19.343051 0
M  V30 51 H 10.031887 7.870032 -11.542055 0
M  V30 52 H 8.958340 8.577899 -10.383289 0
M  V30 53 H 6.677376 1.458173 -12.747948 0
M  V30 54 H 6.972070 0.076429 -13.803113 0
M  V30 55 H 9.283048 3.161347 -16.197031 0
M  V30 56 H 4.819488 -0.917678 -14.703379 0
M  V30 57 H 12.175365 6.912866 -8.867306 0
M  V30 58 H 12.070605 7.732758 -10.394166 0
M  V30 59 H 6.772914 5.799225 -16.332250 0
M  V30 60 H 8.485549 5.496519 -16.068718 0
M  V30 61 H 13.644615 4.694064 -16.825375 0
M  V30 62 H 9.326773 2.684954 -12.668221 0
M  V30 63 H 9.024524 8.227706 -6.460958 0
M  V30 64 H 8.926300 9.064346 -7.989906 0
M  V30 65 H 14.838128 2.813625 -16.511226 0
M  V30 66 H 13.320036 1.912405 -16.498183 0
M  V30 67 H 14.140583 2.232652 -18.033613 0
M  V30 68 H 7.385130 0.970400 -17.098085 0
M  V30 69 H 9.132268 1.106635 -17.382842 0
M  V30 70 H 6.462261 3.450582 -16.489266 0
M  V30 END ATOM
M  V30 BEGIN BOND
M  V30 1 1 6 2
M  V30 2 1 7 1
M  V30 3 1 11 2
M  V30 4 1 13 3
M  V30 5 1 13 10
M  V30 6 1 14 4
M  V30 7 1 14 8
M  V30 8 1 15 5
M  V30 9 1 15 9
M  V30 10 1 16 3
M  V30 11 1 16 13
M  V30 12 1 17 3
M  V30 13 1 18 8
M  V30 14 1 18 9
M  V30 15 1 19 12
M  V30 16 1 20 11
M  V30 17 1 20 17
M  V30 18 1 21 12
M  V30 19 1 22 7
M  V30 20 1 22 9
M  V30 21 1 23 10
M  V30 22 1 24 6
M  V30 23 1 24 17
M  V30 24 2 25 10
M  V30 25 1 26 25
M  V30 26 2 27 23
M  V30 27 1 27 26
M  V30 28 1 28 11
M  V30 29 1 28 19
M  V30 30 1 29 27
M  V30 31 1 30 2
M  V30 32 2 30 4
M  V30 33 1 31 1
M  V30 34 1 31 15
M  V30 35 1 32 29
M  V30 36 1 33 16
M  V30 37 1 33 20
M  V30 38 1 34 1
M  V30 39 1 35 1
M  V30 40 1 3 36 CFG=3
M  V30 41 1 37 4
M  V30 42 1 38 6
M  V30 43 1 39 6
M  V30 44 1 40 7
M  V30 45 1 41 7
M  V30 46 1 42 8
M  V30 47 1 43 8
M  V30 48 1 9 44 CFG=3
M  V30 49 1 11 45 CFG=1
M  V30 50 1 46 12
M  V30 51 1 47 12
M  V30 52 1 13 48 CFG=3
M  V30 53 1 15 49 CFG=3
M  V30 54 1 16 50 CFG=3
M  V30 55 1 51 18
M  V30 56 1 52 18
M  V30 57 1 53 19
M  V30 58 1 54 19
M  V30 59 1 20 55 CFG=1
M  V30 60 1 56 21
M  V30 61 1 57 22
M  V30 62 1 58 22
M  V30 63 1 59 24
M  V30 64 1 60 24
M  V30 65 1 61 29
M  V30 66 1 62 30
M  V30 67 1 63 31
M  V30 68 1 64 31
M  V30 69 1 65 32
M  V30 70 1 66 32
M  V30 71 1 67 32
M  V30 72 1 68 33
M  V30 73 1 69 33
M  V30 74 1 17 70 CFG=3
M  V30 END BOND
M  V30 END CTAB
M  END
>  <i_epik_Tot_Q>  (1) 
1

>  <i_epik_Tot_abs_Q>  (1) 
1

>  <i_i_glide_confnum>  (1) 
631

>  <i_i_glide_lignum>  (1) 
4

>  <i_i_glide_posenum>  (1) 
182

>  <i_i_glide_rotatable_bonds>  (1) 
11

>  <i_lp_mmshare_version>  (1) 
72125

>  <i_m_source_file_index>  (1) 
1

>  <i_f3d_flags>  (1) 
0

>  <num_sample>  (1) 
50

>  <b_lp_Chiralities_Consistent>  (1) 
1

>  <r_epik_Charging_Adjusted_Penalty>  (1) 
0.41344222577729461

>  <r_epik_Ionization_Penalty>  (1) 
0.0027644559619576371

>  <r_epik_Ionization_Penalty_Charging>  (1) 
0.0027623868246906495

>  <r_epik_Ionization_Penalty_Neutral>  (1) 
2.0691372669875143e-06

>  <r_epik_State_Penalty>  (1) 
0.41067983895260396

>  <r_glide_ring_energy>  (1) 
1.2887488819257875

>  <r_i_docking_score>  (1) 
-3.6795010591134205

>  <r_i_glide_ecoul>  (1) 
-2.6512416377884689

>  <r_i_glide_eff_state_penalty>  (1) 
0.41067983895260396

>  <r_i_glide_einternal>  (1) 
11.5699310344515

>  <r_i_glide_emodel>  (1) 
-32.523053424486967

>  <r_i_glide_emodel_strain>  (1) 
1.3816795278572584

>  <r_i_glide_energy>  (1) 
-32.036878207615892

>  <r_i_glide_erotb>  (1) 
0.74142510397790429

>  <r_i_glide_esite>  (1) 
0

>  <r_i_glide_evdw>  (1) 
-29.385636569827422

>  <r_i_glide_gscore>  (1) 
-4.0901808980660244

>  <r_i_glide_gscore_strain>  (1) 
0

>  <r_i_glide_hbond>  (1) 
-0.15413846181565685

>  <r_i_glide_ligand_efficiency>  (1) 
-0.11150003209434607

>  <r_i_glide_ligand_efficiency_ln>  (1) 
-0.81830198410995159

>  <r_i_glide_ligand_efficiency_sa>  (1) 
-0.35764018073825149

>  <r_i_glide_lipo>  (1) 
-1.6744039403178119

>  <r_i_glide_metal>  (1) 
-0

>  <r_i_glide_rewards>  (1) 
-1.1360955257508185

>  <r_lp_Energy>  (1) 
41.409427000000001

>  <r_lp_tautomer_probability>  (1) 
0.5

>  <s_epik_Chemistry_Notes>  (1) 
This compound has an imine and may undergo hydrolysis. This compound contains an acetal/aminal-like group ( X-CH(R)-Y where X, Y are N, S, or O) that may be acid/base labile, releasing an aldehyde.

>  <s_epik_cmdline>  (1) 
J2VwaWtfcHl0aG9uJywgJy1waHQnLCAnMS4wJywgJy1waCcsICc3LjQnLCAnLXRuJywgJzgnLCAnLW1hJywgJzUwMCcsICctaW1hZScsICc8aW5maWxlLm1hZT4nLCAnLW9tYWUnLCAnPG91dGZpbGUubWFlPic=

>  <s_epik_input>  (1) 
W0NIMl0xW0NIMl1bQ0gyXVtDSDJdW0NASF0oRilbQ0BIXTFbQ0gyXVtDSDJdTy9bQ0hdPVtDSF1cTihbQ0BIXTJPW0NIMl1bQ0gyXVtPSF0pW0NIMl1bQ0gyXU4zW0NAQEhdMltDSDJdW0NAQEhdKFtDQEBIXTM0KVtDQEBIXTRjNW5jKG9uNSlbTkhdW0NIM10=

>  <s_glide_docking_method>  (1) 
confgen

>  <s_i_glide_gridfile>  (1) 
gpcr_drd2_6luq_protein_autoprepared_prepared

>  <s_lp_Force_Field>  (1) 
S-OPLS

>  <s_lp_Variant>  (1) 
DiffSBDD_0-4

>  <s_m_source_file>  (1) 
generated_generic_title2_ligand_DiffSBDD_2026-06-23_prepared.sdf

>  <GenAI_Model>  (1) 
DiffSBDD

>  <Protein>  (1) 
generic_title2

$$$$
DiffSBDD_18
     RDKit          3D

  0  0  0  0  0  0  0  0  0  0999 V3000
M  V30 BEGIN CTAB
M  V30 COUNTS 61 65 0 0 1
M  V30 BEGIN ATOM
M  V30 1 C 5.375406 7.543982 -17.163731 0
M  V30 2 C 9.470059 5.257537 -20.747600 0
M  V30 3 C 7.358324 4.421282 -15.663620 0 CFG=1
M  V30 4 C 6.512748 5.734054 -15.690097 0 CFG=2
M  V30 5 C 6.696992 2.225289 -19.877986 0 CFG=2
M  V30 6 C 6.166212 1.506333 -18.620622 0
M  V30 7 C 8.639337 5.097868 -19.456949 0 CFG=1
M  V30 8 C 6.387376 6.378264 -17.113406 0 CFG=1
M  V30 9 C 6.874144 4.089596 -13.140914 0
M  V30 10 O 8.934113 1.320362 -19.646170 0
M  V30 11 O 9.313281 5.990226 -18.595170 0
M  V30 12 C 6.386839 6.443645 -13.203815 0
M  V30 13 O 8.975415 -1.079466 -19.985120 0
M  V30 14 S 6.946039 5.696412 -19.802474 0
M  V30 15 C 6.391415 1.395108 -21.135499 0
M  V30 16 C 6.040190 5.389671 -18.254593 0
M  V30 17 C 6.975406 6.734143 -14.598672 0
M  V30 18 O 8.485989 4.508417 -16.533259 0
M  V30 19 C 8.672450 0.334471 -21.957774 0
M  V30 20 O 7.007446 5.361112 -12.528205 0
M  V30 21 C 7.880748 3.961326 -14.290289 0
M  V30 22 C 8.654876 3.361331 -17.365611 0 CFG=2
M  V30 23 C 8.609061 0.191946 -20.464126 0 CFG=2
M  V30 24 C 9.986026 3.325502 -18.048842 0
M  V30 25 C 8.723172 3.643898 -18.870680 0 CFG=2
M  V30 26 C 8.221889 2.544232 -19.855103 0 CFG=2
M  V30 27 C 7.319519 0.205027 -21.258485 0 CFG=1
M  V30 28 H 4.397201 7.242020 -16.788442 0
M  V30 29 H 5.698919 8.414191 -16.595936 0
M  V30 30 H 5.238134 7.894002 -18.187507 0
M  V30 31 H 10.472241 4.842643 -20.633007 0
M  V30 32 H 9.005231 4.779877 -21.608830 0
M  V30 33 H 9.582353 6.309180 -21.016842 0
M  V30 34 H 6.688007 3.629951 -15.993195 0
M  V30 35 H 5.495988 5.447699 -15.420170 0
M  V30 36 H 6.122795 3.139332 -19.989574 0
M  V30 37 H 6.714531 0.587722 -18.411579 0
M  V30 38 H 6.219173 2.128018 -17.732463 0
M  V30 39 H 5.117339 1.235554 -18.745729 0
M  V30 40 H 7.360188 6.790227 -17.345244 0
M  V30 41 H 5.848654 3.886409 -13.453899 0
M  V30 42 H 7.119354 3.348445 -12.380341 0
M  V30 43 H 9.221449 5.642419 -17.714036 0
M  V30 44 H 5.309538 6.285813 -13.256257 0
M  V30 45 H 6.528926 7.322613 -12.574048 0
M  V30 46 H 9.918176 -1.128775 -19.983107 0
M  V30 47 H 5.358264 1.045907 -21.129659 0
M  V30 48 H 6.497183 2.011672 -22.028837 0
M  V30 49 H 6.211568 4.358512 -17.985023 0
M  V30 50 H 4.975413 5.437456 -18.478567 0
M  V30 51 H 6.668398 7.746006 -14.845893 0
M  V30 52 H 8.062610 6.779336 -14.551977 0
M  V30 53 H 8.941589 1.300452 -22.378011 0
M  V30 54 H 9.014170 -0.522496 -22.534986 0
M  V30 55 H 8.175408 2.915116 -14.378238 0
M  V30 56 H 8.794504 4.497720 -14.029373 0
M  V30 57 H 8.324093 2.409880 -16.953009 0
M  V30 58 H 10.453720 2.348577 -18.140598 0
M  V30 59 H 10.691342 4.114309 -17.797708 0
M  V30 60 H 8.495039 2.865981 -20.854207 0
M  V30 61 H 6.807314 -0.747065 -21.387537 0
M  V30 END ATOM
M  V30 BEGIN BOND
M  V30 1 1 4 3
M  V30 2 1 6 5
M  V30 3 1 7 2
M  V30 4 1 8 1
M  V30 5 1 8 4
M  V30 6 1 7 11 CFG=1
M  V30 7 1 14 7
M  V30 8 1 15 5
M  V30 9 1 16 8
M  V30 10 1 16 14
M  V30 11 1 17 4
M  V30 12 1 17 12
M  V30 13 1 18 3
M  V30 14 1 20 9
M  V30 15 1 20 12
M  V30 16 1 21 3
M  V30 17 1 21 9
M  V30 18 1 22 18
M  V30 19 1 23 10
M  V30 20 1 23 13 CFG=1
M  V30 21 1 23 19
M  V30 22 1 24 22
M  V30 23 1 25 7
M  V30 24 1 25 22
M  V30 25 1 25 24 CFG=3
M  V30 26 1 26 5
M  V30 27 1 26 10
M  V30 28 1 26 25
M  V30 29 1 27 15
M  V30 30 1 27 19
M  V30 31 1 27 23
M  V30 32 1 28 1
M  V30 33 1 29 1
M  V30 34 1 30 1
M  V30 35 1 31 2
M  V30 36 1 32 2
M  V30 37 1 33 2
M  V30 38 1 3 34 CFG=3
M  V30 39 1 4 35 CFG=1
M  V30 40 1 5 36 CFG=3
M  V30 41 1 37 6
M  V30 42 1 38 6
M  V30 43 1 39 6
M  V30 44 1 8 40 CFG=3
M  V30 45 1 41 9
M  V30 46 1 42 9
M  V30 47 1 43 11
M  V30 48 1 44 12
M  V30 49 1 45 12
M  V30 50 1 46 13
M  V30 51 1 47 15
M  V30 52 1 48 15
M  V30 53 1 49 16
M  V30 54 1 50 16
M  V30 55 1 51 17
M  V30 56 1 52 17
M  V30 57 1 53 19
M  V30 58 1 54 19
M  V30 59 1 55 21
M  V30 60 1 56 21
M  V30 61 1 22 57 CFG=3
M  V30 62 1 58 24
M  V30 63 1 59 24
M  V30 64 1 26 60 CFG=3
M  V30 65 1 27 61 CFG=3
M  V30 END BOND
M  V30 END CTAB
M  END
>  <i_epik_Tot_Q>  (1) 
0

>  <i_epik_Tot_abs_Q>  (1) 
0

>  <i_i_glide_confnum>  (1) 
2

>  <i_i_glide_lignum>  (1) 
62

>  <i_i_glide_posenum>  (1) 
105

>  <i_i_glide_rotatable_bonds>  (1) 
3

>  <i_lp_mmshare_version>  (1) 
72125

>  <i_m_source_file_index>  (1) 
19

>  <i_f3d_flags>  (1) 
0

>  <num_sample>  (1) 
50

>  <b_lp_Chiralities_Consistent>  (1) 
1

>  <r_epik_Charging_Adjusted_Penalty>  (1) 
0

>  <r_epik_Ionization_Penalty>  (1) 
6.7783705848961877e-07

>  <r_epik_Ionization_Penalty_Charging>  (1) 
0

>  <r_epik_Ionization_Penalty_Neutral>  (1) 
6.7783705848961877e-07

>  <r_epik_State_Penalty>  (1) 
-0

>  <r_glide_ring_energy>  (1) 
0

>  <r_i_docking_score>  (1) 
-3.6750389988160235

>  <r_i_glide_ecoul>  (1) 
0.68558816426165747

>  <r_i_glide_eff_state_penalty>  (1) 
-0

>  <r_i_glide_einternal>  (1) 
0.006684752463964827

>  <r_i_glide_emodel>  (1) 
-26.469983293669316

>  <r_i_glide_emodel_strain>  (1) 
0.01156588925900337

>  <r_i_glide_energy>  (1) 
-23.244176838137669

>  <r_i_glide_erotb>  (1) 
0.12329427839652905

>  <r_i_glide_esite>  (1) 
0

>  <r_i_glide_evdw>  (1) 
-23.929765002399325

>  <r_i_glide_gscore>  (1) 
-3.6750389988160235

>  <r_i_glide_gscore_strain>  (1) 
0

>  <r_i_glide_hbond>  (1) 
0

>  <r_i_glide_ligand_efficiency>  (1) 
-0.13611255551170456

>  <r_i_glide_ligand_efficiency_ln>  (1) 
-0.85548849117128456

>  <r_i_glide_ligand_efficiency_sa>  (1) 
-0.40833766653511377

>  <r_i_glide_lipo>  (1) 
-1.631288723900002

>  <r_i_glide_metal>  (1) 
-0

>  <r_i_glide_rewards>  (1) 
-1.073394527831832

>  <r_lp_Energy>  (1) 
41.521923000000001

>  <r_lp_tautomer_probability>  (1) 
1

>  <s_epik_cmdline>  (1) 
J2VwaWtfcHl0aG9uJywgJy1waHQnLCAnMS4wJywgJy1waCcsICc3LjQnLCAnLXRuJywgJzgnLCAnLW1hJywgJzUwMCcsICctaW1hZScsICc8aW5maWxlLm1hZT4nLCAnLW9tYWUnLCAnPG91dGZpbGUubWFlPic=

>  <s_epik_input>  (1) 
W0NIM11bQ0BAXTEoW09IXSlTW0NIMl1bQ0BASF0oW0NIM10pW0NASF0oW0NIMl1bQ0gyXU9bQ0gyXVtDSDJdMilbQ0BASF0yT1tDQEhdKFtDSDJdMylDMTNbQ0BASF0oTzQpW0NASF0oW0NIM10pW0NIMl1bQ0BASF0oW0NIMl01KUM0NVtPSF0=

>  <s_glide_docking_method>  (1) 
confgen

>  <s_i_glide_gridfile>  (1) 
gpcr_drd2_6luq_protein_autoprepared_prepared

>  <s_lp_Force_Field>  (1) 
S-OPLS

>  <s_lp_Variant>  (1) 
DiffSBDD_18-2

>  <s_m_source_file>  (1) 
generated_generic_title2_ligand_DiffSBDD_2026-06-23_prepared.sdf

>  <GenAI_Model>  (1) 
DiffSBDD

>  <Protein>  (1) 
generic_title2

$$$$
DiffSBDD_18
     RDKit          3D

  0  0  0  0  0  0  0  0  0  0999 V3000
M  V30 BEGIN CTAB
M  V30 COUNTS 61 65 0 0 1
M  V30 BEGIN ATOM
M  V30 1 C 5.298207 7.099944 -17.670418 0
M  V30 2 C 10.015083 4.988305 -20.559622 0
M  V30 3 C 7.514471 4.520043 -15.602338 0 CFG=1
M  V30 4 C 6.518267 5.688158 -15.865425 0 CFG=2
M  V30 5 C 8.418092 1.065148 -18.811447 0 CFG=2
M  V30 6 C 9.385493 0.222089 -17.944921 0
M  V30 7 C 9.101327 4.908219 -19.321975 0 CFG=1
M  V30 8 C 6.458153 6.124247 -17.371533 0 CFG=1
M  V30 9 C 6.883371 4.418608 -13.089602 0
M  V30 10 O 10.217114 1.975353 -20.166997 0
M  V30 11 O 9.566646 5.990227 -18.543808 0
M  V30 12 C 6.066724 6.636653 -13.498574 0
M  V30 13 O 11.329452 0.225649 -21.428164 0
M  V30 14 S 7.377670 5.190142 -19.877907 0
M  V30 15 C 7.869845 0.191136 -19.952394 0
M  V30 16 C 6.369490 4.945967 -18.385059 0
M  V30 17 C 6.721325 6.864219 -14.876014 0
M  V30 18 O 8.695197 4.671064 -16.391374 0
M  V30 19 C 9.105843 0.934592 -22.182491 0
M  V30 20 O 6.786451 5.761182 -12.648350 0
M  V30 21 C 7.983230 4.307244 -14.150122 0
M  V30 22 C 9.086260 3.464126 -17.038472 0 CFG=2
M  V30 23 C 10.129278 0.878170 -21.083972 0 CFG=2
M  V30 24 C 10.489332 3.484212 -17.584990 0
M  V30 25 C 9.307552 3.566583 -18.549070 0 CFG=2
M  V30 26 C 9.030485 2.341254 -19.458598 0 CFG=2
M  V30 27 C 8.922902 -0.042786 -21.021397 0 CFG=1
M  V30 28 H 4.338750 6.683786 -17.361485 0
M  V30 29 H 5.416368 8.065813 -17.183188 0
M  V30 30 H 5.235196 7.310382 -18.738662 0
M  V30 31 H 11.057541 4.802870 -20.297797 0
M  V30 32 H 9.732980 4.264109 -21.323503 0
M  V30 33 H 9.963970 5.972725 -21.027033 0
M  V30 34 H 6.975445 3.612345 -15.879214 0
M  V30 35 H 5.528749 5.292440 -15.640163 0
M  V30 36 H 7.568868 1.356095 -18.192083 0
M  V30 37 H 10.246842 -0.126866 -18.514174 0
M  V30 38 H 9.775293 0.756268 -17.085198 0
M  V30 39 H 8.880875 -0.662588 -17.555016 0
M  V30 40 H 7.373859 6.672119 -17.577567 0
M  V30 41 H 5.925955 4.023521 -13.433055 0
M  V30 42 H 7.172234 3.825397 -12.221645 0
M  V30 43 H 9.433341 5.749418 -17.632968 0
M  V30 44 H 5.037843 6.291025 -13.602915 0
M  V30 45 H 6.008586 7.590211 -12.974213 0
M  V30 46 H 11.858227 0.828947 -21.927089 0
M  V30 47 H 7.522170 -0.769657 -19.570908 0
M  V30 48 H 7.003136 0.666552 -20.413598 0
M  V30 49 H 6.634751 3.979321 -17.972347 0
M  V30 50 H 5.337646 4.815758 -18.709972 0
M  V30 51 H 6.275985 7.773788 -15.268982 0
M  V30 52 H 7.777370 7.099772 -14.764167 0
M  V30 53 H 8.445562 1.796995 -22.235027 0
M  V30 54 H 9.374387 0.510491 -23.148131 0
M  V30 55 H 8.428460 3.314725 -14.081615 0
M  V30 56 H 8.788659 5.000892 -13.904446 0
M  V30 57 H 8.767325 2.554034 -16.539395 0
M  V30 58 H 11.056236 2.556783 -17.569408 0
M  V30 59 H 11.088905 4.369699 -17.386833 0
M  V30 60 H 8.302025 2.670769 -20.195562 0
M  V30 61 H 9.091660 -1.092555 -21.255711 0
M  V30 END ATOM
M  V30 BEGIN BOND
M  V30 1 1 4 3
M  V30 2 1 6 5
M  V30 3 1 7 2
M  V30 4 1 8 1
M  V30 5 1 8 4
M  V30 6 1 7 11 CFG=1
M  V30 7 1 14 7
M  V30 8 1 15 5
M  V30 9 1 16 8
M  V30 10 1 16 14
M  V30 11 1 17 4
M  V30 12 1 17 12
M  V30 13 1 18 3
M  V30 14 1 20 9
M  V30 15 1 20 12
M  V30 16 1 21 3
M  V30 17 1 21 9
M  V30 18 1 22 18
M  V30 19 1 23 10
M  V30 20 1 23 13 CFG=3
M  V30 21 1 23 19
M  V30 22 1 24 22
M  V30 23 1 25 7
M  V30 24 1 25 22
M  V30 25 1 25 24 CFG=1
M  V30 26 1 26 5
M  V30 27 1 26 10
M  V30 28 1 26 25
M  V30 29 1 27 15
M  V30 30 1 27 19
M  V30 31 1 27 23
M  V30 32 1 28 1
M  V30 33 1 29 1
M  V30 34 1 30 1
M  V30 35 1 31 2
M  V30 36 1 32 2
M  V30 37 1 33 2
M  V30 38 1 3 34 CFG=3
M  V30 39 1 4 35 CFG=1
M  V30 40 1 5 36 CFG=1
M  V30 41 1 37 6
M  V30 42 1 38 6
M  V30 43 1 39 6
M  V30 44 1 8 40 CFG=3
M  V30 45 1 41 9
M  V30 46 1 42 9
M  V30 47 1 43 11
M  V30 48 1 44 12
M  V30 49 1 45 12
M  V30 50 1 46 13
M  V30 51 1 47 15
M  V30 52 1 48 15
M  V30 53 1 49 16
M  V30 54 1 50 16
M  V30 55 1 51 17
M  V30 56 1 52 17
M  V30 57 1 53 19
M  V30 58 1 54 19
M  V30 59 1 55 21
M  V30 60 1 56 21
M  V30 61 1 22 57 CFG=3
M  V30 62 1 58 24
M  V30 63 1 59 24
M  V30 64 1 26 60 CFG=3
M  V30 65 1 27 61 CFG=3
M  V30 END BOND
M  V30 END CTAB
M  END
>  <i_epik_Tot_Q>  (1) 
0

>  <i_epik_Tot_abs_Q>  (1) 
0

>  <i_i_glide_confnum>  (1) 
2

>  <i_i_glide_lignum>  (1) 
62

>  <i_i_glide_posenum>  (1) 
105

>  <i_i_glide_rotatable_bonds>  (1) 
3

>  <i_lp_mmshare_version>  (1) 
72125

>  <i_m_source_file_index>  (1) 
19

>  <i_f3d_flags>  (1) 
0

>  <num_sample>  (1) 
50

>  <b_lp_Chiralities_Consistent>  (1) 
1

>  <r_epik_Charging_Adjusted_Penalty>  (1) 
0

>  <r_epik_Ionization_Penalty>  (1) 
6.7783705848961877e-07

>  <r_epik_Ionization_Penalty_Charging>  (1) 
0

>  <r_epik_Ionization_Penalty_Neutral>  (1) 
6.7783705848961877e-07

>  <r_epik_State_Penalty>  (1) 
-0

>  <r_glide_ring_energy>  (1) 
0

>  <r_i_docking_score>  (1) 
-3.6564265516207231

>  <r_i_glide_ecoul>  (1) 
0.32723877934927997

>  <r_i_glide_eff_state_penalty>  (1) 
-0

>  <r_i_glide_einternal>  (1) 
1.9671388486524597

>  <r_i_glide_emodel>  (1) 
-25.551984081390607

>  <r_i_glide_emodel_strain>  (1) 
0.0075052570014548792

>  <r_i_glide_energy>  (1) 
-23.318756828509489

>  <r_i_glide_erotb>  (1) 
0.12329427839652905

>  <r_i_glide_esite>  (1) 
0

>  <r_i_glide_evdw>  (1) 
-23.645995607858769

>  <r_i_glide_gscore>  (1) 
-3.6564265516207231

>  <r_i_glide_gscore_strain>  (1) 
0

>  <r_i_glide_hbond>  (1) 
0

>  <r_i_glide_ligand_efficiency>  (1) 
-0.13542320561558233

>  <r_i_glide_ligand_efficiency_ln>  (1) 
-0.8511558203143923

>  <r_i_glide_ligand_efficiency_sa>  (1) 
-0.40626961684674706

>  <r_i_glide_lipo>  (1) 
-1.5179158899687937

>  <r_i_glide_metal>  (1) 
-0

>  <r_i_glide_rewards>  (1) 
-1.1285909765579116

>  <r_lp_Energy>  (1) 
41.521923000000001

>  <r_lp_tautomer_probability>  (1) 
1

>  <s_epik_cmdline>  (1) 
J2VwaWtfcHl0aG9uJywgJy1waHQnLCAnMS4wJywgJy1waCcsICc3LjQnLCAnLXRuJywgJzgnLCAnLW1hJywgJzUwMCcsICctaW1hZScsICc8aW5maWxlLm1hZT4nLCAnLW9tYWUnLCAnPG91dGZpbGUubWFlPic=

>  <s_epik_input>  (1) 
W0NIM11bQ0BAXTEoW09IXSlTW0NIMl1bQ0BASF0oW0NIM10pW0NASF0oW0NIMl1bQ0gyXU9bQ0gyXVtDSDJdMilbQ0BASF0yT1tDQEhdKFtDSDJdMylDMTNbQ0BASF0oTzQpW0NASF0oW0NIM10pW0NIMl1bQ0BASF0oW0NIMl01KUM0NVtPSF0=

>  <s_glide_docking_method>  (1) 
confgen

>  <s_i_glide_gridfile>  (1) 
gpcr_drd2_6luq_protein_autoprepared_prepared

>  <s_lp_Force_Field>  (1) 
S-OPLS

>  <s_lp_Variant>  (1) 
DiffSBDD_18-2

>  <s_m_source_file>  (1) 
generated_generic_title2_ligand_DiffSBDD_2026-06-23_prepared.sdf

>  <GenAI_Model>  (1) 
DiffSBDD

>  <Protein>  (1) 
generic_title2

$$$$
DiffSBDD_8
     RDKit          3D

  0  0  0  0  0  0  0  0  0  0999 V3000
M  V30 BEGIN CTAB
M  V30 COUNTS 69 72 0 0 1
M  V30 BEGIN ATOM
M  V30 1 N 7.202082 4.404307 -15.465673 0
M  V30 2 C 6.841186 4.255622 -18.830887 0
M  V30 3 C 6.872614 5.906240 -11.688307 0 CFG=1
M  V30 4 N 8.892749 4.427167 -19.973476 0
M  V30 5 O 9.183228 4.574249 -13.310313 0
M  V30 6 C 9.543166 4.790789 -8.626121 0
M  V30 7 F 10.322647 4.679069 -18.194700 0
M  V30 8 C 10.393610 5.810886 -7.849346 0
M  V30 9 N 8.975642 5.389186 -9.831230 0
M  V30 10 C 8.843639 4.480931 -10.980016 0 CFG=1
M  V30 11 C 9.218060 4.055941 -18.606125 0 CFG=1
M  V30 12 C 12.175446 7.453801 -2.999787 0
M  V30 13 C 7.494091 4.524019 -11.665528 0 CFG=2
M  V30 14 O 10.082258 6.315564 -12.054675 0
M  V30 15 O 9.740331 3.625009 -20.812327 0
M  V30 16 C 9.566518 6.761853 -6.974239 0
M  V30 17 C 7.727714 2.674200 -13.529493 0
M  V30 18 C 6.726001 5.783195 -15.616425 0
M  V30 19 C 6.926520 3.795416 -14.190141 0 CFG=1
M  V30 20 C 7.976060 4.503885 -17.827503 0 CFG=2
M  V30 21 C 7.778625 3.733693 -16.501521 0
M  V30 22 C 5.500644 6.170403 -12.201980 0
M  V30 23 C 9.797478 4.929964 -12.102073 0 CFG=2
M  V30 24 C 7.869469 4.094914 -13.047160 0 CFG=2
M  V30 25 O 12.488958 8.390270 -1.987678 0
M  V30 26 O 8.131759 2.557696 -16.420215 0
M  V30 27 C 11.730341 8.178960 -4.278931 0
M  V30 28 C 10.382551 4.512762 -21.709955 0
M  V30 29 C 7.547763 3.894869 -20.139969 0
M  V30 30 O 11.030813 7.289383 -5.144304 0
M  V30 31 C 10.444664 7.783754 -6.250751 0
M  V30 32 N 5.753188 5.990189 -10.785032 0 CHG=1
M  V30 33 O 10.576662 8.933206 -6.663912 0
M  V30 34 H 6.165540 3.452632 -18.531275 0
M  V30 35 H 6.243451 5.159895 -18.953285 0
M  V30 36 H 7.521480 6.772455 -11.585029 0
M  V30 37 H 10.175464 3.944557 -8.888057 0
M  V30 38 H 8.750063 4.387589 -7.995274 0
M  V30 39 H 11.010468 6.385077 -8.542312 0
M  V30 40 H 11.090624 5.269963 -7.208795 0
M  V30 41 H 9.576373 6.157202 -10.124987 0
M  V30 42 H 9.107097 3.449018 -10.760925 0
M  V30 43 H 9.389793 2.980443 -18.531655 0
M  V30 44 H 13.036941 6.815248 -3.184991 0
M  V30 45 H 11.375772 6.811619 -2.628389 0
M  V30 46 H 6.797892 3.805065 -11.232810 0
M  V30 47 H 9.288935 6.779748 -12.269308 0
M  V30 48 H 8.994571 6.199024 -6.236193 0
M  V30 49 H 8.842521 7.297847 -7.590581 0
M  V30 50 H 8.575405 2.231783 -14.036545 0
M  V30 51 H 7.176975 1.982963 -12.895797 0
M  V30 52 H 7.561935 6.479460 -15.585026 0
M  V30 53 H 6.157764 5.936521 -16.534363 0
M  V30 54 H 6.054260 6.059375 -14.806785 0
M  V30 55 H 5.866508 3.742120 -13.953877 0
M  V30 56 H 8.097443 5.576096 -17.676817 0
M  V30 57 H 5.157747 7.184385 -12.398592 0
M  V30 58 H 4.975435 5.332929 -12.639719 0
M  V30 59 H 10.740748 4.404596 -11.985023 0
M  V30 60 H 13.156220 8.985561 -2.297936 0
M  V30 61 H 11.055720 8.992979 -4.010246 0
M  V30 62 H 12.576568 8.639541 -4.785082 0
M  V30 63 H 11.064236 3.952779 -22.349894 0
M  V30 64 H 9.660067 5.018926 -22.351552 0
M  V30 65 H 10.965422 5.266665 -21.178866 0
M  V30 66 H 7.584690 2.809597 -20.253217 0
M  V30 67 H 7.051320 4.313033 -21.015756 0
M  V30 68 H 5.608747 5.092777 -10.343712 0
M  V30 69 H 6.015607 6.775933 -10.178982 0
M  V30 END ATOM
M  V30 BEGIN BOND
M  V30 1 1 8 6
M  V30 2 1 9 6
M  V30 3 1 10 9
M  V30 4 1 11 4
M  V30 5 1 11 7
M  V30 6 1 13 3
M  V30 7 1 13 10
M  V30 8 1 15 4
M  V30 9 1 16 8
M  V30 10 1 18 1
M  V30 11 1 19 1
M  V30 12 1 19 17
M  V30 13 1 20 2
M  V30 14 1 20 11
M  V30 15 1 21 1
M  V30 16 1 21 20
M  V30 17 1 22 3
M  V30 18 1 23 5
M  V30 19 1 23 10
M  V30 20 1 23 14
M  V30 21 1 24 5 CFG=3
M  V30 22 1 24 13
M  V30 23 1 24 17
M  V30 24 1 24 19
M  V30 25 1 25 12
M  V30 26 2 26 21
M  V30 27 1 27 12
M  V30 28 1 28 15
M  V30 29 1 29 2
M  V30 30 1 29 4
M  V30 31 1 30 27
M  V30 32 1 31 16
M  V30 33 1 31 30
M  V30 34 1 32 3
M  V30 35 1 32 22
M  V30 36 2 33 31
M  V30 37 1 34 2
M  V30 38 1 35 2
M  V30 39 1 3 36 CFG=1
M  V30 40 1 37 6
M  V30 41 1 38 6
M  V30 42 1 39 8
M  V30 43 1 40 8
M  V30 44 1 41 9
M  V30 45 1 10 42 CFG=1
M  V30 46 1 11 43 CFG=3
M  V30 47 1 44 12
M  V30 48 1 45 12
M  V30 49 1 13 46 CFG=1
M  V30 50 1 47 14
M  V30 51 1 48 16
M  V30 52 1 49 16
M  V30 53 1 50 17
M  V30 54 1 51 17
M  V30 55 1 52 18
M  V30 56 1 53 18
M  V30 57 1 54 18
M  V30 58 1 19 55 CFG=1
M  V30 59 1 20 56 CFG=1
M  V30 60 1 57 22
M  V30 61 1 58 22
M  V30 62 1 23 59 CFG=1
M  V30 63 1 60 25
M  V30 64 1 61 27
M  V30 65 1 62 27
M  V30 66 1 63 28
M  V30 67 1 64 28
M  V30 68 1 65 28
M  V30 69 1 66 29
M  V30 70 1 67 29
M  V30 71 1 68 32
M  V30 72 1 69 32
M  V30 END BOND
M  V30 END CTAB
M  END
>  <i_epik_Tot_Q>  (1) 
1

>  <i_epik_Tot_abs_Q>  (1) 
1

>  <i_i_glide_confnum>  (1) 
1707

>  <i_i_glide_lignum>  (1) 
37

>  <i_i_glide_posenum>  (1) 
331

>  <i_i_glide_rotatable_bonds>  (1) 
15

>  <i_lp_mmshare_version>  (1) 
72125

>  <i_m_source_file_index>  (1) 
9

>  <i_f3d_flags>  (1) 
0

>  <num_sample>  (1) 
50

>  <b_lp_Chiralities_Consistent>  (1) 
1

>  <r_epik_Charging_Adjusted_Penalty>  (1) 
1.2103720943885907

>  <r_epik_Ionization_Penalty>  (1) 
0.55446808147534954

>  <r_epik_Ionization_Penalty_Charging>  (1) 
0.13553905892425583

>  <r_epik_Ionization_Penalty_Neutral>  (1) 
0.41892902255109377

>  <r_epik_State_Penalty>  (1) 
1.074833035464335

>  <r_glide_ring_energy>  (1) 
0

>  <r_i_docking_score>  (1) 
-3.6456627482793089

>  <r_i_glide_ecoul>  (1) 
-7.0681956542443221

>  <r_i_glide_eff_state_penalty>  (1) 
1.074833035464335

>  <r_i_glide_einternal>  (1) 
14.919631794466618

>  <r_i_glide_emodel>  (1) 
-46.40026348591384

>  <r_i_glide_emodel_strain>  (1) 
3.9689921201776457

>  <r_i_glide_energy>  (1) 
-43.302816863399116

>  <r_i_glide_erotb>  (1) 
1.0741905119875848

>  <r_i_glide_esite>  (1) 
-0.080678946823924833

>  <r_i_glide_evdw>  (1) 
-36.234621209154795

>  <r_i_glide_gscore>  (1) 
-4.7204957837436439

>  <r_i_glide_gscore_strain>  (1) 
0

>  <r_i_glide_hbond>  (1) 
-0.20000000000000001

>  <r_i_glide_ligand_efficiency>  (1) 
-0.11047462873573663

>  <r_i_glide_ligand_efficiency_ln>  (1) 
-0.81077651898584191

>  <r_i_glide_ligand_efficiency_sa>  (1) 
-0.35435116426341873

>  <r_i_glide_lipo>  (1) 
-1.514160472439211

>  <r_i_glide_metal>  (1) 
-0

>  <r_i_glide_rewards>  (1) 
-1.1278864678737048

>  <r_lp_Energy>  (1) 
37.411439999999999

>  <s_epik_Chemistry_Notes>  (1) 
This compound has an ester and may undergo hydrolysis at high or low pH. This compound contains an acetal/aminal-like group ( X-CH(R)-Y where X, Y are N, S, or O) that may be acid/base labile, releasing an aldehyde. This compound has a N-S or N-O group and may undergo hydrolysis at high or low pH.

>  <s_epik_cmdline>  (1) 
J2VwaWtfcHl0aG9uJywgJy1waHQnLCAnMS4wJywgJy1waCcsICc3LjQnLCAnLXRuJywgJzgnLCAnLW1hJywgJzUwMCcsICctaW1hZScsICc8aW5maWxlLm1hZT4nLCAnLW9tYWUnLCAnPG91dGZpbGUubWFlPic=

>  <s_epik_input>  (1) 
W0NIM11PTjFbQ0BIXShGKVtDQEBIXShbQ0gyXVtDSDJdMSlDKD1PKU4oW0NIM10pW0NASF0yW0NIMl1DMjNPW0NAQEhdKFtPSF0pW0NASF0oW0NASF0zW0NASF00W0NIMl1bTkhdNClbTkhdW0NIMl1bQ0gyXVtDSDJdQyg9TylPW0NIMl1bQ0gyXVtPSF0=

>  <s_glide_docking_method>  (1) 
confgen

>  <s_i_glide_gridfile>  (1) 
gpcr_drd2_6luq_protein_autoprepared_prepared

>  <s_lp_Force_Field>  (1) 
S-OPLS

>  <s_lp_Variant>  (1) 
DiffSBDD_8-6

>  <s_m_source_file>  (1) 
generated_generic_title2_ligand_DiffSBDD_2026-06-23_prepared.sdf

>  <GenAI_Model>  (1) 
DiffSBDD

>  <Protein>  (1) 
generic_title2

$$$$
DiffSBDD_35
     RDKit          3D

  0  0  0  0  0  0  0  0  0  0999 V3000
M  V30 BEGIN CTAB
M  V30 COUNTS 81 86 0 0 1
M  V30 BEGIN ATOM
M  V30 1 C 10.562043 0.258067 -18.564662 0
M  V30 2 O 8.709566 0.041544 -20.126642 0
M  V30 3 C 12.800169 5.830984 -18.905018 0
M  V30 4 C 19.959500 5.621349 -21.096835 0
M  V30 5 O 10.887841 -0.409535 -17.585015 0
M  V30 6 C 18.816023 6.808672 -19.581774 0
M  V30 7 C 18.782968 5.060390 -20.926190 0
M  V30 8 C 13.420907 5.330055 -20.235157 0
M  V30 9 C 13.604433 1.882096 -18.996782 0
M  V30 10 C 15.054358 6.499593 -17.820146 0
M  V30 11 C 7.718412 -2.843010 -18.418160 0
M  V30 12 F 20.869966 5.122543 -21.949391 0
M  V30 13 C 7.426288 4.062948 -18.884653 0
M  V30 14 O 16.467720 2.817158 -19.984851 0
M  V30 15 C 8.755607 2.048560 -18.643298 0
M  V30 16 N 7.498865 2.580644 -18.897416 0
M  V30 17 C 11.192986 1.525493 -20.663366 0
M  V30 18 C 20.230611 6.879204 -20.262912 0
M  V30 19 C 6.579623 -1.864881 -18.049559 0 CFG=2
M  V30 20 N 11.502753 0.747821 -19.444153 0
M  V30 21 C 15.972833 6.040135 -18.635435 0
M  V30 22 O 4.345925 -1.262581 -18.806628 0
M  V30 23 F 18.177841 7.340649 -17.360642 0
M  V30 24 O 15.962281 4.399191 -21.912406 0
M  V30 25 N 14.169156 4.051773 -20.086735 0
M  V30 26 F 19.381332 8.782526 -18.384798 0
M  V30 27 C 9.027235 0.556471 -18.824220 0 CFG=2
M  V30 28 C 13.441203 2.758620 -20.256846 0
M  V30 29 C 5.298567 -2.305541 -18.787719 0
M  V30 30 O 5.375533 2.599497 -19.727042 0
M  V30 31 C 6.919031 -0.377334 -18.275116 0
M  V30 32 S 15.878270 4.069821 -20.480999 0
M  V30 33 F 17.342455 8.554162 -18.961804 0
M  V30 34 C 8.177845 0.059911 -17.663863 0
M  V30 35 C 6.090142 0.423837 -19.003807 0
M  V30 36 C 21.562044 7.241062 -19.662572 0
M  V30 37 C 20.959501 8.088029 -20.782592 0
M  V30 38 C 18.056043 5.772635 -19.996938 0
M  V30 39 C 13.709905 5.815739 -17.654486 0
M  V30 40 C 6.289258 1.923319 -19.252495 0
M  V30 41 O 9.686242 2.779413 -18.285401 0
M  V30 42 C 18.418924 7.880333 -18.556468 0
M  V30 43 C 11.940197 2.876912 -20.641167 0
M  V30 44 C 12.931079 0.518087 -19.205559 0
M  V30 45 C 16.686132 5.432106 -19.553684 0
M  V30 46 C 4.801526 -0.161450 -19.574685 0
M  V30 47 H 7.775511 0.086913 -20.256819 0
M  V30 48 H 12.443544 6.849632 -19.062541 0
M  V30 49 H 11.908435 5.251058 -18.671208 0
M  V30 50 H 18.445302 4.171835 -21.437474 0
M  V30 51 H 14.099945 6.094563 -20.612255 0
M  V30 52 H 12.669630 5.272001 -21.019347 0
M  V30 53 H 14.652508 1.722719 -18.752888 0
M  V30 54 H 13.165965 2.384914 -18.133156 0
M  V30 55 H 15.236823 7.370336 -17.204422 0
M  V30 56 H 8.575786 -2.775302 -17.750503 0
M  V30 57 H 7.372246 -3.874893 -18.348972 0
M  V30 58 H 8.070944 -2.681325 -19.437308 0
M  V30 59 H 6.449795 4.432952 -18.567280 0
M  V30 60 H 8.121907 4.546670 -18.197074 0
M  V30 61 H 7.621639 4.454807 -19.883608 0
M  V30 62 H 11.541265 0.938807 -21.514094 0
M  V30 63 H 10.155040 1.745400 -20.880172 0
M  V30 64 H 6.382342 -1.961886 -16.981404 0
M  V30 65 H 13.925358 2.233156 -21.081892 0
M  V30 66 H 5.516574 -2.609057 -19.813315 0
M  V30 67 H 4.862401 -3.174335 -18.292515 0
M  V30 68 H 8.618063 -0.767271 -17.115098 0
M  V30 69 H 7.955639 0.761929 -16.852339 0
M  V30 70 H 21.593375 7.685250 -18.672708 0
M  V30 71 H 22.412010 6.608022 -19.911775 0
M  V30 72 H 21.416965 8.012744 -21.767096 0
M  V30 73 H 20.578139 9.073202 -20.524624 0
M  V30 74 H 13.188090 6.283105 -16.819014 0
M  V30 75 H 13.890108 4.783416 -17.351055 0
M  V30 76 H 11.839273 3.334274 -21.625365 0
M  V30 77 H 11.425711 3.529212 -19.941812 0
M  V30 78 H 13.141282 -0.123242 -18.348550 0
M  V30 79 H 13.361685 0.008564 -20.068714 0
M  V30 80 H 3.990153 0.567571 -19.578784 0
M  V30 81 H 4.975274 -0.456302 -20.610452 0
M  V30 END ATOM
M  V30 BEGIN BOND
M  V30 1 2 5 1
M  V30 2 2 7 4
M  V30 3 1 8 3
M  V30 4 1 12 4
M  V30 5 1 16 13
M  V30 6 1 16 15
M  V30 7 1 18 4
M  V30 8 1 18 6
M  V30 9 1 19 11
M  V30 10 1 20 1
M  V30 11 1 20 17
M  V30 12 2 21 10
M  V30 13 1 25 8
M  V30 14 1 27 1
M  V30 15 1 27 2 CFG=3
M  V30 16 1 27 15
M  V30 17 1 28 9
M  V30 18 1 28 25
M  V30 19 1 29 19
M  V30 20 1 29 22
M  V30 21 1 31 19
M  V30 22 2 32 14
M  V30 23 2 32 24
M  V30 24 1 32 25
M  V30 25 1 34 27
M  V30 26 1 34 31
M  V30 27 2 35 31
M  V30 28 1 36 18
M  V30 29 1 37 18
M  V30 30 1 37 36
M  V30 31 2 38 6
M  V30 32 1 38 7
M  V30 33 1 39 3
M  V30 34 1 39 10
M  V30 35 1 40 16
M  V30 36 2 40 30
M  V30 37 1 40 35
M  V30 38 2 41 15
M  V30 39 1 42 6
M  V30 40 1 42 23
M  V30 41 1 42 26
M  V30 42 1 42 33
M  V30 43 1 43 17
M  V30 44 1 43 28
M  V30 45 1 44 9
M  V30 46 1 44 20
M  V30 47 2 45 21
M  V30 48 1 45 32
M  V30 49 1 45 38
M  V30 50 1 46 22
M  V30 51 1 46 35
M  V30 52 1 47 2
M  V30 53 1 48 3
M  V30 54 1 49 3
M  V30 55 1 50 7
M  V30 56 1 51 8
M  V30 57 1 52 8
M  V30 58 1 53 9
M  V30 59 1 54 9
M  V30 60 1 55 10
M  V30 61 1 56 11
M  V30 62 1 57 11
M  V30 63 1 58 11
M  V30 64 1 59 13
M  V30 65 1 60 13
M  V30 66 1 61 13
M  V30 67 1 62 17
M  V30 68 1 63 17
M  V30 69 1 19 64 CFG=1
M  V30 70 1 65 28
M  V30 71 1 66 29
M  V30 72 1 67 29
M  V30 73 1 68 34
M  V30 74 1 69 34
M  V30 75 1 70 36
M  V30 76 1 71 36
M  V30 77 1 72 37
M  V30 78 1 73 37
M  V30 79 1 74 39
M  V30 80 1 75 39
M  V30 81 1 76 43
M  V30 82 1 77 43
M  V30 83 1 78 44
M  V30 84 1 79 44
M  V30 85 1 80 46
M  V30 86 1 81 46
M  V30 END BOND
M  V30 END CTAB
M  END
>  <i_epik_Tot_Q>  (1) 
0

>  <i_epik_Tot_abs_Q>  (1) 
0

>  <i_i_glide_confnum>  (1) 
91

>  <i_i_glide_lignum>  (1) 
98

>  <i_i_glide_posenum>  (1) 
255

>  <i_i_glide_rotatable_bonds>  (1) 
6

>  <i_lp_mmshare_version>  (1) 
72125

>  <i_m_source_file_index>  (1) 
36

>  <i_f3d_flags>  (1) 
0

>  <num_sample>  (1) 
50

>  <b_lp_Chiralities_Consistent>  (1) 
1

>  <r_epik_Charging_Adjusted_Penalty>  (1) 
0.04028888123744899

>  <r_epik_Ionization_Penalty>  (1) 
0.040288881244714927

>  <r_epik_Ionization_Penalty_Charging>  (1) 
0

>  <r_epik_Ionization_Penalty_Neutral>  (1) 
0.040288881244714927

>  <r_epik_State_Penalty>  (1) 
0.04028888123744899

>  <r_glide_ring_energy>  (1) 
0

>  <r_i_docking_score>  (1) 
-3.6223712320876649

>  <r_i_glide_ecoul>  (1) 
-1.5371277780499912

>  <r_i_glide_eff_state_penalty>  (1) 
0.04028888123744899

>  <r_i_glide_einternal>  (1) 
14.061222496846188

>  <r_i_glide_emodel>  (1) 
-32.994412382527685

>  <r_i_glide_emodel_strain>  (1) 
0

>  <r_i_glide_energy>  (1) 
-33.752913047334502

>  <r_i_glide_erotb>  (1) 
0.028804905803733735

>  <r_i_glide_esite>  (1) 
0

>  <r_i_glide_evdw>  (1) 
-32.21578526928451

>  <r_i_glide_gscore>  (1) 
-3.662660113325114

>  <r_i_glide_gscore_strain>  (1) 
0

>  <r_i_glide_hbond>  (1) 
0

>  <r_i_glide_ligand_efficiency>  (1) 
-0.078747200697557931

>  <r_i_glide_ligand_efficiency_ln>  (1) 
-0.75018435511104442

>  <r_i_glide_ligand_efficiency_sa>  (1) 
-0.28215498980785042

>  <r_i_glide_lipo>  (1) 
-0.87561680422261667

>  <r_i_glide_metal>  (1) 
-0

>  <r_i_glide_rewards>  (1) 
-0.97448978473450676

>  <r_lp_Energy>  (1) 
64.057782000000003

>  <s_epik_cmdline>  (1) 
J2VwaWtfcHl0aG9uJywgJy1waHQnLCAnMS4wJywgJy1waCcsICc3LjQnLCAnLXRuJywgJzgnLCAnLW1hJywgJzUwMCcsICctaW1hZScsICc8aW5maWxlLm1hZT4nLCAnLW9tYWUnLCAnPG91dGZpbGUubWFlPic=

>  <s_epik_input>  (1) 
W0NIM11bQ0BASF0xW0NIMl1PW0NIMl1DKD1DMTIpQyg9TylOKFtDSDNdKUMoPU8pW0NAXShbT0hdKShbQ0gyXTIpQyg9TylOM1tDSDJdW0NIMl1bQ0hdKFtDSDJdW0NIMl0zKU4oUzQoPU8pPU8pW0NIMl1bQ0gyXVtDSDJdW0NIXT1DPUM0Qyg9QzVDKEYpKEYpRilbQ0hdPUMoRilDNTZbQ0gyXVtDSDJdNg==

>  <s_glide_docking_method>  (1) 
confgen

>  <s_i_glide_gridfile>  (1) 
gpcr_drd2_6luq_protein_autoprepared_prepared

>  <s_lp_Force_Field>  (1) 
S-OPLS

>  <s_lp_Variant>  (1) 
DiffSBDD_35-1

>  <s_m_source_file>  (1) 
generated_generic_title2_ligand_DiffSBDD_2026-06-23_prepared.sdf

>  <GenAI_Model>  (1) 
DiffSBDD

>  <Protein>  (1) 
generic_title2

$$$$
DiffSBDD_20
     RDKit          3D

  0  0  0  0  0  0  0  0  0  0999 V3000
M  V30 BEGIN CTAB
M  V30 COUNTS 71 73 0 0 1
M  V30 BEGIN ATOM
M  V30 1 C 11.939459 3.919258 -18.874053 0
M  V30 2 C 6.116622 7.341250 -14.743473 0
M  V30 3 C 8.744845 5.301152 -15.821576 0 CFG=1
M  V30 4 C 10.615977 4.074650 -18.985856 0
M  V30 5 C 12.705921 3.959889 -17.613512 0 CFG=1
M  V30 6 C 9.460634 7.422591 -6.445138 0
M  V30 7 C 9.520365 5.776934 -9.351687 0 CFG=1
M  V30 8 F 14.009273 3.855407 -17.873525 0
M  V30 9 C 8.039206 6.376117 -11.448596 0
M  V30 10 O 11.240570 5.990227 -6.888075 0
M  V30 11 C 8.923456 4.665917 -14.431988 0
M  V30 12 C 9.300713 5.661567 -10.894253 0 CFG=2
M  V30 13 C 13.040518 8.181460 -7.985029 0
M  V30 14 C 9.671074 4.390118 -17.900603 0
M  V30 15 C 9.941273 5.040179 -16.734449 0
M  V30 16 C 11.264935 5.570165 -16.340589 0
M  V30 17 C 10.340236 7.027881 -8.887115 0 CFG=2
M  V30 18 C 6.405318 5.818302 -16.831254 0
M  V30 19 N 7.826855 4.973802 -13.488745 0 CHG=1
M  V30 20 C 5.565320 6.183235 -15.596982 0
M  V30 21 C 11.421443 9.645508 -6.900106 0
M  V30 22 C 7.790659 6.356303 -12.972394 0 CFG=1
M  V30 23 O 9.190765 4.280002 -11.185038 0
M  V30 24 C 10.687503 7.190894 -7.357597 0 CFG=1
M  V30 25 S 8.002294 3.986160 -18.132531 0
M  V30 26 C 12.463241 5.129604 -16.745884 0
M  V30 27 C 11.831932 8.203488 -7.027693 0
M  V30 28 C 6.413687 6.996779 -13.266675 0
M  V30 29 C 7.480100 4.751276 -16.565098 0 CFG=1
M  V30 30 O 9.775410 8.215393 -9.394528 0
M  V30 31 N 8.260744 5.590225 -8.625202 0
M  V30 32 H 12.509367 3.684202 -19.760838 0
M  V30 33 H 5.340854 8.106146 -14.757137 0
M  V30 34 H 6.975441 7.823891 -15.204640 0
M  V30 35 H 8.661784 6.372667 -15.674527 0
M  V30 36 H 10.194650 3.941640 -19.972078 0
M  V30 37 H 12.467223 3.062103 -17.041670 0
M  V30 38 H 8.839374 8.248755 -6.792201 0
M  V30 39 H 9.775407 7.645091 -5.426152 0
M  V30 40 H 8.819874 6.546543 -6.372091 0
M  V30 41 H 10.156860 4.935288 -9.076957 0
M  V30 42 H 7.150334 5.990178 -10.947862 0
M  V30 43 H 8.113682 7.428388 -11.185023 0
M  V30 44 H 12.007905 5.782888 -7.396691 0
M  V30 45 H 8.940127 3.590217 -14.540745 0
M  V30 46 H 9.873471 4.953556 -13.980766 0
M  V30 47 H 10.180281 6.037368 -11.415308 0
M  V30 48 H 12.777296 8.440069 -9.010885 0
M  V30 49 H 13.548234 7.226977 -7.985023 0
M  V30 50 H 13.775391 8.921480 -7.672610 0
M  V30 51 H 11.269434 6.390215 -15.640962 0
M  V30 52 H 11.279797 6.920295 -9.423577 0
M  V30 53 H 5.719948 5.419215 -17.580353 0
M  V30 54 H 6.838374 6.708541 -17.290563 0
M  V30 55 H 6.933605 4.730564 -13.889173 0
M  V30 56 H 5.375350 5.301076 -14.986718 0
M  V30 57 H 4.585201 6.485822 -15.970858 0
M  V30 58 H 11.375409 9.990228 -7.921758 0
M  V30 59 H 12.180209 10.236889 -6.385078 0
M  V30 60 H 10.478858 9.807411 -6.384895 0
M  V30 61 H 8.574884 6.951627 -13.434887 0
M  V30 62 H 9.835065 3.805978 -10.676877 0
M  V30 63 H 13.348237 5.618959 -16.365851 0
M  V30 64 H 12.175194 7.987224 -6.021160 0
M  V30 65 H 6.366012 7.923109 -12.693488 0
M  V30 66 H 5.609406 6.382321 -12.857188 0
M  V30 67 H 7.030202 3.937408 -15.995539 0
M  V30 68 H 8.839189 8.196858 -9.204769 0
M  V30 69 H 7.684913 6.445858 -8.692173 0
M  V30 70 H 7.707528 4.850394 -9.053929 0
M  V30 71 H 7.996840 4.394892 -12.670006 0
M  V30 END ATOM
M  V30 BEGIN BOND
M  V30 1 2 4 1
M  V30 2 1 5 1
M  V30 3 1 8 5
M  V30 4 1 11 3
M  V30 5 1 12 7
M  V30 6 1 12 9
M  V30 7 1 14 4
M  V30 8 1 15 3
M  V30 9 2 15 14
M  V30 10 1 16 15
M  V30 11 1 17 7
M  V30 12 1 19 11
M  V30 13 1 20 2
M  V30 14 1 20 18
M  V30 15 1 22 9
M  V30 16 1 22 19
M  V30 17 1 23 12
M  V30 18 1 24 6
M  V30 19 1 24 10 CFG=1
M  V30 20 1 24 17
M  V30 21 1 25 14
M  V30 22 1 26 5
M  V30 23 2 26 16
M  V30 24 1 27 13
M  V30 25 1 27 21
M  V30 26 1 27 24
M  V30 27 1 28 2
M  V30 28 1 28 22
M  V30 29 1 29 3
M  V30 30 1 29 18
M  V30 31 1 29 25
M  V30 32 1 30 17
M  V30 33 1 31 7
M  V30 34 1 32 1
M  V30 35 1 33 2
M  V30 36 1 34 2
M  V30 37 1 3 35 CFG=1
M  V30 38 1 36 4
M  V30 39 1 5 37 CFG=1
M  V30 40 1 38 6
M  V30 41 1 39 6
M  V30 42 1 40 6
M  V30 43 1 7 41 CFG=1
M  V30 44 1 42 9
M  V30 45 1 43 9
M  V30 46 1 44 10
M  V30 47 1 45 11
M  V30 48 1 46 11
M  V30 49 1 12 47 CFG=3
M  V30 50 1 48 13
M  V30 51 1 49 13
M  V30 52 1 50 13
M  V30 53 1 51 16
M  V30 54 1 17 52 CFG=3
M  V30 55 1 53 18
M  V30 56 1 54 18
M  V30 57 1 55 19
M  V30 58 1 56 20
M  V30 59 1 57 20
M  V30 60 1 58 21
M  V30 61 1 59 21
M  V30 62 1 60 21
M  V30 63 1 22 61 CFG=3
M  V30 64 1 62 23
M  V30 65 1 63 26
M  V30 66 1 64 27
M  V30 67 1 65 28
M  V30 68 1 66 28
M  V30 69 1 29 67 CFG=1
M  V30 70 1 68 30
M  V30 71 1 69 31
M  V30 72 1 70 31
M  V30 73 1 71 19
M  V30 END BOND
M  V30 END CTAB
M  END
>  <i_epik_Tot_Q>  (1) 
1

>  <i_epik_Tot_abs_Q>  (1) 
1

>  <i_i_glide_confnum>  (1) 
72

>  <i_i_glide_lignum>  (1) 
66

>  <i_i_glide_posenum>  (1) 
66

>  <i_i_glide_rotatable_bonds>  (1) 
9

>  <i_lp_mmshare_version>  (1) 
72125

>  <i_m_source_file_index>  (1) 
21

>  <i_f3d_flags>  (1) 
0

>  <num_sample>  (1) 
50

>  <b_lp_Chiralities_Consistent>  (1) 
1

>  <r_epik_Charging_Adjusted_Penalty>  (1) 
1.0900107648315034

>  <r_epik_Ionization_Penalty>  (1) 
1.0648013143729294

>  <r_epik_Ionization_Penalty_Charging>  (1) 
0.018420486395911647

>  <r_epik_Ionization_Penalty_Neutral>  (1) 
1.0463808279770177

>  <r_epik_State_Penalty>  (1) 
1.0715902784355917

>  <r_glide_ring_energy>  (1) 
0

>  <r_i_docking_score>  (1) 
-3.6114756519211664

>  <r_i_glide_ecoul>  (1) 
-7.2936522101104853

>  <r_i_glide_eff_state_penalty>  (1) 
1.0715902784355917

>  <r_i_glide_einternal>  (1) 
15.700493129918357

>  <r_i_glide_emodel>  (1) 
-27.642530547886658

>  <r_i_glide_emodel_strain>  (1) 
0.71244453948948205

>  <r_i_glide_energy>  (1) 
-27.080974645320367

>  <r_i_glide_erotb>  (1) 
0.38705737007943358

>  <r_i_glide_esite>  (1) 
0

>  <r_i_glide_evdw>  (1) 
-19.787322435209884

>  <r_i_glide_gscore>  (1) 
-4.6830659303567579

>  <r_i_glide_gscore_strain>  (1) 
0

>  <r_i_glide_hbond>  (1) 
-0.37191460426284728

>  <r_i_glide_ligand_efficiency>  (1) 
-0.11649921457810214

>  <r_i_glide_ligand_efficiency_ln>  (1) 
-0.81449843794497689

>  <r_i_glide_ligand_efficiency_sa>  (1) 
-0.36596837869444343

>  <r_i_glide_lipo>  (1) 
-1.6011519997629609

>  <r_i_glide_metal>  (1) 
-0

>  <r_i_glide_rewards>  (1) 
-1.0136427431333155

>  <r_lp_Energy>  (1) 
43.646164999999996

>  <s_epik_cmdline>  (1) 
J2VwaWtfcHl0aG9uJywgJy1waHQnLCAnMS4wJywgJy1waCcsICc3LjQnLCAnLXRuJywgJzgnLCAnLW1hJywgJzUwMCcsICctaW1hZScsICc8aW5maWxlLm1hZT4nLCAnLW9tYWUnLCAnPG91dGZpbGUubWFlPic=

>  <s_epik_input>  (1) 
W0NIXTE9W0NIXVtDQEhdKEYpW0NIXT1bQ0hdQyg9QzFbQ0BIXTIzKVNbQ0BASF0zW0NIMl1bQ0gyXVtDSDJdW0NIMl1bQ0BIXShbTkhdW0NIMl0yKVtDSDJdW0NASF0oW09IXSlbQ0BIXShbTkgyXSlbQ0BASF0oW09IXSlbQ0BAXShbQ0gzXSkoW09IXSlbQ0hdKFtDSDNdKVtDSDNd

>  <s_glide_docking_method>  (1) 
confgen

>  <s_i_glide_gridfile>  (1) 
gpcr_drd2_6luq_protein_autoprepared_prepared

>  <s_lp_Force_Field>  (1) 
S-OPLS

>  <s_lp_Variant>  (1) 
DiffSBDD_20-3

>  <s_m_source_file>  (1) 
generated_generic_title2_ligand_DiffSBDD_2026-06-23_prepared.sdf

>  <GenAI_Model>  (1) 
DiffSBDD

>  <Protein>  (1) 
generic_title2

$$$$
DiffSBDD_25
     RDKit          3D

  0  0  0  0  0  0  0  0  0  0999 V3000
M  V30 BEGIN CTAB
M  V30 COUNTS 43 45 0 0 1
M  V30 BEGIN ATOM
M  V30 1 C 8.252682 7.365987 -12.709007 0 CFG=1
M  V30 2 C 5.483713 5.284243 -11.185025 0
M  V30 3 C 5.930398 3.990228 -11.479637 0
M  V30 4 C 7.431416 6.208202 -12.311855 0
M  V30 5 N 8.975410 8.253422 -7.585026 0 CHG=1
M  V30 6 N 9.624281 7.045388 -10.526504 0
M  V30 7 C 7.862923 4.905121 -12.622989 0
M  V30 8 C 8.407452 8.667675 -11.985034 0
M  V30 9 C 9.642381 6.390234 -6.160888 0
M  V30 10 C 9.514950 6.894911 -7.590978 0 CFG=2
M  V30 11 C 10.867162 7.317055 -9.800413 0 CFG=1
M  V30 12 C 9.507281 7.639658 -11.861069 0 CFG=2
M  V30 13 C 7.110733 3.800176 -12.213260 0
M  V30 14 C 12.083554 8.944282 -8.434100 0
M  V30 15 C 11.924007 7.684719 -7.614572 0
M  V30 16 C 11.227159 8.790227 -9.679360 0
M  V30 17 C 6.225257 6.390220 -11.608142 0
M  V30 18 C 10.858781 6.830265 -8.329412 0 CFG=1
M  V30 19 H 8.175410 7.486315 -13.786697 0
M  V30 20 H 4.575416 5.430333 -10.622867 0
M  V30 21 H 5.375410 3.145350 -11.139394 0
M  V30 22 H 9.632174 8.916230 -7.207265 0
M  V30 23 H 8.735830 8.468022 -8.548451 0
M  V30 24 H 9.453290 6.049618 -10.586464 0
M  V30 25 H 8.783987 4.757154 -13.169380 0
M  V30 26 H 8.628979 9.535808 -12.599023 0
M  V30 27 H 7.707420 8.852138 -11.185028 0
M  V30 28 H 10.375510 5.590548 -6.095456 0
M  V30 29 H 9.944138 7.165431 -5.456940 0
M  V30 30 H 8.687691 5.990246 -5.822190 0
M  V30 31 H 8.796246 6.255282 -8.107075 0
M  V30 32 H 11.686379 6.829109 -10.323634 0
M  V30 33 H 10.405813 7.766382 -12.459229 0
M  V30 34 H 7.449021 2.800680 -12.444480 0
M  V30 35 H 13.130780 9.077848 -8.708698 0
M  V30 36 H 11.775413 9.818216 -7.861451 0
M  V30 37 H 12.889392 7.190232 -7.585029 0
M  V30 38 H 11.695322 7.926831 -6.578978 0
M  V30 39 H 11.783495 9.140414 -10.541571 0
M  V30 40 H 10.331001 9.399813 -9.585025 0
M  V30 41 H 5.881777 7.386643 -11.372447 0
M  V30 42 H 11.147501 5.783339 -8.304361 0
M  V30 43 H 8.106565 8.233999 -7.064691 0
M  V30 END ATOM
M  V30 BEGIN BOND
M  V30 1 2 3 2
M  V30 2 1 4 1
M  V30 3 1 7 4
M  V30 4 1 8 1
M  V30 5 1 10 5
M  V30 6 1 10 9
M  V30 7 1 11 6
M  V30 8 1 12 1
M  V30 9 1 12 6
M  V30 10 1 12 8
M  V30 11 1 13 3
M  V30 12 2 13 7
M  V30 13 1 15 14
M  V30 14 1 16 11
M  V30 15 1 16 14
M  V30 16 1 17 2
M  V30 17 2 17 4
M  V30 18 1 18 10
M  V30 19 1 18 11
M  V30 20 1 18 15
M  V30 21 1 1 19 CFG=3
M  V30 22 1 20 2
M  V30 23 1 21 3
M  V30 24 1 22 5
M  V30 25 1 23 5
M  V30 26 1 24 6
M  V30 27 1 25 7
M  V30 28 1 26 8
M  V30 29 1 27 8
M  V30 30 1 28 9
M  V30 31 1 29 9
M  V30 32 1 30 9
M  V30 33 1 10 31 CFG=3
M  V30 34 1 11 32 CFG=3
M  V30 35 1 12 33 CFG=3
M  V30 36 1 34 13
M  V30 37 1 35 14
M  V30 38 1 36 14
M  V30 39 1 37 15
M  V30 40 1 38 15
M  V30 41 1 39 16
M  V30 42 1 40 16
M  V30 43 1 41 17
M  V30 44 1 18 42 CFG=3
M  V30 45 1 43 5
M  V30 END BOND
M  V30 END CTAB
M  END
>  <i_epik_Tot_Q>  (1) 
1

>  <i_epik_Tot_abs_Q>  (1) 
1

>  <i_i_glide_confnum>  (1) 
82

>  <i_i_glide_lignum>  (1) 
74

>  <i_i_glide_posenum>  (1) 
214

>  <i_i_glide_rotatable_bonds>  (1) 
4

>  <i_lp_mmshare_version>  (1) 
72125

>  <i_m_source_file_index>  (1) 
26

>  <i_f3d_flags>  (1) 
0

>  <num_sample>  (1) 
50

>  <b_lp_Chiralities_Consistent>  (1) 
1

>  <r_epik_Charging_Adjusted_Penalty>  (1) 
0.70247939945427629

>  <r_epik_Ionization_Penalty>  (1) 
0.7024793994542764

>  <r_epik_Ionization_Penalty_Charging>  (1) 
0.00054833754919439773

>  <r_epik_Ionization_Penalty_Neutral>  (1) 
0.70193106190508203

>  <r_epik_State_Penalty>  (1) 
0.70193106190508192

>  <r_glide_ring_energy>  (1) 
0.7345034582077562

>  <r_i_docking_score>  (1) 
-3.6011817489193376

>  <r_i_glide_ecoul>  (1) 
-1.8295879340063523

>  <r_i_glide_eff_state_penalty>  (1) 
0.70193106190508192

>  <r_i_glide_einternal>  (1) 
6.0434540611341809

>  <r_i_glide_emodel>  (1) 
-16.912284774703274

>  <r_i_glide_emodel_strain>  (1) 
1.2788935560114822

>  <r_i_glide_energy>  (1) 
-9.9283849608949204

>  <r_i_glide_erotb>  (1) 
0.60703758372024064

>  <r_i_glide_esite>  (1) 
-0.084311085963101023

>  <r_i_glide_evdw>  (1) 
-8.098797026888569

>  <r_i_glide_gscore>  (1) 
-4.3031128108244197

>  <r_i_glide_gscore_strain>  (1) 
0

>  <r_i_glide_hbond>  (1) 
-0.19508057537676618

>  <r_i_glide_ligand_efficiency>  (1) 
-0.20006565271774099

>  <r_i_glide_ligand_efficiency_ln>  (1) 
-0.92566519937590364

>  <r_i_glide_ligand_efficiency_sa>  (1) 
-0.52432033763680541

>  <r_i_glide_lipo>  (1) 
-0.83408004183752815

>  <r_i_glide_metal>  (1) 
-0

>  <r_i_glide_rewards>  (1) 
-3.1173006499218832

>  <r_lp_Energy>  (1) 
23.818217999999998

>  <s_epik_cmdline>  (1) 
J2VwaWtfcHl0aG9uJywgJy1waHQnLCAnMS4wJywgJy1waCcsICc3LjQnLCAnLXRuJywgJzgnLCAnLW1hJywgJzUwMCcsICctaW1hZScsICc8aW5maWxlLm1hZT4nLCAnLW9tYWUnLCAnPG91dGZpbGUubWFlPic=

>  <s_epik_input>  (1) 
W2NIXTFbY0hdW2NIXVtjSF1bY0hdYzFbQ0BIXTJbQ0gyXVtDQEhdMltOSF1bQ0BIXTNbQ0gyXVtDSDJdW0NIMl1bQ0BIXTNbQ0BIXShbTkgyXSlbQ0gzXQ==

>  <s_glide_docking_method>  (1) 
confgen

>  <s_i_glide_gridfile>  (1) 
gpcr_drd2_6luq_protein_autoprepared_prepared

>  <s_lp_Force_Field>  (1) 
S-OPLS

>  <s_lp_Variant>  (1) 
DiffSBDD_25-3

>  <s_m_source_file>  (1) 
generated_generic_title2_ligand_DiffSBDD_2026-06-23_prepared.sdf

>  <GenAI_Model>  (1) 
DiffSBDD

>  <Protein>  (1) 
generic_title2

$$$$
DiffSBDD_25
     RDKit          3D

  0  0  0  0  0  0  0  0  0  0999 V3000
M  V30 BEGIN CTAB
M  V30 COUNTS 43 45 0 0 1
M  V30 BEGIN ATOM
M  V30 1 C 8.069730 4.790248 -9.077427 0 CFG=1
M  V30 2 C 9.083853 6.226959 -12.479659 0
M  V30 3 C 7.854037 6.220040 -13.160686 0
M  V30 4 C 8.002175 5.293768 -10.493532 0
M  V30 5 N 9.809512 8.790227 -9.706878 0 CHG=1
M  V30 6 N 8.975416 6.854662 -7.985013 0
M  V30 7 C 6.769849 5.288589 -11.186310 0
M  V30 8 C 9.375419 4.486717 -8.412549 0
M  V30 9 C 11.935345 7.724321 -9.038715 0
M  V30 10 C 10.890955 8.790237 -8.704535 0 CFG=2
M  V30 11 C 9.538941 7.508733 -6.822897 0 CFG=1
M  V30 12 C 8.512253 5.529811 -7.820719 0 CFG=2
M  V30 13 C 6.696929 5.752016 -12.514323 0
M  V30 14 C 11.256188 7.817219 -5.218154 0
M  V30 15 C 11.383358 9.000630 -6.177309 0
M  V30 16 C 10.549663 6.718656 -6.002996 0
M  V30 17 C 9.159321 5.768841 -11.154305 0
M  V30 18 C 10.302619 8.775380 -7.253932 0 CFG=1
M  V30 19 H 7.281147 4.056323 -8.932261 0
M  V30 20 H 9.974158 6.581940 -12.975479 0
M  V30 21 H 7.799612 6.572130 -14.180209 0
M  V30 22 H 9.262130 7.943109 -9.584583 0
M  V30 23 H 9.192763 9.575591 -9.564190 0
M  V30 24 H 8.129318 7.370394 -8.260582 0
M  V30 25 H 5.878787 4.929256 -10.693782 0
M  V30 26 H 9.375423 3.513946 -7.985024 0
M  V30 27 H 10.330588 4.825197 -8.785999 0
M  V30 28 H 12.783406 7.750858 -8.355483 0
M  V30 29 H 11.504697 6.730398 -8.994267 0
M  V30 30 H 12.337711 7.866252 -10.042934 0
M  V30 31 H 11.394214 9.747831 -8.836192 0
M  V30 32 H 8.714440 7.796206 -6.167645 0
M  V30 33 H 7.926836 5.280447 -6.939814 0
M  V30 34 H 5.752234 5.746034 -13.036843 0
M  V30 35 H 10.643058 8.137809 -4.388922 0
M  V30 36 H 12.175418 7.474838 -4.768098 0
M  V30 37 H 11.232342 9.946138 -5.654311 0
M  V30 38 H 12.384174 9.042027 -6.603127 0
M  V30 39 H 10.073628 5.990333 -5.347305 0
M  V30 40 H 11.256173 6.189951 -6.643206 0
M  V30 41 H 10.105752 5.781355 -10.645161 0
M  V30 42 H 9.567266 9.574248 -7.184652 0
M  V30 43 H 10.187040 8.802552 -10.640935 0
M  V30 END ATOM
M  V30 BEGIN BOND
M  V30 1 2 3 2
M  V30 2 1 4 1
M  V30 3 1 7 4
M  V30 4 1 8 1
M  V30 5 1 10 5
M  V30 6 1 10 9
M  V30 7 1 11 6
M  V30 8 1 12 1
M  V30 9 1 12 6
M  V30 10 1 12 8
M  V30 11 1 13 3
M  V30 12 2 13 7
M  V30 13 1 15 14
M  V30 14 1 16 11
M  V30 15 1 16 14
M  V30 16 1 17 2
M  V30 17 2 17 4
M  V30 18 1 18 10
M  V30 19 1 18 11
M  V30 20 1 18 15
M  V30 21 1 1 19 CFG=1
M  V30 22 1 20 2
M  V30 23 1 21 3
M  V30 24 1 22 5
M  V30 25 1 23 5
M  V30 26 1 24 6
M  V30 27 1 25 7
M  V30 28 1 26 8
M  V30 29 1 27 8
M  V30 30 1 28 9
M  V30 31 1 29 9
M  V30 32 1 30 9
M  V30 33 1 10 31 CFG=1
M  V30 34 1 11 32 CFG=1
M  V30 35 1 12 33 CFG=1
M  V30 36 1 34 13
M  V30 37 1 35 14
M  V30 38 1 36 14
M  V30 39 1 37 15
M  V30 40 1 38 15
M  V30 41 1 39 16
M  V30 42 1 40 16
M  V30 43 1 41 17
M  V30 44 1 18 42 CFG=3
M  V30 45 1 43 5
M  V30 END BOND
M  V30 END CTAB
M  END
>  <i_epik_Tot_Q>  (1) 
1

>  <i_epik_Tot_abs_Q>  (1) 
1

>  <i_i_glide_confnum>  (1) 
91

>  <i_i_glide_lignum>  (1) 
74

>  <i_i_glide_posenum>  (1) 
379

>  <i_i_glide_rotatable_bonds>  (1) 
4

>  <i_lp_mmshare_version>  (1) 
72125

>  <i_m_source_file_index>  (1) 
26

>  <i_f3d_flags>  (1) 
0

>  <num_sample>  (1) 
50

>  <b_lp_Chiralities_Consistent>  (1) 
1

>  <r_epik_Charging_Adjusted_Penalty>  (1) 
0.70247939945427629

>  <r_epik_Ionization_Penalty>  (1) 
0.7024793994542764

>  <r_epik_Ionization_Penalty_Charging>  (1) 
0.00054833754919439773

>  <r_epik_Ionization_Penalty_Neutral>  (1) 
0.70193106190508203

>  <r_epik_State_Penalty>  (1) 
0.70193106190508192

>  <r_glide_ring_energy>  (1) 
0.7345034582077562

>  <r_i_docking_score>  (1) 
-3.5913941158546461

>  <r_i_glide_ecoul>  (1) 
-2.3405970043887718

>  <r_i_glide_eff_state_penalty>  (1) 
0.70193106190508192

>  <r_i_glide_einternal>  (1) 
4.1278477350039502

>  <r_i_glide_emodel>  (1) 
-17.338880717639626

>  <r_i_glide_emodel_strain>  (1) 
0.30397591628681653

>  <r_i_glide_energy>  (1) 
-8.4479272749794347

>  <r_i_glide_erotb>  (1) 
0.86719654817177239

>  <r_i_glide_esite>  (1) 
-0.083017257917832557

>  <r_i_glide_evdw>  (1) 
-6.1073302705906638

>  <r_i_glide_gscore>  (1) 
-4.2933251777597281

>  <r_i_glide_gscore_strain>  (1) 
0

>  <r_i_glide_hbond>  (1) 
-0.26604878086797012

>  <r_i_glide_ligand_efficiency>  (1) 
-0.1995218953252581

>  <r_i_glide_ligand_efficiency_ln>  (1) 
-0.92314933876571226

>  <r_i_glide_ligand_efficiency_sa>  (1) 
-0.52289529012991853

>  <r_i_glide_lipo>  (1) 
-1.5356532105410974

>  <r_i_glide_metal>  (1) 
-0

>  <r_i_glide_rewards>  (1) 
-2.619346412416752

>  <r_lp_Energy>  (1) 
23.818217999999998

>  <s_epik_cmdline>  (1) 
J2VwaWtfcHl0aG9uJywgJy1waHQnLCAnMS4wJywgJy1waCcsICc3LjQnLCAnLXRuJywgJzgnLCAnLW1hJywgJzUwMCcsICctaW1hZScsICc8aW5maWxlLm1hZT4nLCAnLW9tYWUnLCAnPG91dGZpbGUubWFlPic=

>  <s_epik_input>  (1) 
W2NIXTFbY0hdW2NIXVtjSF1bY0hdYzFbQ0BIXTJbQ0gyXVtDQEhdMltOSF1bQ0BIXTNbQ0gyXVtDSDJdW0NIMl1bQ0BIXTNbQ0BIXShbTkgyXSlbQ0gzXQ==

>  <s_glide_docking_method>  (1) 
confgen

>  <s_i_glide_gridfile>  (1) 
gpcr_drd2_6luq_protein_autoprepared_prepared

>  <s_lp_Force_Field>  (1) 
S-OPLS

>  <s_lp_Variant>  (1) 
DiffSBDD_25-3

>  <s_m_source_file>  (1) 
generated_generic_title2_ligand_DiffSBDD_2026-06-23_prepared.sdf

>  <GenAI_Model>  (1) 
DiffSBDD

>  <Protein>  (1) 
generic_title2

$$$$
DiffSBDD_39
     RDKit          3D

  0  0  0  0  0  0  0  0  0  0999 V3000
M  V30 BEGIN CTAB
M  V30 COUNTS 68 71 0 0 1
M  V30 BEGIN ATOM
M  V30 1 C 8.140764 0.780940 -14.453168 0
M  V30 2 F 7.375040 7.977793 -14.200954 0
M  V30 3 F 7.577093 5.932303 -14.880741 0
M  V30 4 C 8.095889 4.390223 -19.262095 0
M  V30 5 C 7.532139 -0.149617 -16.725493 0
M  V30 6 C 5.315894 -0.959942 -17.307053 0 CFG=1
M  V30 7 O 7.621111 5.648891 -19.695010 0
M  V30 8 C 7.556704 5.102859 -11.840395 0 CFG=2
M  V30 9 C 5.387245 0.386224 -13.559306 0
M  V30 10 C 6.169698 1.057917 -18.447385 0 CFG=2
M  V30 11 O 5.501281 5.990215 -10.785010 0
M  V30 12 C 6.556720 0.653393 -12.586565 0
M  V30 13 N 7.658158 1.442806 -13.213345 0 CFG=2 CHG=1
M  V30 14 C 5.690414 6.491240 -13.602253 0
M  V30 15 C 7.010517 0.578063 -15.475227 0 CFG=1
M  V30 16 C 7.347250 2.895881 -13.367554 0
M  V30 17 O 5.437371 5.226356 -12.993137 0
M  V30 18 C 4.779552 -0.495970 -15.928780 0
M  V30 19 N 6.504161 -0.213898 -17.772857 0
M  V30 20 C 6.958053 3.352680 -19.286744 0 CFG=1
M  V30 21 C 6.530251 2.988851 -20.717997 0
M  V30 22 C 8.187706 3.783623 -12.405920 0
M  V30 23 C 5.878391 -0.251574 -14.871021 0 CFG=2
M  V30 24 C 6.005095 5.059222 -11.722804 0 CFG=1
M  V30 25 C 7.993560 6.347529 -12.616870 0
M  V30 26 C 5.360050 1.999451 -20.695983 0
M  V30 27 C 7.185854 6.701633 -13.863267 0
M  V30 28 O 8.955095 7.024087 -12.256888 0
M  V30 29 C 5.679727 0.735576 -19.881963 0
M  V30 30 O 5.699963 -2.316654 -17.240282 0
M  V30 31 C 7.349713 2.066333 -18.536140 0
M  V30 32 H 8.573534 -0.184930 -14.184372 0
M  V30 33 H 8.941698 1.348442 -14.917406 0
M  V30 34 H 8.927785 4.074292 -19.893009 0
M  V30 35 H 8.485678 4.510627 -18.250372 0
M  V30 36 H 7.824560 -1.166765 -16.456514 0
M  V30 37 H 8.448015 0.305323 -17.101437 0
M  V30 38 H 4.506116 -0.907847 -18.033758 0
M  V30 39 H 8.342454 6.260425 -19.702178 0
M  V30 40 H 7.937901 5.220855 -10.824407 0
M  V30 41 H 4.672727 -0.281277 -13.076358 0
M  V30 42 H 4.845740 1.308060 -13.750453 0
M  V30 43 H 5.375283 1.546728 -17.887627 0
M  V30 44 H 6.180081 6.609250 -10.514217 0
M  V30 45 H 6.969184 -0.300001 -12.251497 0
M  V30 46 H 6.175086 1.148913 -11.693018 0
M  V30 47 H 5.291999 7.296032 -12.983328 0
M  V30 48 H 5.152730 6.533370 -14.548380 0
M  V30 49 H 6.614177 1.553114 -15.753045 0
M  V30 50 H 7.518567 3.231048 -14.390064 0
M  V30 51 H 6.278654 3.009514 -13.216812 0
M  V30 52 H 4.042328 -1.210044 -15.585117 0
M  V30 53 H 4.186461 0.393143 -16.044364 0
M  V30 54 H 6.100561 3.788754 -18.770102 0
M  V30 55 H 6.233899 3.884537 -21.263742 0
M  V30 56 H 7.371845 2.557502 -21.259980 0
M  V30 57 H 8.561247 3.190177 -11.576423 0
M  V30 58 H 9.114882 4.034176 -12.926557 0
M  V30 59 H 6.301355 -1.209748 -14.604699 0
M  V30 60 H 5.676886 4.088262 -11.350237 0
M  V30 61 H 4.497323 2.496792 -20.260780 0
M  V30 62 H 5.080589 1.724434 -21.714087 0
M  V30 63 H 4.788026 0.109280 -19.872630 0
M  V30 64 H 6.443910 0.158708 -20.405414 0
M  V30 65 H 5.178797 -2.757139 -16.580737 0
M  V30 66 H 8.204595 1.600572 -19.029629 0
M  V30 67 H 7.684301 2.361789 -17.543533 0
M  V30 68 H 8.434807 1.402798 -12.563240 0
M  V30 END ATOM
M  V30 BEGIN BOND
M  V30 1 1 7 4
M  V30 2 1 12 9
M  V30 3 1 13 1
M  V30 4 1 13 12
M  V30 5 1 15 1
M  V30 6 1 15 5
M  V30 7 1 16 13
M  V30 8 1 17 14
M  V30 9 1 18 6
M  V30 10 1 19 5
M  V30 11 1 19 6
M  V30 12 1 19 10
M  V30 13 1 20 4
M  V30 14 1 21 20
M  V30 15 1 22 8
M  V30 16 1 22 16
M  V30 17 1 23 9
M  V30 18 1 23 15
M  V30 19 1 23 18
M  V30 20 1 24 8
M  V30 21 1 24 11
M  V30 22 1 24 17
M  V30 23 1 25 8
M  V30 24 1 26 21
M  V30 25 1 27 2
M  V30 26 1 27 3
M  V30 27 1 27 14
M  V30 28 1 27 25
M  V30 29 2 28 25
M  V30 30 1 29 10
M  V30 31 1 29 26
M  V30 32 1 30 6
M  V30 33 1 31 10
M  V30 34 1 31 20
M  V30 35 1 32 1
M  V30 36 1 33 1
M  V30 37 1 34 4
M  V30 38 1 35 4
M  V30 39 1 36 5
M  V30 40 1 37 5
M  V30 41 1 6 38 CFG=3
M  V30 42 1 39 7
M  V30 43 1 8 40 CFG=1
M  V30 44 1 41 9
M  V30 45 1 42 9
M  V30 46 1 10 43 CFG=1
M  V30 47 1 44 11
M  V30 48 1 45 12
M  V30 49 1 46 12
M  V30 50 1 47 14
M  V30 51 1 48 14
M  V30 52 1 15 49 CFG=3
M  V30 53 1 50 16
M  V30 54 1 51 16
M  V30 55 1 52 18
M  V30 56 1 53 18
M  V30 57 1 20 54 CFG=1
M  V30 58 1 55 21
M  V30 59 1 56 21
M  V30 60 1 57 22
M  V30 61 1 58 22
M  V30 62 1 23 59 CFG=1
M  V30 63 1 24 60 CFG=1
M  V30 64 1 61 26
M  V30 65 1 62 26
M  V30 66 1 63 29
M  V30 67 1 64 29
M  V30 68 1 65 30
M  V30 69 1 66 31
M  V30 70 1 67 31
M  V30 71 1 13 68 CFG=1
M  V30 END BOND
M  V30 END CTAB
M  END
>  <i_epik_Tot_Q>  (1) 
1

>  <i_epik_Tot_abs_Q>  (1) 
1

>  <i_i_glide_confnum>  (1) 
26

>  <i_i_glide_lignum>  (1) 
110

>  <i_i_glide_posenum>  (1) 
198

>  <i_i_glide_rotatable_bonds>  (1) 
8

>  <i_lp_mmshare_version>  (1) 
72125

>  <i_m_source_file_index>  (1) 
40

>  <i_f3d_flags>  (1) 
0

>  <num_sample>  (1) 
50

>  <b_lp_Chiralities_Consistent>  (1) 
1

>  <r_epik_Charging_Adjusted_Penalty>  (1) 
0.93182942678714009

>  <r_epik_Ionization_Penalty>  (1) 
0.32046720352224994

>  <r_epik_Ionization_Penalty_Charging>  (1) 
0.0037689991519664944

>  <r_epik_Ionization_Penalty_Neutral>  (1) 
0.31669820437028345

>  <r_epik_State_Penalty>  (1) 
0.9280604276351736

>  <r_glide_ring_energy>  (1) 
1.2534239858202048

>  <r_i_docking_score>  (1) 
-3.5895074328174541

>  <r_i_glide_ecoul>  (1) 
-6.7954357253963042

>  <r_i_glide_eff_state_penalty>  (1) 
0.9280604276351736

>  <r_i_glide_einternal>  (1) 
23.60945268766212

>  <r_i_glide_emodel>  (1) 
-27.692272242117639

>  <r_i_glide_emodel_strain>  (1) 
6.5964779241864164

>  <r_i_glide_energy>  (1) 
-36.15018157363955

>  <r_i_glide_erotb>  (1) 
0.49989103335302049

>  <r_i_glide_esite>  (1) 
-0.031707064840891461

>  <r_i_glide_evdw>  (1) 
-29.354745848243248

>  <r_i_glide_gscore>  (1) 
-4.5175678604526279

>  <r_i_glide_gscore_strain>  (1) 
0.64911948104660411

>  <r_i_glide_hbond>  (1) 
-0.19350196871636374

>  <r_i_glide_ligand_efficiency>  (1) 
-0.11579056234895013

>  <r_i_glide_ligand_efficiency_ln>  (1) 
-0.80954393129202795

>  <r_i_glide_ligand_efficiency_sa>  (1) 
-0.36374223229251129

>  <r_i_glide_lipo>  (1) 
-1.6703687657058348

>  <r_i_glide_metal>  (1) 
-0

>  <r_i_glide_rewards>  (1) 
-1.2839479243675547

>  <r_lp_Energy>  (1) 
48.475696999999997

>  <s_epik_Chemistry_Notes>  (1) 
This compound contains an acetal/aminal-like group ( X-CH(R)-Y where X, Y are N, S, or O) that may be acid/base labile, releasing an aldehyde.

>  <s_epik_cmdline>  (1) 
J2VwaWtfcHl0aG9uJywgJy1waHQnLCAnMS4wJywgJy1waCcsICc3LjQnLCAnLXRuJywgJzgnLCAnLW1hJywgJzUwMCcsICctaW1hZScsICc8aW5maWxlLm1hZT4nLCAnLW9tYWUnLCAnPG91dGZpbGUubWFlPic=

>  <s_epik_input>  (1) 
RkMxKEYpW0NIMl1PW0NASF0oW09IXSlbQ0BIXShDMT1PKVtDSDJdW0NIMl1OKFtDSDJdMilbQ0gyXVtDSDJdW0NASF0oW0NAQEhdMjMpW0NIMl1bQ0BIXShbT0hdKU4oW0NIMl0zKVtDQEBIXTRbQ0gyXVtDSDJdW0NIMl1bQ0BASF0oW0NIMl00KVtDSDJdW09IXQ==

>  <s_glide_docking_method>  (1) 
confgen

>  <s_i_glide_gridfile>  (1) 
gpcr_drd2_6luq_protein_autoprepared_prepared

>  <s_lp_Force_Field>  (1) 
S-OPLS

>  <s_lp_Variant>  (1) 
DiffSBDD_39-6

>  <s_m_source_file>  (1) 
generated_generic_title2_ligand_DiffSBDD_2026-06-23_prepared.sdf

>  <GenAI_Model>  (1) 
DiffSBDD

>  <Protein>  (1) 
generic_title2

$$$$
DiffSBDD_39
     RDKit          3D

  0  0  0  0  0  0  0  0  0  0999 V3000
M  V30 BEGIN CTAB
M  V30 COUNTS 68 71 0 0 1
M  V30 BEGIN ATOM
M  V30 1 C 8.233452 5.444112 -15.780672 0
M  V30 2 F 15.386913 3.756519 -16.194108 0
M  V30 3 F 15.451482 3.136941 -18.266486 0
M  V30 4 C 10.803406 7.251879 -10.241793 0
M  V30 5 C 7.086102 5.630287 -13.512641 0
M  V30 6 C 6.044224 3.649938 -12.428231 0 CFG=1
M  V30 7 O 11.405476 7.190247 -11.522411 0
M  V30 8 C 12.767555 5.301557 -16.827179 0 CFG=2
M  V30 9 C 7.748273 2.547491 -15.795795 0
M  V30 10 C 7.797341 4.924978 -11.149761 0 CFG=2
M  V30 11 O 13.002487 7.701793 -16.607561 0
M  V30 12 C 8.157097 3.330930 -17.058299 0
M  V30 13 N 8.931081 4.566257 -16.756056 0 CFG=2 CHG=1
M  V30 14 C 15.513686 5.440099 -17.824182 0
M  V30 15 C 7.913594 4.725163 -14.455136 0 CFG=1
M  V30 16 C 10.371021 4.351619 -16.457812 0
M  V30 17 O 14.875375 6.454931 -17.054433 0
M  V30 18 C 6.787093 2.736071 -13.427586 0
M  V30 19 N 6.737050 4.953387 -12.214915 0 CFG=1 CHG=1
M  V30 20 C 9.746524 6.142863 -10.077245 0 CFG=1
M  V30 21 C 9.120565 6.139458 -8.677161 0
M  V30 22 C 11.250111 5.410757 -17.148067 0
M  V30 23 C 7.103164 3.457632 -14.746252 0 CFG=2
M  V30 24 C 13.506559 6.583108 -17.298351 0 CFG=1
M  V30 25 C 13.451604 4.085832 -17.470483 0
M  V30 26 C 8.167468 4.954674 -8.533990 0
M  V30 27 C 14.975649 4.057628 -17.426302 0
M  V30 28 O 12.804854 3.179606 -17.996792 0
M  V30 29 C 7.182409 4.814645 -9.726420 0
M  V30 30 O 4.909186 3.990245 -12.973021 0 CHG=-1
M  V30 31 C 8.707847 6.167042 -11.199730 0
M  V30 32 H 7.309839 5.797784 -16.241146 0
M  V30 33 H 8.831950 6.327057 -15.585043 0
M  V30 34 H 11.579021 7.159342 -9.481221 0
M  V30 35 H 10.350611 8.236056 -10.112128 0
M  V30 36 H 6.154359 5.889955 -14.018722 0
M  V30 37 H 7.551068 6.603914 -13.378018 0
M  V30 38 H 6.034642 3.098730 -11.493509 0
M  V30 39 H 11.653236 6.298099 -11.708578 0
M  V30 40 H 12.907438 5.225420 -15.748519 0
M  V30 41 H 7.038698 1.769165 -16.080862 0
M  V30 42 H 8.577336 2.010720 -15.357890 0
M  V30 43 H 8.424520 4.049874 -11.328439 0
M  V30 44 H 13.299755 8.486308 -17.048081 0
M  V30 45 H 7.250639 3.634301 -17.584906 0
M  V30 46 H 8.703381 2.690870 -17.752738 0
M  V30 47 H 16.588861 5.487171 -17.647518 0
M  V30 48 H 15.364186 5.628164 -18.889358 0
M  V30 49 H 8.842304 4.453799 -13.953034 0
M  V30 50 H 10.552546 4.390344 -15.385409 0
M  V30 51 H 10.659969 3.353902 -16.785009 0
M  V30 52 H 6.185667 1.846706 -13.623789 0
M  V30 53 H 7.713146 2.375810 -12.976961 0
M  V30 54 H 10.175410 5.154001 -10.167013 0
M  V30 55 H 9.903629 6.056648 -7.922121 0
M  V30 56 H 8.607880 7.070186 -8.448790 0
M  V30 57 H 11.101041 5.371051 -18.227939 0
M  V30 58 H 10.887867 6.390096 -16.837740 0
M  V30 59 H 6.175404 3.794534 -15.185029 0
M  V30 60 H 13.344032 6.772401 -18.362021 0
M  V30 61 H 8.766072 4.059443 -8.385203 0
M  V30 62 H 7.603593 5.069465 -7.607858 0
M  V30 63 H 6.631212 3.887532 -9.591268 0
M  V30 64 H 6.431118 5.590221 -9.638609 0
M  V30 65 H 8.134365 7.093889 -11.184838 0
M  V30 66 H 9.248936 6.154540 -12.144057 0
M  V30 67 H 8.935801 5.076857 -17.628008 0
M  V30 68 H 6.007175 5.529819 -11.822292 0
M  V30 END ATOM
M  V30 BEGIN BOND
M  V30 1 1 7 4
M  V30 2 1 12 9
M  V30 3 1 13 1
M  V30 4 1 13 12
M  V30 5 1 15 1
M  V30 6 1 15 5
M  V30 7 1 16 13
M  V30 8 1 17 14
M  V30 9 1 18 6
M  V30 10 1 19 5
M  V30 11 1 19 6
M  V30 12 1 19 10
M  V30 13 1 20 4
M  V30 14 1 21 20
M  V30 15 1 22 8
M  V30 16 1 22 16
M  V30 17 1 23 9
M  V30 18 1 23 15
M  V30 19 1 23 18
M  V30 20 1 24 8
M  V30 21 1 24 11
M  V30 22 1 24 17
M  V30 23 1 25 8
M  V30 24 1 26 21
M  V30 25 1 27 2
M  V30 26 1 27 3
M  V30 27 1 27 14
M  V30 28 1 27 25
M  V30 29 2 28 25
M  V30 30 1 29 10
M  V30 31 1 29 26
M  V30 32 1 30 6
M  V30 33 1 31 10
M  V30 34 1 31 20
M  V30 35 1 32 1
M  V30 36 1 33 1
M  V30 37 1 34 4
M  V30 38 1 35 4
M  V30 39 1 36 5
M  V30 40 1 37 5
M  V30 41 1 6 38 CFG=1
M  V30 42 1 39 7
M  V30 43 1 8 40 CFG=1
M  V30 44 1 41 9
M  V30 45 1 42 9
M  V30 46 1 10 43 CFG=3
M  V30 47 1 44 11
M  V30 48 1 45 12
M  V30 49 1 46 12
M  V30 50 1 47 14
M  V30 51 1 48 14
M  V30 52 1 15 49 CFG=1
M  V30 53 1 50 16
M  V30 54 1 51 16
M  V30 55 1 52 18
M  V30 56 1 53 18
M  V30 57 1 20 54 CFG=3
M  V30 58 1 55 21
M  V30 59 1 56 21
M  V30 60 1 57 22
M  V30 61 1 58 22
M  V30 62 1 23 59 CFG=3
M  V30 63 1 24 60 CFG=3
M  V30 64 1 61 26
M  V30 65 1 62 26
M  V30 66 1 63 29
M  V30 67 1 64 29
M  V30 68 1 65 31
M  V30 69 1 66 31
M  V30 70 1 13 67 CFG=3
M  V30 71 1 19 68 CFG=1
M  V30 END BOND
M  V30 END CTAB
M  END
>  <i_epik_Tot_Q>  (1) 
1

>  <i_epik_Tot_abs_Q>  (1) 
3

>  <i_i_glide_confnum>  (1) 
313

>  <i_i_glide_lignum>  (1) 
106

>  <i_i_glide_posenum>  (1) 
258

>  <i_i_glide_rotatable_bonds>  (1) 
7

>  <i_lp_mmshare_version>  (1) 
72125

>  <i_m_source_file_index>  (1) 
40

>  <i_f3d_flags>  (1) 
0

>  <num_sample>  (1) 
50

>  <b_lp_Chiralities_Consistent>  (1) 
1

>  <r_epik_Charging_Adjusted_Penalty>  (1) 
0.43569023002306473

>  <r_epik_Ionization_Penalty>  (1) 
0.17475065349743213

>  <r_epik_Ionization_Penalty_Charging>  (1) 
0.17468327186895813

>  <r_epik_Ionization_Penalty_Neutral>  (1) 
6.7381628474014066e-05

>  <r_epik_State_Penalty>  (1) 
0.26100695815410663

>  <r_glide_ring_energy>  (1) 
0

>  <r_i_docking_score>  (1) 
-3.588104149879034

>  <r_i_glide_ecoul>  (1) 
-5.8721965299669812

>  <r_i_glide_eff_state_penalty>  (1) 
0.26100695815410663

>  <r_i_glide_einternal>  (1) 
3.455260374243224

>  <r_i_glide_emodel>  (1) 
-32.259272109139296

>  <r_i_glide_emodel_strain>  (1) 
0.14417074309109523

>  <r_i_glide_energy>  (1) 
-26.318100151280007

>  <r_i_glide_erotb>  (1) 
0.49989103335302049

>  <r_i_glide_esite>  (1) 
-0.014295938363609427

>  <r_i_glide_evdw>  (1) 
-20.445903621313025

>  <r_i_glide_gscore>  (1) 
-3.8491111080331408

>  <r_i_glide_gscore_strain>  (1) 
0

>  <r_i_glide_hbond>  (1) 
0

>  <r_i_glide_ligand_efficiency>  (1) 
-0.1157452951573882

>  <r_i_glide_ligand_efficiency_ln>  (1) 
-0.80922744798395685

>  <r_i_glide_ligand_efficiency_sa>  (1) 
-0.36360003081275055

>  <r_i_glide_lipo>  (1) 
-0.94504743729633767

>  <r_i_glide_metal>  (1) 
-0

>  <r_i_glide_rewards>  (1) 
-1.4865341051655157

>  <r_lp_Energy>  (1) 
53.105624999999996

>  <r_lp_tautomer_probability>  (1) 
0.99995000000000001

>  <s_epik_Chemistry_Notes>  (1) 
This compound contains an acetal/aminal-like group ( X-CH(R)-Y where X, Y are N, S, or O) that may be acid/base labile, releasing an aldehyde.

>  <s_epik_cmdline>  (1) 
J2VwaWtfcHl0aG9uJywgJy1waHQnLCAnMS4wJywgJy1waCcsICc3LjQnLCAnLXRuJywgJzgnLCAnLW1hJywgJzUwMCcsICctaW1hZScsICc8aW5maWxlLm1hZT4nLCAnLW9tYWUnLCAnPG91dGZpbGUubWFlPic=

>  <s_epik_input>  (1) 
RkMxKEYpW0NIMl1PW0NASF0oW09IXSlbQ0BIXShDMT1PKVtDSDJdW0NIMl1OKFtDSDJdMilbQ0gyXVtDSDJdW0NASF0oW0NAQEhdMjMpW0NIMl1bQ0BIXShbT0hdKU4oW0NIMl0zKVtDQEBIXTRbQ0gyXVtDSDJdW0NIMl1bQ0BASF0oW0NIMl00KVtDSDJdW09IXQ==

>  <s_glide_docking_method>  (1) 
confgen

>  <s_i_glide_gridfile>  (1) 
gpcr_drd2_6luq_protein_autoprepared_prepared

>  <s_lp_Force_Field>  (1) 
S-OPLS

>  <s_lp_Variant>  (1) 
DiffSBDD_39-2

>  <s_m_source_file>  (1) 
generated_generic_title2_ligand_DiffSBDD_2026-06-23_prepared.sdf

>  <GenAI_Model>  (1) 
DiffSBDD

>  <Protein>  (1) 
generic_title2

$$$$
DiffSBDD_14
     RDKit          3D

  0  0  0  0  0  0  0  0  0  0999 V3000
M  V30 BEGIN CTAB
M  V30 COUNTS 71 74 0 0 1
M  V30 BEGIN ATOM
M  V30 1 C 6.355102 5.192785 -11.208966 0
M  V30 2 O 10.407564 4.905226 -16.553233 0
M  V30 3 C 9.121205 3.988182 -18.253885 0 CFG=2
M  V30 4 O 8.175418 2.983130 -15.713423 0
M  V30 5 C 11.928583 8.944245 -9.419904 0
M  V30 6 C 9.531230 8.375026 -9.769887 0
M  V30 7 N 9.470532 6.160073 -10.742502 0
M  V30 8 C 10.743256 8.122922 -8.883184 0 CFG=2
M  V30 9 C 11.604216 6.918744 -4.372296 0
M  V30 10 C 11.290942 4.833705 -17.667975 0
M  V30 11 C 12.175456 8.899380 -2.049452 0
M  V30 12 C 11.487911 8.047138 -5.012331 0
M  V30 13 C 11.775400 6.321060 -6.468783 0
M  V30 14 C 11.597813 7.900092 -6.488173 0 CFG=1
M  V30 15 C 8.293455 5.118837 -14.599429 0
M  V30 16 C 12.197691 7.564373 -1.995394 0
M  V30 17 C 7.992279 2.197502 -16.882752 0
M  V30 18 C 10.439970 8.395118 -7.368346 0 CFG=2
M  V30 19 C 9.062874 4.873533 -17.012669 0 CFG=1
M  V30 20 C 9.132152 2.501369 -17.861865 0
M  V30 21 O 9.356367 4.067160 -11.588180 0
M  V30 22 C 8.865682 5.188014 -11.478832 0
M  V30 23 O 11.775414 5.836666 -5.117952 0
M  V30 24 C 10.428526 4.449191 -18.876355 0
M  V30 25 C 11.283047 9.358815 -4.381863 0
M  V30 26 C 11.529764 6.642283 -2.928238 0
M  V30 27 C 9.072223 7.856509 -6.904716 0
M  V30 28 C 8.976023 7.465080 -10.597882 0
M  V30 29 C 7.321214 4.694335 -13.485762 0
M  V30 30 C 7.509778 5.504648 -12.181782 0 CFG=1
M  V30 31 C 11.568557 9.720527 -3.097582 0
M  V30 32 C 8.069130 4.387872 -15.931069 0 CFG=1
M  V30 33 H 6.540578 5.590256 -10.210716 0
M  V30 34 H 5.416149 5.619226 -11.562095 0
M  V30 35 H 6.208912 4.117774 -11.096067 0
M  V30 36 H 8.272318 4.183889 -18.910838 0
M  V30 37 H 12.098228 8.730877 -10.473672 0
M  V30 38 H 11.749005 10.014470 -9.328486 0
M  V30 39 H 12.862261 8.717564 -8.907955 0
M  V30 40 H 9.095568 9.358814 -9.710807 0
M  V30 41 H 10.324126 5.939151 -10.255436 0
M  V30 42 H 11.020168 7.075466 -8.981875 0
M  V30 43 H 12.054546 4.081471 -17.465873 0
M  V30 44 H 11.790049 5.791357 -17.820595 0
M  V30 45 H 12.659254 9.425557 -1.241044 0
M  V30 46 H 12.749410 5.990251 -6.785019 0
M  V30 47 H 11.021370 5.788644 -7.048044 0
M  V30 48 H 12.523390 8.390399 -6.785043 0
M  V30 49 H 8.191596 6.190596 -14.770146 0
M  V30 50 H 9.318699 4.952257 -14.268413 0
M  V30 51 H 12.702662 7.094162 -1.185024 0
M  V30 52 H 8.008917 1.144326 -16.602165 0
M  V30 53 H 7.017953 2.396955 -17.330354 0
M  V30 54 H 10.410679 9.464555 -7.184983 0
M  V30 55 H 8.803310 5.891005 -17.308981 0
M  V30 56 H 10.079280 2.239762 -17.386857 0
M  V30 57 H 9.046233 1.876697 -18.751384 0
M  V30 58 H 10.897415 3.695496 -19.509560 0
M  V30 59 H 10.249130 5.333990 -19.488638 0
M  V30 60 H 10.893948 10.139350 -5.018735 0
M  V30 61 H 10.516145 6.390198 -2.614903 0
M  V30 62 H 12.062190 5.699740 -2.794431 0
M  V30 63 H 8.847978 6.875992 -7.326602 0
M  V30 64 H 9.007463 7.768714 -5.825713 0
M  V30 65 H 8.277877 8.545288 -7.185187 0
M  V30 66 H 8.118380 7.691659 -11.189422 0
M  V30 67 H 7.425755 3.626374 -13.286819 0
M  V30 68 H 6.299620 4.827909 -13.845292 0
M  V30 69 H 7.421056 6.526300 -12.533024 0
M  V30 70 H 11.375399 10.749109 -2.837107 0
M  V30 71 H 7.054294 4.592649 -16.276914 0
M  V30 END ATOM
M  V30 BEGIN BOND
M  V30 1 1 8 5
M  V30 2 1 8 6
M  V30 3 1 10 2
M  V30 4 2 12 9
M  V30 5 1 14 12
M  V30 6 1 14 13
M  V30 7 2 16 11
M  V30 8 1 17 4
M  V30 9 1 18 8
M  V30 10 1 18 14
M  V30 11 1 19 2
M  V30 12 1 19 3
M  V30 13 1 20 3
M  V30 14 1 20 17
M  V30 15 1 22 7
M  V30 16 2 22 21
M  V30 17 1 23 9
M  V30 18 1 23 13
M  V30 19 1 24 3
M  V30 20 1 24 10
M  V30 21 1 25 12
M  V30 22 1 26 9
M  V30 23 1 26 16
M  V30 24 1 27 18
M  V30 25 2 28 6
M  V30 26 1 28 7
M  V30 27 1 29 15
M  V30 28 1 30 1
M  V30 29 1 30 22
M  V30 30 1 30 29
M  V30 31 1 31 11
M  V30 32 2 31 25
M  V30 33 1 32 4
M  V30 34 1 32 15
M  V30 35 1 32 19
M  V30 36 1 33 1
M  V30 37 1 34 1
M  V30 38 1 35 1
M  V30 39 1 3 36 CFG=3
M  V30 40 1 37 5
M  V30 41 1 38 5
M  V30 42 1 39 5
M  V30 43 1 40 6
M  V30 44 1 41 7
M  V30 45 1 8 42 CFG=1
M  V30 46 1 43 10
M  V30 47 1 44 10
M  V30 48 1 45 11
M  V30 49 1 46 13
M  V30 50 1 47 13
M  V30 51 1 14 48 CFG=3
M  V30 52 1 49 15
M  V30 53 1 50 15
M  V30 54 1 51 16
M  V30 55 1 52 17
M  V30 56 1 53 17
M  V30 57 1 18 54 CFG=3
M  V30 58 1 19 55 CFG=3
M  V30 59 1 56 20
M  V30 60 1 57 20
M  V30 61 1 58 24
M  V30 62 1 59 24
M  V30 63 1 60 25
M  V30 64 1 61 26
M  V30 65 1 62 26
M  V30 66 1 63 27
M  V30 67 1 64 27
M  V30 68 1 65 27
M  V30 69 1 66 28
M  V30 70 1 67 29
M  V30 71 1 68 29
M  V30 72 1 30 69 CFG=3
M  V30 73 1 70 31
M  V30 74 1 32 71 CFG=3
M  V30 END BOND
M  V30 END CTAB
M  END
>  <i_epik_Tot_Q>  (1) 
0

>  <i_epik_Tot_abs_Q>  (1) 
0

>  <i_i_glide_confnum>  (1) 
240

>  <i_i_glide_lignum>  (1) 
53

>  <i_i_glide_posenum>  (1) 
118

>  <i_i_glide_rotatable_bonds>  (1) 
9

>  <i_lp_mmshare_version>  (1) 
72125

>  <i_m_source_file_index>  (1) 
15

>  <i_f3d_flags>  (1) 
0

>  <num_sample>  (1) 
50

>  <b_lp_Chiralities_Consistent>  (1) 
1

>  <r_epik_Charging_Adjusted_Penalty>  (1) 
0

>  <r_epik_Ionization_Penalty>  (1) 
2.2973717276536928e-08

>  <r_epik_Ionization_Penalty_Charging>  (1) 
0

>  <r_epik_Ionization_Penalty_Neutral>  (1) 
2.2973717276536928e-08

>  <r_epik_State_Penalty>  (1) 
-0

>  <r_glide_ring_energy>  (1) 
0

>  <r_i_docking_score>  (1) 
-3.5720478868220185

>  <r_i_glide_ecoul>  (1) 
1.8360645506024469

>  <r_i_glide_eff_state_penalty>  (1) 
-0

>  <r_i_glide_einternal>  (1) 
7.2357988281007994

>  <r_i_glide_emodel>  (1) 
-27.396090022813208

>  <r_i_glide_emodel_strain>  (1) 
0.25833878985595504

>  <r_i_glide_energy>  (1) 
-26.642314352662115

>  <r_i_glide_erotb>  (1) 
0.7170138056727231

>  <r_i_glide_esite>  (1) 
-0.049196161221292285

>  <r_i_glide_evdw>  (1) 
-28.478378903264563

>  <r_i_glide_gscore>  (1) 
-3.5720478868220185

>  <r_i_glide_gscore_strain>  (1) 
0

>  <r_i_glide_hbond>  (1) 
0

>  <r_i_glide_ligand_efficiency>  (1) 
-0.11162649646318808

>  <r_i_glide_ligand_efficiency_ln>  (1) 
-0.7998788922073462

>  <r_i_glide_ligand_efficiency_sa>  (1) 
-0.35439203582637857

>  <r_i_glide_lipo>  (1) 
-3.0422831819421061

>  <r_i_glide_metal>  (1) 
-0

>  <r_i_glide_rewards>  (1) 
-0.049073086758481654

>  <r_lp_Energy>  (1) 
16.754915

>  <r_lp_tautomer_probability>  (1) 
1

>  <s_epik_cmdline>  (1) 
J2VwaWtfcHl0aG9uJywgJy1waHQnLCAnMS4wJywgJy1waCcsICc3LjQnLCAnLXRuJywgJzgnLCAnLW1hJywgJzUwMCcsICctaW1hZScsICc8aW5maWxlLm1hZT4nLCAnLW9tYWUnLCAnPG91dGZpbGUubWFlPic=

>  <s_epik_input>  (1) 
W0NIMl0xW0NIMl1PW0NAQEhdKFtDQEBIXTEyKVtDQEBIXShPW0NIMl1bQ0gyXTIpW0NIMl1bQ0gyXVtDQEBIXShbQ0gzXSlDKD1PKVtOSF0vW0NIXT1bQ0hdXFtDQEBIXShbQ0gzXSlbQ0BASF0oW0NIM10pW0NASF0oW0NIMl1PMylDKD1DMzQpW0NIXT1bQ0hdW0NIXT1bQ0hdW0NIMl00

>  <s_glide_docking_method>  (1) 
confgen

>  <s_i_glide_gridfile>  (1) 
gpcr_drd2_6luq_protein_autoprepared_prepared

>  <s_lp_Force_Field>  (1) 
S-OPLS

>  <s_lp_Variant>  (1) 
DiffSBDD_14-2

>  <s_m_source_file>  (1) 
generated_generic_title2_ligand_DiffSBDD_2026-06-23_prepared.sdf

>  <GenAI_Model>  (1) 
DiffSBDD

>  <Protein>  (1) 
generic_title2

$$$$
DiffSBDD_39
     RDKit          3D

  0  0  0  0  0  0  0  0  0  0999 V3000
M  V30 BEGIN CTAB
M  V30 COUNTS 68 71 0 0 1
M  V30 BEGIN ATOM
M  V30 1 C 8.083876 5.084556 -13.367697 0
M  V30 2 F 8.249512 6.269525 -7.433474 0
M  V30 3 F 8.979422 4.298508 -7.807921 0
M  V30 4 C 13.446115 6.702070 -15.885121 0
M  V30 5 C 8.810359 4.194868 -15.638677 0
M  V30 6 C 7.684161 4.686050 -17.706365 0 CFG=1
M  V30 7 O 12.975400 6.972802 -14.578693 0
M  V30 8 C 9.627270 7.143051 -10.083982 0 CFG=2
M  V30 9 C 6.078431 6.733409 -14.675533 0
M  V30 10 C 10.034341 5.438384 -17.435909 0 CFG=2
M  V30 11 O 11.429531 8.749467 -9.753951 0
M  V30 12 C 6.098634 6.521648 -13.134619 0
M  V30 13 N 7.455969 6.197269 -12.597690 0 CFG=2 CHG=1
M  V30 14 C 10.554819 6.071812 -7.522785 0
M  V30 15 C 8.117203 5.347468 -14.890752 0 CFG=1
M  V30 16 C 8.309847 7.400124 -12.357282 0
M  V30 17 O 10.864407 7.373010 -8.021459 0
M  V30 18 C 6.787140 5.730847 -16.976643 0
M  V30 19 N 8.995642 4.450262 -17.073554 0
M  V30 20 C 12.263857 6.612288 -16.860881 0 CFG=1
M  V30 21 C 12.732741 6.429694 -18.313947 0
M  V30 22 C 9.679210 7.177988 -11.640721 0
M  V30 23 C 6.710667 5.548171 -15.438685 0 CFG=2
M  V30 24 C 10.996320 7.457181 -9.410618 0 CFG=1
M  V30 25 C 9.110403 5.803804 -9.552504 0
M  V30 26 C 11.539700 6.336816 -19.275083 0
M  V30 27 C 9.195818 5.585754 -8.054350 0
M  V30 28 O 8.647116 4.943211 -10.303006 0
M  V30 29 C 10.572582 5.212271 -18.864530 0
M  V30 30 O 7.052918 3.423804 -17.747473 0
M  V30 31 C 11.247357 5.515798 -16.464528 0
M  V30 32 H 7.503163 4.180482 -13.171385 0
M  V30 33 H 9.083846 4.859772 -13.002674 0
M  V30 34 H 14.108544 7.513521 -16.188490 0
M  V30 35 H 14.037339 5.785847 -15.881800 0
M  V30 36 H 8.221660 3.284095 -15.512705 0
M  V30 37 H 9.768228 3.990244 -15.183639 0
M  V30 38 H 7.811493 4.993828 -18.743103 0
M  V30 39 H 12.479115 6.222431 -14.288861 0
M  V30 40 H 8.975407 7.934777 -9.732110 0
M  V30 41 H 5.053843 6.875966 -15.017215 0
M  V30 42 H 6.606080 7.655862 -14.922747 0
M  V30 43 H 9.532141 6.390224 -17.432211 0
M  V30 44 H 12.282279 8.880974 -9.364523 0
M  V30 45 H 5.428789 5.698552 -12.880126 0
M  V30 46 H 5.693069 7.398231 -12.626893 0
M  V30 47 H 10.522064 6.125430 -6.435245 0
M  V30 48 H 11.355626 5.379605 -7.757893 0
M  V30 49 H 8.647692 6.272732 -15.077905 0
M  V30 50 H 8.482362 7.878574 -13.314282 0
M  V30 51 H 7.738102 8.123223 -11.772347 0
M  V30 52 H 5.781340 5.706712 -17.394067 0
M  V30 53 H 7.159839 6.724443 -17.213388 0
M  V30 54 H 11.776308 7.580422 -16.803196 0
M  V30 55 H 13.371382 7.266091 -18.604266 0
M  V30 56 H 13.341992 5.529342 -18.401065 0
M  V30 57 H 10.231330 6.325239 -12.030284 0
M  V30 58 H 10.293615 8.020169 -11.929678 0
M  V30 59 H 6.135971 4.647606 -15.222421 0
M  V30 60 H 11.786083 6.790494 -9.738136 0
M  V30 61 H 11.015927 7.293173 -19.294137 0
M  V30 62 H 11.894200 6.168137 -20.290932 0
M  V30 63 H 9.767090 5.168921 -19.593326 0
M  V30 64 H 11.082602 4.250335 -18.910819 0
M  V30 65 H 6.709416 3.280317 -18.615532 0
M  V30 66 H 11.744860 4.545694 -16.409153 0
M  V30 67 H 10.907016 5.745514 -15.457408 0
M  V30 68 H 7.307586 5.826570 -11.665036 0
M  V30 END ATOM
M  V30 BEGIN BOND
M  V30 1 1 7 4
M  V30 2 1 12 9
M  V30 3 1 13 1
M  V30 4 1 13 12
M  V30 5 1 15 1
M  V30 6 1 15 5
M  V30 7 1 16 13
M  V30 8 1 17 14
M  V30 9 1 18 6
M  V30 10 1 19 5
M  V30 11 1 19 6
M  V30 12 1 19 10
M  V30 13 1 20 4
M  V30 14 1 21 20
M  V30 15 1 22 8
M  V30 16 1 22 16
M  V30 17 1 23 9
M  V30 18 1 23 15
M  V30 19 1 23 18
M  V30 20 1 24 8
M  V30 21 1 24 11
M  V30 22 1 24 17
M  V30 23 1 25 8
M  V30 24 1 26 21
M  V30 25 1 27 2
M  V30 26 1 27 3
M  V30 27 1 27 14
M  V30 28 1 27 25
M  V30 29 2 28 25
M  V30 30 1 29 10
M  V30 31 1 29 26
M  V30 32 1 30 6
M  V30 33 1 31 10
M  V30 34 1 31 20
M  V30 35 1 32 1
M  V30 36 1 33 1
M  V30 37 1 34 4
M  V30 38 1 35 4
M  V30 39 1 36 5
M  V30 40 1 37 5
M  V30 41 1 6 38 CFG=3
M  V30 42 1 39 7
M  V30 43 1 8 40 CFG=1
M  V30 44 1 41 9
M  V30 45 1 42 9
M  V30 46 1 10 43 CFG=3
M  V30 47 1 44 11
M  V30 48 1 45 12
M  V30 49 1 46 12
M  V30 50 1 47 14
M  V30 51 1 48 14
M  V30 52 1 15 49 CFG=1
M  V30 53 1 50 16
M  V30 54 1 51 16
M  V30 55 1 52 18
M  V30 56 1 53 18
M  V30 57 1 20 54 CFG=3
M  V30 58 1 55 21
M  V30 59 1 56 21
M  V30 60 1 57 22
M  V30 61 1 58 22
M  V30 62 1 23 59 CFG=3
M  V30 63 1 24 60 CFG=3
M  V30 64 1 61 26
M  V30 65 1 62 26
M  V30 66 1 63 29
M  V30 67 1 64 29
M  V30 68 1 65 30
M  V30 69 1 66 31
M  V30 70 1 67 31
M  V30 71 1 13 68 CFG=1
M  V30 END BOND
M  V30 END CTAB
M  END
>  <i_epik_Tot_Q>  (1) 
1

>  <i_epik_Tot_abs_Q>  (1) 
1

>  <i_i_glide_confnum>  (1) 
149

>  <i_i_glide_lignum>  (1) 
110

>  <i_i_glide_posenum>  (1) 
258

>  <i_i_glide_rotatable_bonds>  (1) 
8

>  <i_lp_mmshare_version>  (1) 
72125

>  <i_m_source_file_index>  (1) 
40

>  <i_f3d_flags>  (1) 
0

>  <num_sample>  (1) 
50

>  <b_lp_Chiralities_Consistent>  (1) 
1

>  <r_epik_Charging_Adjusted_Penalty>  (1) 
0.93182942678714009

>  <r_epik_Ionization_Penalty>  (1) 
0.32046720352224994

>  <r_epik_Ionization_Penalty_Charging>  (1) 
0.0037689991519664944

>  <r_epik_Ionization_Penalty_Neutral>  (1) 
0.31669820437028345

>  <r_epik_State_Penalty>  (1) 
0.9280604276351736

>  <r_glide_ring_energy>  (1) 
0

>  <r_i_docking_score>  (1) 
-3.5664254188021669

>  <r_i_glide_ecoul>  (1) 
-4.385677828776366

>  <r_i_glide_eff_state_penalty>  (1) 
0.9280604276351736

>  <r_i_glide_einternal>  (1) 
7.0647335283932637

>  <r_i_glide_emodel>  (1) 
-31.743921817455622

>  <r_i_glide_emodel_strain>  (1) 
0

>  <r_i_glide_energy>  (1) 
-25.383797812392661

>  <r_i_glide_erotb>  (1) 
0.49989103335302049

>  <r_i_glide_esite>  (1) 
-0.2098812027928843

>  <r_i_glide_evdw>  (1) 
-20.998119983616295

>  <r_i_glide_gscore>  (1) 
-4.4944858464373407

>  <r_i_glide_gscore_strain>  (1) 
0

>  <r_i_glide_hbond>  (1) 
-0.19482867728012757

>  <r_i_glide_ligand_efficiency>  (1) 
-0.11504598125168281

>  <r_i_glide_ligand_efficiency_ln>  (1) 
-0.804338229752804

>  <r_i_glide_ligand_efficiency_sa>  (1) 
-0.36140321963941935

>  <r_i_glide_lipo>  (1) 
-1.6696724088966668

>  <r_i_glide_metal>  (1) 
-0

>  <r_i_glide_rewards>  (1) 
-1.2122369173234127

>  <r_lp_Energy>  (1) 
48.475696999999997

>  <s_epik_Chemistry_Notes>  (1) 
This compound contains an acetal/aminal-like group ( X-CH(R)-Y where X, Y are N, S, or O) that may be acid/base labile, releasing an aldehyde.

>  <s_epik_cmdline>  (1) 
J2VwaWtfcHl0aG9uJywgJy1waHQnLCAnMS4wJywgJy1waCcsICc3LjQnLCAnLXRuJywgJzgnLCAnLW1hJywgJzUwMCcsICctaW1hZScsICc8aW5maWxlLm1hZT4nLCAnLW9tYWUnLCAnPG91dGZpbGUubWFlPic=

>  <s_epik_input>  (1) 
RkMxKEYpW0NIMl1PW0NASF0oW09IXSlbQ0BIXShDMT1PKVtDSDJdW0NIMl1OKFtDSDJdMilbQ0gyXVtDSDJdW0NASF0oW0NAQEhdMjMpW0NIMl1bQ0BIXShbT0hdKU4oW0NIMl0zKVtDQEBIXTRbQ0gyXVtDSDJdW0NIMl1bQ0BASF0oW0NIMl00KVtDSDJdW09IXQ==

>  <s_glide_docking_method>  (1) 
confgen

>  <s_i_glide_gridfile>  (1) 
gpcr_drd2_6luq_protein_autoprepared_prepared

>  <s_lp_Force_Field>  (1) 
S-OPLS

>  <s_lp_Variant>  (1) 
DiffSBDD_39-6

>  <s_m_source_file>  (1) 
generated_generic_title2_ligand_DiffSBDD_2026-06-23_prepared.sdf

>  <GenAI_Model>  (1) 
DiffSBDD

>  <Protein>  (1) 
generic_title2

$$$$
DiffSBDD_0
     RDKit          3D

  0  0  0  0  0  0  0  0  0  0999 V3000
M  V30 BEGIN CTAB
M  V30 COUNTS 70 74 0 0 1
M  V30 BEGIN ATOM
M  V30 1 C 4.851570 4.932754 -20.492803 0
M  V30 2 N 9.099244 5.190443 -15.235897 0
M  V30 3 C 5.943994 2.857102 -13.642474 0 CFG=1
M  V30 4 C 10.273902 5.527363 -17.393838 0
M  V30 5 F 5.287458 7.573205 -19.282495 0
M  V30 6 C 7.769178 5.720547 -15.595216 0
M  V30 7 C 5.709879 5.132167 -21.752752 0
M  V30 8 C 9.504218 6.487188 -19.413123 0
M  V30 9 C 7.156540 6.847682 -20.510292 0 CFG=1
M  V30 10 C 6.864986 1.028876 -15.395715 0
M  V30 11 C 9.175440 4.617493 -13.904926 0 CFG=2
M  V30 12 C 9.329729 7.299963 -11.376337 0
M  V30 13 C 6.151811 1.406269 -14.125271 0 CFG=1
M  V30 14 O 9.197255 5.989933 -18.106223 0
M  V30 15 C 6.261820 6.661999 -19.268077 0 CFG=2
M  V30 16 C 6.841545 1.916751 -12.879321 0 CFG=1
M  V30 17 N 6.871303 3.938772 -14.069823 0 CFG=1 CHG=1
M  V30 18 C 8.470253 6.029920 -20.458510 0
M  V30 19 C 9.841200 6.260466 -12.380724 0
M  V30 20 C 8.238022 3.433803 -13.998432 0 CFG=2
M  V30 21 O 9.375427 6.794331 -10.060155 0
M  V30 22 C 6.343689 6.535114 -21.787321 0
M  V30 23 N 7.819078 0.065039 -15.449582 0
M  V30 24 C 6.622321 4.708512 -15.316820 0
M  V30 25 N 6.575350 1.618791 -16.551757 0
M  V30 26 O 7.406880 0.998795 -17.483028 0
M  V30 27 C 8.069089 0.092443 -16.751689 0
M  V30 28 O 8.764919 5.482405 -12.893630 0
M  V30 29 N 8.929411 -0.696004 -17.471906 0
M  V30 30 C 10.214105 5.161950 -16.090893 0
M  V30 31 C 5.632715 5.258076 -19.204891 0
M  V30 32 C 9.775240 -1.777696 -17.057849 0
M  V30 33 C 8.263813 2.439678 -12.858956 0
M  V30 34 H 3.976522 5.578076 -20.557354 0
M  V30 35 H 4.476729 3.909056 -20.456596 0
M  V30 36 H 5.015706 3.190065 -13.185029 0
M  V30 37 H 11.177602 5.479489 -17.985704 0
M  V30 38 H 7.610589 6.611598 -14.987360 0
M  V30 39 H 7.664013 6.050467 -16.613252 0
M  V30 40 H 5.092598 4.989339 -22.641317 0
M  V30 41 H 6.489446 4.371560 -21.800651 0
M  V30 42 H 9.561139 7.574321 -19.376887 0
M  V30 43 H 10.479533 6.154527 -19.773896 0
M  V30 44 H 7.439026 7.900703 -20.556285 0
M  V30 45 H 10.175385 4.277616 -13.695874 0
M  V30 46 H 8.317688 7.621081 -11.628120 0
M  V30 47 H 9.969462 8.181326 -11.396294 0
M  V30 48 H 5.321389 0.720451 -13.971201 0
M  V30 49 H 6.824020 6.877837 -18.365335 0
M  V30 50 H 6.483392 1.427490 -11.985042 0
M  V30 51 H 8.944226 6.116663 -21.436401 0
M  V30 52 H 8.275751 4.965853 -20.330431 0
M  V30 53 H 10.366003 6.775620 -13.184880 0
M  V30 54 H 10.572739 5.600822 -11.925644 0
M  V30 55 H 8.489283 2.899620 -14.914742 0
M  V30 56 H 8.643879 7.186347 -9.585198 0
M  V30 57 H 5.549218 7.274230 -21.893743 0
M  V30 58 H 6.966972 6.643164 -22.675385 0
M  V30 59 H 5.658975 5.216563 -15.261744 0
M  V30 60 H 6.576035 4.048674 -16.173020 0
M  V30 61 H 8.954068 -0.505103 -18.463055 0
M  V30 62 H 11.101799 4.794807 -15.596293 0
M  V30 63 H 4.975625 5.192044 -18.338321 0
M  V30 64 H 6.408171 4.508025 -19.046582 0
M  V30 65 H 10.794837 -1.610238 -17.404963 0
M  V30 66 H 9.775068 -1.856431 -15.970986 0
M  V30 67 H 9.375734 -2.710375 -17.454676 0
M  V30 68 H 8.500188 2.951518 -11.932503 0
M  V30 69 H 8.981095 1.634571 -13.008831 0
M  V30 70 H 6.850092 4.626615 -13.327338 0
M  V30 END ATOM
M  V30 BEGIN BOND
M  V30 1 1 6 2
M  V30 2 1 7 1
M  V30 3 1 11 2
M  V30 4 1 13 3
M  V30 5 1 13 10
M  V30 6 1 14 4
M  V30 7 1 14 8
M  V30 8 1 15 5
M  V30 9 1 15 9
M  V30 10 1 16 3
M  V30 11 1 16 13
M  V30 12 1 17 3
M  V30 13 1 18 8
M  V30 14 1 18 9
M  V30 15 1 19 12
M  V30 16 1 20 11
M  V30 17 1 20 17
M  V30 18 1 21 12
M  V30 19 1 22 7
M  V30 20 1 22 9
M  V30 21 1 23 10
M  V30 22 1 24 6
M  V30 23 1 24 17
M  V30 24 2 25 10
M  V30 25 1 26 25
M  V30 26 2 27 23
M  V30 27 1 27 26
M  V30 28 1 28 11
M  V30 29 1 28 19
M  V30 30 1 29 27
M  V30 31 1 30 2
M  V30 32 2 30 4
M  V30 33 1 31 1
M  V30 34 1 31 15
M  V30 35 1 32 29
M  V30 36 1 33 16
M  V30 37 1 33 20
M  V30 38 1 34 1
M  V30 39 1 35 1
M  V30 40 1 3 36 CFG=1
M  V30 41 1 37 4
M  V30 42 1 38 6
M  V30 43 1 39 6
M  V30 44 1 40 7
M  V30 45 1 41 7
M  V30 46 1 42 8
M  V30 47 1 43 8
M  V30 48 1 9 44 CFG=3
M  V30 49 1 11 45 CFG=1
M  V30 50 1 46 12
M  V30 51 1 47 12
M  V30 52 1 13 48 CFG=1
M  V30 53 1 15 49 CFG=1
M  V30 54 1 16 50 CFG=1
M  V30 55 1 51 18
M  V30 56 1 52 18
M  V30 57 1 53 19
M  V30 58 1 54 19
M  V30 59 1 20 55 CFG=3
M  V30 60 1 56 21
M  V30 61 1 57 22
M  V30 62 1 58 22
M  V30 63 1 59 24
M  V30 64 1 60 24
M  V30 65 1 61 29
M  V30 66 1 62 30
M  V30 67 1 63 31
M  V30 68 1 64 31
M  V30 69 1 65 32
M  V30 70 1 66 32
M  V30 71 1 67 32
M  V30 72 1 68 33
M  V30 73 1 69 33
M  V30 74 1 17 70 CFG=1
M  V30 END BOND
M  V30 END CTAB
M  END
>  <i_epik_Tot_Q>  (1) 
1

>  <i_epik_Tot_abs_Q>  (1) 
1

>  <i_i_glide_confnum>  (1) 
637

>  <i_i_glide_lignum>  (1) 
4

>  <i_i_glide_posenum>  (1) 
36

>  <i_i_glide_rotatable_bonds>  (1) 
11

>  <i_lp_mmshare_version>  (1) 
72125

>  <i_m_source_file_index>  (1) 
1

>  <i_f3d_flags>  (1) 
0

>  <num_sample>  (1) 
50

>  <b_lp_Chiralities_Consistent>  (1) 
1

>  <r_epik_Charging_Adjusted_Penalty>  (1) 
0.41344222577729461

>  <r_epik_Ionization_Penalty>  (1) 
0.0027644559619576371

>  <r_epik_Ionization_Penalty_Charging>  (1) 
0.0027623868246906495

>  <r_epik_Ionization_Penalty_Neutral>  (1) 
2.0691372669875143e-06

>  <r_epik_State_Penalty>  (1) 
0.41067983895260396

>  <r_glide_ring_energy>  (1) 
1.2887488819257875

>  <r_i_docking_score>  (1) 
-3.561304935700476

>  <r_i_glide_ecoul>  (1) 
-5.2304845689079382

>  <r_i_glide_eff_state_penalty>  (1) 
0.41067983895260396

>  <r_i_glide_einternal>  (1) 
8.4946929491409193

>  <r_i_glide_emodel>  (1) 
-30.167777350167558

>  <r_i_glide_emodel_strain>  (1) 
1.235579066323524

>  <r_i_glide_energy>  (1) 
-28.219030228854621

>  <r_i_glide_erotb>  (1) 
0.74142510397790429

>  <r_i_glide_esite>  (1) 
0

>  <r_i_glide_evdw>  (1) 
-22.988545659946681

>  <r_i_glide_gscore>  (1) 
-3.9719847746530799

>  <r_i_glide_gscore_strain>  (1) 
0

>  <r_i_glide_hbond>  (1) 
-0.16

>  <r_i_glide_ligand_efficiency>  (1) 
-0.10791833138486291

>  <r_i_glide_ligand_efficiency_ln>  (1) 
-0.79201577824968694

>  <r_i_glide_ligand_efficiency_sa>  (1) 
-0.34615175275281385

>  <r_i_glide_lipo>  (1) 
-1.7076829834727414

>  <r_i_glide_metal>  (1) 
-0

>  <r_i_glide_rewards>  (1) 
-0.9117269268247179

>  <r_lp_Energy>  (1) 
41.409427000000001

>  <r_lp_tautomer_probability>  (1) 
0.5

>  <s_epik_Chemistry_Notes>  (1) 
This compound has an imine and may undergo hydrolysis. This compound contains an acetal/aminal-like group ( X-CH(R)-Y where X, Y are N, S, or O) that may be acid/base labile, releasing an aldehyde.

>  <s_epik_cmdline>  (1) 
J2VwaWtfcHl0aG9uJywgJy1waHQnLCAnMS4wJywgJy1waCcsICc3LjQnLCAnLXRuJywgJzgnLCAnLW1hJywgJzUwMCcsICctaW1hZScsICc8aW5maWxlLm1hZT4nLCAnLW9tYWUnLCAnPG91dGZpbGUubWFlPic=

>  <s_epik_input>  (1) 
W0NIMl0xW0NIMl1bQ0gyXVtDSDJdW0NASF0oRilbQ0BIXTFbQ0gyXVtDSDJdTy9bQ0hdPVtDSF1cTihbQ0BIXTJPW0NIMl1bQ0gyXVtPSF0pW0NIMl1bQ0gyXU4zW0NAQEhdMltDSDJdW0NAQEhdKFtDQEBIXTM0KVtDQEBIXTRjNW5jKG9uNSlbTkhdW0NIM10=

>  <s_glide_docking_method>  (1) 
confgen

>  <s_i_glide_gridfile>  (1) 
gpcr_drd2_6luq_protein_autoprepared_prepared

>  <s_lp_Force_Field>  (1) 
S-OPLS

>  <s_lp_Variant>  (1) 
DiffSBDD_0-4

>  <s_m_source_file>  (1) 
generated_generic_title2_ligand_DiffSBDD_2026-06-23_prepared.sdf

>  <GenAI_Model>  (1) 
DiffSBDD

>  <Protein>  (1) 
generic_title2

$$$$
DiffSBDD_13
     RDKit          3D

  0  0  0  0  0  0  0  0  0  0999 V3000
M  V30 BEGIN CTAB
M  V30 COUNTS 48 50 0 0 1
M  V30 BEGIN ATOM
M  V30 1 O 16.914835 9.177727 -18.468044 0
M  V30 2 C 15.846013 8.814226 -18.799508 0
M  V30 3 C 6.385206 5.353239 -14.878760 0
M  V30 4 F 12.121927 8.624320 -21.987182 0
M  V30 5 C 9.228256 5.197410 -15.449500 0
M  V30 6 F 5.954022 4.310843 -10.775705 0
M  V30 7 C 14.655509 8.393535 -19.168769 0
M  V30 8 C 8.377907 5.553336 -11.739504 0
M  V30 9 C 6.159518 4.324453 -12.090988 0
M  V30 10 C 10.528989 5.589861 -15.586111 0
M  V30 11 C 15.196524 7.132155 -21.894495 0
M  V30 12 F 4.968624 4.387320 -12.676753 0
M  V30 13 C 13.815406 7.585636 -18.293975 0
M  V30 14 C 14.147611 8.787969 -20.572475 0 CFG=1
M  V30 15 C 11.799175 6.410738 -17.738856 0
M  V30 16 C 6.896698 5.701634 -16.287296 0
M  V30 17 C 9.427173 5.313096 -12.821095 0
M  V30 18 C 8.599646 5.220145 -18.104821 0
M  V30 19 N 15.043303 8.370594 -21.652060 0
M  V30 20 C 12.576599 7.193044 -18.648118 0
M  V30 21 C 12.016481 7.573564 -19.930498 0
M  V30 22 C 11.155736 5.908977 -16.828103 0
M  V30 23 C 8.626922 4.914827 -14.068903 0 CFG=1
M  V30 24 C 12.711438 8.305298 -20.820667 0
M  V30 25 F 6.744298 3.181069 -12.440136 0
M  V30 26 C 7.020402 5.558087 -12.463477 0 CFG=2
M  V30 27 C 8.229913 4.992079 -16.624435 0 CFG=1
M  V30 28 N 7.399281 5.676940 -13.879775 0
M  V30 29 H 5.470474 5.910194 -14.673968 0
M  V30 30 H 6.144312 4.291077 -14.832864 0
M  V30 31 H 8.551775 6.511098 -11.247271 0
M  V30 32 H 8.424589 4.784893 -10.967208 0
M  V30 33 H 11.140683 5.701779 -14.707736 0
M  V30 34 H 15.851241 6.802331 -22.704057 0
M  V30 35 H 14.676421 6.377170 -21.298889 0
M  V30 36 H 14.198969 7.296689 -17.324551 0
M  V30 37 H 14.102996 9.877250 -20.588915 0
M  V30 38 H 6.976965 6.785074 -16.374334 0
M  V30 39 H 6.139726 5.413305 -17.016537 0
M  V30 40 H 9.971569 6.242663 -12.974727 0
M  V30 41 H 10.152554 4.550822 -12.532556 0
M  V30 42 H 9.428068 4.587106 -18.421677 0
M  V30 43 H 7.760726 4.956266 -18.749742 0
M  V30 44 H 8.840649 6.262149 -18.312522 0
M  V30 45 H 11.010077 7.266180 -20.177480 0
M  V30 46 H 8.400734 3.849135 -14.022567 0
M  V30 47 H 6.460567 6.452385 -12.186301 0
M  V30 48 H 8.014615 3.923824 -16.565636 0
M  V30 END ATOM
M  V30 BEGIN BOND
M  V30 1 2 2 1
M  V30 2 2 7 2
M  V30 3 1 9 6
M  V30 4 2 10 5
M  V30 5 1 12 9
M  V30 6 1 13 7
M  V30 7 1 14 7
M  V30 8 1 16 3
M  V30 9 1 17 8
M  V30 10 2 19 11
M  V30 11 1 19 14
M  V30 12 2 20 13
M  V30 13 1 20 15
M  V30 14 1 21 20
M  V30 15 1 22 10
M  V30 16 3 22 15
M  V30 17 1 23 5
M  V30 18 1 23 17
M  V30 19 1 24 4
M  V30 20 1 24 14
M  V30 21 2 24 21
M  V30 22 1 25 9
M  V30 23 1 26 8
M  V30 24 1 26 9
M  V30 25 1 27 5
M  V30 26 1 27 16
M  V30 27 1 27 18
M  V30 28 1 28 3
M  V30 29 1 28 23
M  V30 30 1 28 26
M  V30 31 1 29 3
M  V30 32 1 30 3
M  V30 33 1 31 8
M  V30 34 1 32 8
M  V30 35 1 33 10
M  V30 36 1 34 11
M  V30 37 1 35 11
M  V30 38 1 36 13
M  V30 39 1 14 37 CFG=1
M  V30 40 1 38 16
M  V30 41 1 39 16
M  V30 42 1 40 17
M  V30 43 1 41 17
M  V30 44 1 42 18
M  V30 45 1 43 18
M  V30 46 1 44 18
M  V30 47 1 45 21
M  V30 48 1 23 46 CFG=1
M  V30 49 1 26 47 CFG=1
M  V30 50 1 27 48 CFG=3
M  V30 END BOND
M  V30 END CTAB
M  END
>  <i_epik_Tot_Q>  (1) 
0

>  <i_epik_Tot_abs_Q>  (1) 
0

>  <i_i_glide_confnum>  (1) 
3

>  <i_i_glide_lignum>  (1) 
50

>  <i_i_glide_posenum>  (1) 
161

>  <i_i_glide_rotatable_bonds>  (1) 
4

>  <i_lp_mmshare_version>  (1) 
72125

>  <i_m_source_file_index>  (1) 
14

>  <i_f3d_flags>  (1) 
0

>  <num_sample>  (1) 
50

>  <b_lp_Chiralities_Consistent>  (1) 
1

>  <r_epik_Charging_Adjusted_Penalty>  (1) 
0

>  <r_epik_Ionization_Penalty>  (1) 
0.00020645461892998548

>  <r_epik_Ionization_Penalty_Charging>  (1) 
0

>  <r_epik_Ionization_Penalty_Neutral>  (1) 
0.00020645461892998548

>  <r_epik_State_Penalty>  (1) 
-0

>  <r_glide_ring_energy>  (1) 
0

>  <r_i_docking_score>  (1) 
-3.5587745029175251

>  <r_i_glide_ecoul>  (1) 
-1.3814202033670353

>  <r_i_glide_eff_state_penalty>  (1) 
-0

>  <r_i_glide_einternal>  (1) 
2.7079983658752571

>  <r_i_glide_emodel>  (1) 
-29.88698347537575

>  <r_i_glide_emodel_strain>  (1) 
0.71925542039585366

>  <r_i_glide_energy>  (1) 
-26.386904450582669

>  <r_i_glide_erotb>  (1) 
0.38039990127662543

>  <r_i_glide_esite>  (1) 
-0.025486972016017337

>  <r_i_glide_evdw>  (1) 
-25.005484247215634

>  <r_i_glide_gscore>  (1) 
-3.5587745029175251

>  <r_i_glide_gscore_strain>  (1) 
0

>  <r_i_glide_hbond>  (1) 
0

>  <r_i_glide_ligand_efficiency>  (1) 
-0.1270990893899116

>  <r_i_glide_ligand_efficiency_ln>  (1) 
-0.8214696454331516

>  <r_i_glide_ligand_efficiency_sa>  (1) 
-0.38594769317684469

>  <r_i_glide_lipo>  (1) 
-1.219026368858241

>  <r_i_glide_metal>  (1) 
-0

>  <r_i_glide_rewards>  (1) 
-1.2371738204540552

>  <r_lp_Energy>  (1) 
26.927206999999999

>  <r_lp_tautomer_probability>  (1) 
1

>  <s_epik_Chemistry_Notes>  (1) 
This compound has an imine and may undergo hydrolysis.

>  <s_epik_cmdline>  (1) 
J2VwaWtfcHl0aG9uJywgJy1waHQnLCAnMS4wJywgJy1waCcsICc3LjQnLCAnLXRuJywgJzgnLCAnLW1hJywgJzUwMCcsICctaW1hZScsICc8aW5maWxlLm1hZT4nLCAnLW9tYWUnLCAnPG91dGZpbGUubWFlPic=

>  <s_epik_input>  (1) 
W0NIMl09TltDQEhdMUMoRik9W0NIXUMoPVtDSF1DMT1DPU8pQyNDXFtDSF09Q1wyW0NASF0oW0NIM10pW0NIMl1bQ0gyXU4oW0NAQEhdMjMpW0NAQEhdKEMoRikoRilGKVtDSDJdW0NIMl0z

>  <s_glide_docking_method>  (1) 
confgen

>  <s_i_glide_gridfile>  (1) 
gpcr_drd2_6luq_protein_autoprepared_prepared

>  <s_lp_Force_Field>  (1) 
S-OPLS

>  <s_lp_Variant>  (1) 
DiffSBDD_13-1

>  <s_m_source_file>  (1) 
generated_generic_title2_ligand_DiffSBDD_2026-06-23_prepared.sdf

>  <GenAI_Model>  (1) 
DiffSBDD

>  <Protein>  (1) 
generic_title2

$$$$
DiffSBDD_14
     RDKit          3D

  0  0  0  0  0  0  0  0  0  0999 V3000
M  V30 BEGIN CTAB
M  V30 COUNTS 71 74 0 0 1
M  V30 BEGIN ATOM
M  V30 1 C 5.586739 6.634292 -11.900085 0
M  V30 2 O 8.838063 4.243510 -16.139614 0
M  V30 3 C 8.826765 5.593382 -17.994896 0 CFG=2
M  V30 4 O 6.175339 5.456597 -16.910360 0
M  V30 5 C 10.699009 9.160678 -9.585028 0
M  V30 6 C 10.180981 6.722699 -9.091836 0
M  V30 7 N 8.698382 5.442803 -10.501245 0
M  V30 8 C 10.852917 8.018093 -8.602876 0 CFG=2
M  V30 9 C 11.658748 6.979630 -4.067106 0
M  V30 10 C 10.041116 3.882479 -16.809474 0
M  V30 11 C 12.423923 8.924765 -1.773645 0
M  V30 12 C 11.520082 8.109711 -4.697544 0
M  V30 13 C 11.626640 6.378997 -6.172460 0
M  V30 14 C 11.554221 7.960085 -6.185621 0 CFG=1
M  V30 15 C 6.781864 5.770701 -14.591167 0
M  V30 16 C 12.421525 7.593084 -1.728654 0
M  V30 17 C 6.339019 5.715332 -18.297132 0
M  V30 18 C 10.489203 8.484802 -7.151561 0 CFG=2
M  V30 19 C 8.562313 5.590183 -16.484243 0 CFG=1
M  V30 20 C 7.623328 5.029240 -18.762600 0
M  V30 21 O 7.259510 4.228555 -11.759088 0
M  V30 22 C 7.706006 5.326328 -11.435158 0
M  V30 23 O 11.775422 5.898128 -4.824094 0
M  V30 24 C 10.053857 4.698086 -18.107914 0
M  V30 25 C 11.375400 9.420752 -4.043247 0
M  V30 26 C 11.654979 6.703165 -2.615243 0
M  V30 27 C 9.025846 8.229332 -6.782518 0
M  V30 28 C 9.283491 6.659004 -10.094205 0
M  V30 29 C 7.507357 6.710268 -13.594247 0
M  V30 30 C 7.115426 6.611074 -12.095778 0 CFG=1
M  V30 31 C 11.754453 9.765474 -2.771060 0
M  V30 32 C 7.136934 6.057191 -16.066196 0 CFG=1
M  V30 33 H 5.334107 6.740781 -10.844196 0
M  V30 34 H 5.136458 7.478048 -12.424411 0
M  V30 35 H 5.109213 5.720746 -12.252826 0
M  V30 36 H 9.037910 6.598032 -18.366874 0
M  V30 37 H 10.943740 8.790294 -10.582810 0
M  V30 38 H 9.671670 9.529546 -9.585019 0
M  V30 39 H 11.375359 9.986639 -9.357043 0
M  V30 40 H 10.463648 5.814648 -8.585960 0
M  V30 41 H 9.040819 4.603948 -10.057973 0
M  V30 42 H 11.918664 7.786627 -8.637077 0
M  V30 43 H 10.071196 2.808013 -16.989563 0
M  V30 44 H 10.900537 4.148935 -16.191343 0
M  V30 45 H 12.975258 9.432648 -0.999563 0
M  V30 46 H 12.434754 5.990520 -6.784967 0
M  V30 47 H 10.693459 5.936409 -6.511608 0
M  V30 48 H 12.495029 8.393504 -6.523190 0
M  V30 49 H 6.980138 4.725310 -14.353929 0
M  V30 50 H 5.704801 5.899652 -14.485279 0
M  V30 51 H 12.975578 7.102397 -0.947839 0
M  V30 52 H 5.481680 5.304661 -18.831172 0
M  V30 53 H 6.364718 6.788291 -18.495117 0
M  V30 54 H 10.628930 9.561191 -7.090324 0
M  V30 55 H 9.324645 6.183187 -15.984921 0
M  V30 56 H 7.533273 3.954688 -18.592797 0
M  V30 57 H 7.762780 5.166198 -19.834778 0
M  V30 58 H 10.027900 4.063766 -18.994102 0
M  V30 59 H 10.962386 5.298243 -18.161158 0
M  V30 60 H 10.951735 10.211476 -4.646140 0
M  V30 61 H 10.637313 6.599689 -2.242782 0
M  V30 62 H 12.096074 5.713481 -2.493246 0
M  V30 63 H 8.743190 7.179093 -6.841164 0
M  V30 64 H 8.803793 8.573607 -5.783451 0
M  V30 65 H 8.384804 8.790219 -7.458810 0
M  V30 66 H 8.966939 7.519671 -10.634386 0
M  V30 67 H 7.359412 7.742030 -13.916821 0
M  V30 68 H 8.575489 6.528448 -13.669072 0
M  V30 69 H 7.392291 7.556188 -11.651735 0
M  V30 70 H 11.589162 10.790213 -2.480441 0
M  V30 71 H 6.975419 7.124602 -16.224679 0
M  V30 END ATOM
M  V30 BEGIN BOND
M  V30 1 1 8 5
M  V30 2 1 8 6
M  V30 3 1 10 2
M  V30 4 2 12 9
M  V30 5 1 14 12
M  V30 6 1 14 13
M  V30 7 2 16 11
M  V30 8 1 17 4
M  V30 9 1 18 8
M  V30 10 1 18 14
M  V30 11 1 19 2
M  V30 12 1 19 3
M  V30 13 1 20 3
M  V30 14 1 20 17
M  V30 15 1 22 7
M  V30 16 2 22 21
M  V30 17 1 23 9
M  V30 18 1 23 13
M  V30 19 1 24 3
M  V30 20 1 24 10
M  V30 21 1 25 12
M  V30 22 1 26 9
M  V30 23 1 26 16
M  V30 24 1 27 18
M  V30 25 2 28 6
M  V30 26 1 28 7
M  V30 27 1 29 15
M  V30 28 1 30 1
M  V30 29 1 30 22
M  V30 30 1 30 29
M  V30 31 1 31 11
M  V30 32 2 31 25
M  V30 33 1 32 4
M  V30 34 1 32 15
M  V30 35 1 32 19
M  V30 36 1 33 1
M  V30 37 1 34 1
M  V30 38 1 35 1
M  V30 39 1 3 36 CFG=3
M  V30 40 1 37 5
M  V30 41 1 38 5
M  V30 42 1 39 5
M  V30 43 1 40 6
M  V30 44 1 41 7
M  V30 45 1 8 42 CFG=1
M  V30 46 1 43 10
M  V30 47 1 44 10
M  V30 48 1 45 11
M  V30 49 1 46 13
M  V30 50 1 47 13
M  V30 51 1 14 48 CFG=3
M  V30 52 1 49 15
M  V30 53 1 50 15
M  V30 54 1 51 16
M  V30 55 1 52 17
M  V30 56 1 53 17
M  V30 57 1 18 54 CFG=3
M  V30 58 1 19 55 CFG=1
M  V30 59 1 56 20
M  V30 60 1 57 20
M  V30 61 1 58 24
M  V30 62 1 59 24
M  V30 63 1 60 25
M  V30 64 1 61 26
M  V30 65 1 62 26
M  V30 66 1 63 27
M  V30 67 1 64 27
M  V30 68 1 65 27
M  V30 69 1 66 28
M  V30 70 1 67 29
M  V30 71 1 68 29
M  V30 72 1 30 69 CFG=1
M  V30 73 1 70 31
M  V30 74 1 32 71 CFG=1
M  V30 END BOND
M  V30 END CTAB
M  END
>  <i_epik_Tot_Q>  (1) 
0

>  <i_epik_Tot_abs_Q>  (1) 
0

>  <i_i_glide_confnum>  (1) 
298

>  <i_i_glide_lignum>  (1) 
52

>  <i_i_glide_posenum>  (1) 
328

>  <i_i_glide_rotatable_bonds>  (1) 
9

>  <i_lp_mmshare_version>  (1) 
72125

>  <i_m_source_file_index>  (1) 
15

>  <i_f3d_flags>  (1) 
0

>  <num_sample>  (1) 
50

>  <b_lp_Chiralities_Consistent>  (1) 
1

>  <r_epik_Charging_Adjusted_Penalty>  (1) 
0

>  <r_epik_Ionization_Penalty>  (1) 
2.2973717276536928e-08

>  <r_epik_Ionization_Penalty_Charging>  (1) 
0

>  <r_epik_Ionization_Penalty_Neutral>  (1) 
2.2973717276536928e-08

>  <r_epik_State_Penalty>  (1) 
-0

>  <r_glide_ring_energy>  (1) 
0

>  <r_i_docking_score>  (1) 
-3.5573381098207393

>  <r_i_glide_ecoul>  (1) 
-0.70963771982733759

>  <r_i_glide_eff_state_penalty>  (1) 
-0

>  <r_i_glide_einternal>  (1) 
10.924742494131289

>  <r_i_glide_emodel>  (1) 
-24.078129474365181

>  <r_i_glide_emodel_strain>  (1) 
0.18635962398911943

>  <r_i_glide_energy>  (1) 
-24.573080080712238

>  <r_i_glide_erotb>  (1) 
0.7170138056727231

>  <r_i_glide_esite>  (1) 
-0.09312676954030602

>  <r_i_glide_evdw>  (1) 
-23.8634423608849

>  <r_i_glide_gscore>  (1) 
-3.5573381098207393

>  <r_i_glide_gscore_strain>  (1) 
0

>  <r_i_glide_hbond>  (1) 
0

>  <r_i_glide_ligand_efficiency>  (1) 
-0.1111668159318981

>  <r_i_glide_ligand_efficiency_ln>  (1) 
-0.79658497216338275

>  <r_i_glide_ligand_efficiency_sa>  (1) 
-0.35293264110850053

>  <r_i_glide_lipo>  (1) 
-2.9856938036023291

>  <r_i_glide_metal>  (1) 
-0

>  <r_i_glide_rewards>  (1) 
0.1040864336675178

>  <r_lp_Energy>  (1) 
21.48593

>  <r_lp_tautomer_probability>  (1) 
1

>  <s_epik_cmdline>  (1) 
J2VwaWtfcHl0aG9uJywgJy1waHQnLCAnMS4wJywgJy1waCcsICc3LjQnLCAnLXRuJywgJzgnLCAnLW1hJywgJzUwMCcsICctaW1hZScsICc8aW5maWxlLm1hZT4nLCAnLW9tYWUnLCAnPG91dGZpbGUubWFlPic=

>  <s_epik_input>  (1) 
W0NIMl0xW0NIMl1PW0NAQEhdKFtDQEBIXTEyKVtDQEBIXShPW0NIMl1bQ0gyXTIpW0NIMl1bQ0gyXVtDQEBIXShbQ0gzXSlDKD1PKVtOSF1cW0NIXT1bQ0hdXFtDQEBIXShbQ0gzXSlbQ0BASF0oW0NIM10pW0NASF0oW0NIMl1PMylDKD1DMzQpW0NIXT1bQ0hdW0NIXT1bQ0hdW0NIMl00

>  <s_glide_docking_method>  (1) 
confgen

>  <s_i_glide_gridfile>  (1) 
gpcr_drd2_6luq_protein_autoprepared_prepared

>  <s_lp_Force_Field>  (1) 
S-OPLS

>  <s_lp_Variant>  (1) 
DiffSBDD_14-1

>  <s_m_source_file>  (1) 
generated_generic_title2_ligand_DiffSBDD_2026-06-23_prepared.sdf

>  <GenAI_Model>  (1) 
DiffSBDD

>  <Protein>  (1) 
generic_title2

$$$$
DiffSBDD_48
     RDKit          3D

  0  0  0  0  0  0  0  0  0  0999 V3000
M  V30 BEGIN CTAB
M  V30 COUNTS 43 43 0 0 1
M  V30 BEGIN ATOM
M  V30 1 C 7.453995 4.349655 -13.281279 0 CFG=2
M  V30 2 C 10.163804 7.882514 -8.282014 0
M  V30 3 C 7.750305 5.330863 -12.104114 0 CFG=2
M  V30 4 C 9.392472 5.995284 -10.233731 0
M  V30 5 O 7.122255 5.086486 -17.212501 0 CHG=-1
M  V30 6 O 7.119716 2.046596 -15.065944 0
M  V30 7 F 8.233339 4.773184 -8.529075 0
M  V30 8 C 8.220717 5.673563 -15.183414 0
M  V30 9 C 10.175421 7.112371 -10.598923 0
M  V30 10 C 7.467242 2.875128 -12.824396 0
M  V30 11 C 7.012111 1.840472 -13.857483 0
M  V30 12 C 9.003329 4.962012 -11.285888 0
M  V30 13 C 6.975417 5.590356 -16.077728 0
M  V30 14 C 5.654605 7.462239 -12.198726 0
M  V30 15 C 9.377260 6.774595 -7.916090 0
M  V30 16 C 6.420769 0.532531 -13.315804 0
M  V30 17 O 5.906125 6.042605 -15.608728 0
M  V30 18 O 8.406292 4.537648 -14.329626 0
M  V30 19 O 6.175422 -0.403598 -14.348545 0
M  V30 20 C 5.470006 6.045922 -11.624440 0
M  V30 21 O 6.666902 5.412394 -11.185334 0
M  V30 22 F 10.539227 8.785321 -7.343976 0
M  V30 23 C 10.561336 8.052941 -9.622578 0
M  V30 24 C 8.989331 5.832111 -8.887781 0
M  V30 25 H 6.457807 4.537978 -13.671291 0
M  V30 26 H 7.937743 6.326563 -12.497097 0
M  V30 27 H 8.175334 6.598024 -14.611480 0
M  V30 28 H 9.098267 5.757672 -15.825156 0
M  V30 29 H 10.485397 7.242150 -11.625547 0
M  V30 30 H 6.781895 2.790231 -11.985018 0
M  V30 31 H 8.458907 2.587816 -12.475318 0
M  V30 32 H 8.871538 3.999603 -10.791731 0
M  V30 33 H 9.849523 4.833475 -11.962496 0
M  V30 34 H 4.702863 7.990263 -12.260675 0
M  V30 35 H 6.320717 8.065326 -11.585025 0
M  V30 36 H 6.070409 7.428651 -13.205606 0
M  V30 37 H 9.068508 6.647358 -6.889317 0
M  V30 38 H 5.486617 0.748712 -12.797380 0
M  V30 39 H 7.109137 0.097398 -12.590748 0
M  V30 40 H 5.702131 -1.151195 -13.984907 0
M  V30 41 H 4.975426 5.408320 -12.352218 0
M  V30 42 H 4.807932 6.095782 -10.759999 0
M  V30 43 H 11.164118 8.904022 -9.901890 0
M  V30 END ATOM
M  V30 BEGIN BOND
M  V30 1 1 3 1
M  V30 2 1 9 4
M  V30 3 1 10 1
M  V30 4 2 11 6
M  V30 5 1 11 10
M  V30 6 1 12 3
M  V30 7 1 12 4
M  V30 8 1 13 5
M  V30 9 1 13 8
M  V30 10 2 15 2
M  V30 11 1 16 11
M  V30 12 2 17 13
M  V30 13 1 18 1
M  V30 14 1 18 8
M  V30 15 1 19 16
M  V30 16 1 20 14
M  V30 17 1 21 3
M  V30 18 1 21 20
M  V30 19 1 22 2
M  V30 20 1 23 2
M  V30 21 2 23 9
M  V30 22 2 24 4
M  V30 23 1 24 7
M  V30 24 1 24 15
M  V30 25 1 1 25 CFG=3
M  V30 26 1 3 26 CFG=3
M  V30 27 1 27 8
M  V30 28 1 28 8
M  V30 29 1 29 9
M  V30 30 1 30 10
M  V30 31 1 31 10
M  V30 32 1 32 12
M  V30 33 1 33 12
M  V30 34 1 34 14
M  V30 35 1 35 14
M  V30 36 1 36 14
M  V30 37 1 37 15
M  V30 38 1 38 16
M  V30 39 1 39 16
M  V30 40 1 40 19
M  V30 41 1 41 20
M  V30 42 1 42 20
M  V30 43 1 43 23
M  V30 END BOND
M  V30 END CTAB
M  END
>  <i_epik_Tot_Q>  (1) 
-1

>  <i_epik_Tot_abs_Q>  (1) 
1

>  <i_i_glide_confnum>  (1) 
565

>  <i_i_glide_lignum>  (1) 
127

>  <i_i_glide_posenum>  (1) 
241

>  <i_i_glide_rotatable_bonds>  (1) 
12

>  <i_lp_mmshare_version>  (1) 
72125

>  <i_m_source_file_index>  (1) 
49

>  <i_f3d_flags>  (1) 
0

>  <num_sample>  (1) 
50

>  <b_lp_Chiralities_Consistent>  (1) 
1

>  <r_epik_Charging_Adjusted_Penalty>  (1) 
7.9156217055703786e-05

>  <r_epik_Ionization_Penalty>  (1) 
8.8264238192330274e-05

>  <r_epik_Ionization_Penalty_Charging>  (1) 
7.9156217055703786e-05

>  <r_epik_Ionization_Penalty_Neutral>  (1) 
9.1080211366264862e-06

>  <r_epik_State_Penalty>  (1) 
-0

>  <r_glide_ring_energy>  (1) 
0

>  <r_i_docking_score>  (1) 
-3.5566579171128163

>  <r_i_glide_ecoul>  (1) 
-1.8145097928507763

>  <r_i_glide_eff_state_penalty>  (1) 
-0

>  <r_i_glide_einternal>  (1) 
8.4534188782213491

>  <r_i_glide_emodel>  (1) 
-32.991689405243854

>  <r_i_glide_emodel_strain>  (1) 
0.6098843815252124

>  <r_i_glide_energy>  (1) 
-31.094713933052191

>  <r_i_glide_erotb>  (1) 
1.2745455854061123

>  <r_i_glide_esite>  (1) 
-0.059503660063133929

>  <r_i_glide_evdw>  (1) 
-29.280204140201413

>  <r_i_glide_gscore>  (1) 
-3.5566579171128163

>  <r_i_glide_gscore_strain>  (1) 
0

>  <r_i_glide_hbond>  (1) 
-0.16

>  <r_i_glide_ligand_efficiency>  (1) 
-0.14819407987970068

>  <r_i_glide_ligand_efficiency_ln>  (1) 
-0.85127144396237242

>  <r_i_glide_ligand_efficiency_sa>  (1) 
-0.42746569605720014

>  <r_i_glide_lipo>  (1) 
-0.70788265227748681

>  <r_i_glide_metal>  (1) 
-0

>  <r_i_glide_rewards>  (1) 
-2.1676305142406203

>  <r_lp_Energy>  (1) 
23.232806999999998

>  <r_lp_tautomer_probability>  (1) 
1

>  <s_epik_cmdline>  (1) 
J2VwaWtfcHl0aG9uJywgJy1waHQnLCAnMS4wJywgJy1waCcsICc3LjQnLCAnLXRuJywgJzgnLCAnLW1hJywgJzUwMCcsICctaW1hZScsICc8aW5maWxlLm1hZT4nLCAnLW9tYWUnLCAnPG91dGZpbGUubWFlPic=

>  <s_epik_input>  (1) 
W09IXUMoPU8pW0NIMl1PW0NAQEhdKFtDSDJdQyg9TylbQ0gyXVtPSF0pW0NASF0oT1tDSDJdW0NIM10pW0NIMl1jKFtjSF1bY0hdMSljKEYpW2NIXWMxRg==

>  <s_glide_docking_method>  (1) 
confgen

>  <s_i_glide_gridfile>  (1) 
gpcr_drd2_6luq_protein_autoprepared_prepared

>  <s_lp_Force_Field>  (1) 
S-OPLS

>  <s_lp_Variant>  (1) 
DiffSBDD_48-2

>  <s_m_source_file>  (1) 
generated_generic_title2_ligand_DiffSBDD_2026-06-23_prepared.sdf

>  <GenAI_Model>  (1) 
DiffSBDD

>  <Protein>  (1) 
generic_title2

$$$$
DiffSBDD_1
     RDKit          3D

  0  0  0  0  0  0  0  0  0  0999 V3000
M  V30 BEGIN CTAB
M  V30 COUNTS 89 91 0 0 1
M  V30 BEGIN ATOM
M  V30 1 O 8.606352 5.692870 -12.571708 0
M  V30 2 O 8.085307 5.190245 -9.078962 0
M  V30 3 C 8.100213 2.870053 -17.082629 0 CFG=2
M  V30 4 C 9.968269 1.204500 -17.844551 0
M  V30 5 C 7.635813 -3.069548 -18.797799 0
M  V30 6 C 11.618803 8.479921 -6.891978 0
M  V30 7 C 4.828825 -1.028625 -18.416330 0
M  V30 8 C 9.333445 5.657825 -9.546441 0 CFG=1
M  V30 9 C 9.053560 4.054649 -16.717303 0 CFG=1
M  V30 10 C 6.207204 1.157712 -18.790805 0 CFG=2
M  V30 11 C 9.803352 -0.261062 -18.246276 0
M  V30 12 O 11.833420 4.065030 -18.386137 0 CHG=-1
M  V30 13 C 8.013903 -1.687828 -19.367663 0
M  V30 14 C 7.703635 2.100155 -15.792147 0
M  V30 15 C 9.212469 6.835485 -10.541196 0
M  V30 16 C 5.086227 -2.469261 -18.915605 0
M  V30 17 C 8.665830 1.936276 -18.219737 0 CFG=1
M  V30 18 C 6.228259 -3.199699 -18.177369 0
M  V30 19 C 10.217434 6.032663 -8.335393 0
M  V30 20 C 8.109172 4.083787 -14.290637 0 CFG=2
M  V30 21 C 11.113103 6.549657 -5.314423 0
M  V30 22 F 4.074395 0.790153 -19.585028 0
M  V30 23 C 10.523362 7.602819 -6.264029 0
M  V30 24 C 7.103896 3.013399 -14.716913 0
M  V30 25 C 7.979210 8.003768 -12.408847 0
M  V30 26 F 6.068208 2.274302 -19.511100 0
M  V30 27 O 11.238108 6.361746 -19.235104 0 CHG=-1
M  V30 28 O 11.599931 5.989860 -16.769586 0
M  V30 29 P 11.148782 5.383027 -18.082012 0
M  V30 30 C 9.566390 7.002206 -7.317192 0
M  V30 31 C 8.163598 6.678926 -11.654301 0 CFG=1
M  V30 32 C 7.737132 0.845897 -18.841940 0 CFG=1
M  V30 33 O 7.811330 -0.809619 -17.070678 0
M  V30 34 C 7.541970 4.976434 -13.180168 0
M  V30 35 C 9.367133 5.014371 -17.901319 0
M  V30 36 C 8.291094 -0.525514 -18.368100 0 CFG=2
M  V30 37 C 8.542496 4.898769 -15.520768 0
M  V30 38 C 5.210999 0.127292 -19.376370 0 CFG=2
M  V30 39 H 7.544989 5.952174 -8.895010 0
M  V30 40 H 7.192827 3.337431 -17.464391 0
M  V30 41 H 10.830007 1.650277 -18.342362 0
M  V30 42 H 10.175345 1.272117 -16.785025 0
M  V30 43 H 7.694486 -3.782109 -19.621316 0
M  V30 44 H 8.386088 -3.398434 -18.077450 0
M  V30 45 H 12.356214 7.886265 -7.431711 0
M  V30 46 H 11.190535 9.190131 -7.598194 0
M  V30 47 H 12.150498 9.049375 -6.128903 0
M  V30 48 H 3.760269 -0.958313 -18.216812 0
M  V30 49 H 5.264727 -0.872631 -17.430773 0
M  V30 50 H 9.775463 4.814762 -10.075591 0
M  V30 51 H 9.995859 3.608753 -16.397326 0
M  V30 52 H 5.870159 1.416368 -17.791646 0
M  V30 53 H 10.292499 -0.379910 -19.213774 0
M  V30 54 H 10.304184 -0.942226 -17.556999 0
M  V30 55 H 7.268636 -1.398542 -20.099252 0
M  V30 56 H 8.894027 -1.836486 -19.993047 0
M  V30 57 H 8.564484 1.586086 -15.368144 0
M  V30 58 H 6.977420 1.320544 -15.997094 0
M  V30 59 H 8.975568 7.747156 -9.997733 0
M  V30 60 H 10.187999 7.022377 -10.992086 0
M  V30 61 H 5.212431 -2.513834 -19.997743 0
M  V30 62 H 4.175029 -3.037688 -18.721350 0
M  V30 63 H 8.915807 2.575624 -19.062926 0
M  V30 64 H 5.988670 -4.263208 -18.146421 0
M  V30 65 H 6.240155 -2.900293 -17.130412 0
M  V30 66 H 10.508294 5.126197 -7.812956 0
M  V30 67 H 11.143759 6.457666 -8.717463 0
M  V30 68 H 8.975398 3.588482 -13.866767 0
M  V30 69 H 11.750340 5.840425 -5.843004 0
M  V30 70 H 11.715501 7.016019 -4.534782 0
M  V30 71 H 10.320574 5.990228 -4.818586 0
M  V30 72 H 9.912113 8.265059 -5.649684 0
M  V30 73 H 6.807311 2.412746 -13.856472 0
M  V30 74 H 6.199772 3.494007 -15.087502 0
M  V30 75 H 7.565537 8.772215 -11.754343 0
M  V30 76 H 8.934217 8.367532 -12.784910 0
M  V30 77 H 7.307820 7.895431 -13.259377 0
M  V30 78 H 9.085609 7.829815 -7.836919 0
M  V30 79 H 8.755011 6.484017 -6.803084 0
M  V30 80 H 7.210141 6.389716 -11.208583 0
M  V30 81 H 7.976857 0.862133 -19.907287 0
M  V30 82 H 8.121431 -1.662132 -16.798452 0
M  V30 83 H 7.056942 4.366475 -12.416283 0
M  V30 84 H 6.783224 5.647512 -13.585586 0
M  V30 85 H 8.990284 4.638577 -18.847102 0
M  V30 86 H 8.834001 5.955302 -17.774569 0
M  V30 87 H 7.699975 5.510435 -15.845733 0
M  V30 88 H 9.328608 5.591170 -15.222327 0
M  V30 89 H 5.503939 -0.212692 -20.368288 0
M  V30 END ATOM
M  V30 BEGIN BOND
M  V30 1 1 8 2
M  V30 2 1 9 3
M  V30 3 1 11 4
M  V30 4 1 13 5
M  V30 5 1 14 3
M  V30 6 1 15 8
M  V30 7 1 16 7
M  V30 8 1 17 3
M  V30 9 1 17 4
M  V30 10 1 18 5
M  V30 11 1 18 16
M  V30 12 1 19 8
M  V30 13 1 23 6
M  V30 14 1 23 21
M  V30 15 1 24 14
M  V30 16 1 24 20
M  V30 17 1 26 10
M  V30 18 1 29 12
M  V30 19 1 29 27
M  V30 20 2 29 28
M  V30 21 1 30 19
M  V30 22 1 30 23
M  V30 23 1 31 1
M  V30 24 1 31 15
M  V30 25 1 31 25
M  V30 26 1 32 10
M  V30 27 1 32 17
M  V30 28 1 34 1
M  V30 29 1 34 20
M  V30 30 1 35 9
M  V30 31 1 35 29
M  V30 32 1 36 11
M  V30 33 1 36 13
M  V30 34 1 36 32
M  V30 35 1 36 33 CFG=1
M  V30 36 1 37 9
M  V30 37 1 37 20
M  V30 38 1 38 7
M  V30 39 1 38 10
M  V30 40 1 38 22
M  V30 41 1 39 2
M  V30 42 1 3 40 CFG=3
M  V30 43 1 41 4
M  V30 44 1 42 4
M  V30 45 1 43 5
M  V30 46 1 44 5
M  V30 47 1 45 6
M  V30 48 1 46 6
M  V30 49 1 47 6
M  V30 50 1 48 7
M  V30 51 1 49 7
M  V30 52 1 8 50 CFG=3
M  V30 53 1 9 51 CFG=1
M  V30 54 1 10 52 CFG=1
M  V30 55 1 53 11
M  V30 56 1 54 11
M  V30 57 1 55 13
M  V30 58 1 56 13
M  V30 59 1 57 14
M  V30 60 1 58 14
M  V30 61 1 59 15
M  V30 62 1 60 15
M  V30 63 1 61 16
M  V30 64 1 62 16
M  V30 65 1 17 63 CFG=3
M  V30 66 1 64 18
M  V30 67 1 65 18
M  V30 68 1 66 19
M  V30 69 1 67 19
M  V30 70 1 20 68 CFG=1
M  V30 71 1 69 21
M  V30 72 1 70 21
M  V30 73 1 71 21
M  V30 74 1 72 23
M  V30 75 1 73 24
M  V30 76 1 74 24
M  V30 77 1 75 25
M  V30 78 1 76 25
M  V30 79 1 77 25
M  V30 80 1 78 30
M  V30 81 1 79 30
M  V30 82 1 31 80 CFG=1
M  V30 83 1 32 81 CFG=3
M  V30 84 1 82 33
M  V30 85 1 83 34
M  V30 86 1 84 34
M  V30 87 1 85 35
M  V30 88 1 86 35
M  V30 89 1 87 37
M  V30 90 1 88 37
M  V30 91 1 38 89 CFG=3
M  V30 END BOND
M  V30 END CTAB
M  END
>  <i_epik_Tot_Q>  (1) 
-2

>  <i_epik_Tot_abs_Q>  (1) 
2

>  <i_i_glide_confnum>  (1) 
2210

>  <i_i_glide_lignum>  (1) 
19

>  <i_i_glide_posenum>  (1) 
393

>  <i_i_glide_rotatable_bonds>  (1) 
13

>  <i_lp_mmshare_version>  (1) 
72125

>  <i_m_source_file_index>  (1) 
2

>  <i_f3d_flags>  (1) 
0

>  <num_sample>  (1) 
50

>  <b_lp_Chiralities_Consistent>  (1) 
1

>  <r_epik_Charging_Adjusted_Penalty>  (1) 
1.8994269935217587

>  <r_epik_Ionization_Penalty>  (1) 
0.94971411018702601

>  <r_epik_Ionization_Penalty_Charging>  (1) 
0.94971349676087924

>  <r_epik_Ionization_Penalty_Neutral>  (1) 
6.1342614676121867e-07

>  <r_epik_State_Penalty>  (1) 
0.94971349676087935

>  <r_glide_ring_energy>  (1) 
0

>  <r_i_docking_score>  (1) 
-3.5507765622950558

>  <r_i_glide_ecoul>  (1) 
-0.017752078240736768

>  <r_i_glide_eff_state_penalty>  (1) 
0.94971349676087935

>  <r_i_glide_einternal>  (1) 
7.3267802698182845

>  <r_i_glide_emodel>  (1) 
-42.329286898023391

>  <r_i_glide_emodel_strain>  (1) 
0.23441012364737901

>  <r_i_glide_energy>  (1) 
-36.980669801005249

>  <r_i_glide_erotb>  (1) 
0.50299043937721266

>  <r_i_glide_esite>  (1) 
0

>  <r_i_glide_evdw>  (1) 
-36.962917722764509

>  <r_i_glide_gscore>  (1) 
-4.5004900590559354

>  <r_i_glide_gscore_strain>  (1) 
0

>  <r_i_glide_hbond>  (1) 
-0.19854305329534419

>  <r_i_glide_ligand_efficiency>  (1) 
-0.093441488481448842

>  <r_i_glide_ligand_efficiency_ln>  (1) 
-0.76565188009456819

>  <r_i_glide_ligand_efficiency_sa>  (1) 
-0.31414798624931967

>  <r_i_glide_lipo>  (1) 
-2.23242775005947

>  <r_i_glide_metal>  (1) 
-0

>  <r_i_glide_rewards>  (1) 
-0.7217009972039965

>  <r_lp_Energy>  (1) 
46.940445999999994

>  <s_epik_cmdline>  (1) 
J2VwaWtfcHl0aG9uJywgJy1waHQnLCAnMS4wJywgJy1waCcsICc3LjQnLCAnLXRuJywgJzgnLCAnLW1hJywgJzUwMCcsICctaW1hZScsICc8aW5maWxlLm1hZT4nLCAnLW9tYWUnLCAnPG91dGZpbGUubWFlPic=

>  <s_epik_input>  (1) 
W0NIM11bQ0hdKFtDSDNdKVtDSDJdW0NIMl1bQ0BASF0oW09IXSlbQ0gyXVtDQEBIXShbQ0gzXSlPW0NIMl1bQ0BASF0oW0NIMl1bQ0gyXTEpW0NIMl1bQ0BIXShbQ0gyXVAoPU8pKFtPSF0pW09IXSlbQ0BIXTFbQ0BASF0oW0NIMl1bQ0gyXTIpW0NAQEhdKFtDQF0yM1tPSF0pW0NAQEhdKEYpW0NASF0oRilbQ0gyXVtDSDJdW0NIMl1bQ0gyXVtDSDJdMw==

>  <s_glide_docking_method>  (1) 
confgen

>  <s_i_glide_gridfile>  (1) 
gpcr_drd2_6luq_protein_autoprepared_prepared

>  <s_lp_Force_Field>  (1) 
S-OPLS

>  <s_lp_Variant>  (1) 
DiffSBDD_1-3

>  <s_m_source_file>  (1) 
generated_generic_title2_ligand_DiffSBDD_2026-06-23_prepared.sdf

>  <GenAI_Model>  (1) 
DiffSBDD

>  <Protein>  (1) 
generic_title2

$$$$
DiffSBDD_1
     RDKit          3D

  0  0  0  0  0  0  0  0  0  0999 V3000
M  V30 BEGIN CTAB
M  V30 COUNTS 90 92 0 0 1
M  V30 BEGIN ATOM
M  V30 1 O 8.228372 6.479553 -12.740103 0
M  V30 2 O 8.264813 5.190250 -8.942122 0
M  V30 3 C 7.442479 4.603586 -16.930954 0 CFG=2
M  V30 4 C 5.890346 3.624830 -18.785026 0
M  V30 5 C 6.267984 6.017102 -22.989222 0
M  V30 6 C 11.352761 7.016205 -4.892067 0
M  V30 7 C 8.518519 7.996634 -21.156110 0
M  V30 8 C 9.567184 5.509098 -9.393575 0 CFG=1
M  V30 9 C 7.238515 3.559372 -15.768680 0 CFG=1
M  V30 10 C 8.792411 6.088077 -19.344490 0 CFG=2
M  V30 11 C 5.804690 3.783501 -20.289366 0
M  V30 12 O 6.201185 1.535338 -13.738513 0 CHG=-1
M  V30 13 C 7.051116 5.051226 -22.085866 0
M  V30 14 C 6.544558 5.847181 -16.640986 0
M  V30 15 C 9.586277 5.728389 -10.925306 0
M  V30 16 C 8.071135 7.861634 -22.628452 0
M  V30 17 C 7.319292 4.042891 -18.394148 0 CFG=1
M  V30 18 C 6.580877 7.514558 -22.812786 0
M  V30 19 C 10.103835 6.700841 -8.588059 0
M  V30 20 C 6.681324 5.372980 -14.152610 0 CFG=2
M  V30 21 C 10.131600 8.741028 -6.287164 0
M  V30 22 F 10.466079 7.518020 -20.064785 0
M  V30 23 C 11.027961 7.494015 -6.313787 0
M  V30 24 C 6.787422 6.444262 -15.244518 0
M  V30 25 C 9.230667 8.215002 -11.506382 0
M  V30 26 F 9.833690 5.577536 -18.682793 0
M  V30 27 O 6.119507 0.023660 -15.785455 0
M  V30 28 O 8.175435 -0.009763 -14.263781 0
M  V30 29 P 7.098924 0.887391 -14.720731 0
M  V30 30 C 10.399234 6.347067 -7.124147 0
M  V30 31 C 8.632391 6.808296 -11.433202 0 CFG=1
M  V30 32 C 7.871017 4.855300 -19.625146 0 CFG=1
M  V30 33 O 5.922282 6.152129 -20.170353 0
M  V30 34 C 6.916759 5.945138 -12.766765 0
M  V30 35 C 7.811285 2.133530 -15.965350 0
M  V30 36 C 6.666304 5.019890 -20.583886 0 CFG=2
M  V30 37 C 7.656260 4.218885 -14.448581 0
M  V30 38 C 9.400240 6.871524 -20.546604 0 CFG=2
M  V30 39 H 7.712465 5.959483 -9.039196 0
M  V30 40 H 8.475268 4.932880 -16.830977 0
M  V30 41 H 5.633020 2.621144 -18.442313 0
M  V30 42 H 5.157397 4.316522 -18.385051 0
M  V30 43 H 6.504330 5.751329 -24.016621 0
M  V30 44 H 5.196349 5.847304 -22.877161 0
M  V30 45 H 10.450569 6.681100 -4.383283 0
M  V30 46 H 12.045603 6.175581 -4.907217 0
M  V30 47 H 11.801034 7.810280 -4.295479 0
M  V30 48 H 9.107988 8.915177 -21.139784 0
M  V30 49 H 7.672530 8.213414 -20.505465 0
M  V30 50 H 10.175370 4.632691 -9.176105 0
M  V30 51 H 6.186075 3.380230 -15.585059 0
M  V30 52 H 8.327322 6.800587 -18.671507 0
M  V30 53 H 6.225505 2.889647 -20.752021 0
M  V30 54 H 4.776548 3.880986 -20.640916 0
M  V30 55 H 8.114928 5.217171 -22.214909 0
M  V30 56 H 6.922553 4.052737 -22.505629 0
M  V30 57 H 5.488754 5.590227 -16.690822 0
M  V30 58 H 6.676536 6.629521 -17.382044 0
M  V30 59 H 10.575400 5.990200 -11.291919 0
M  V30 60 H 9.332790 4.776498 -11.395418 0
M  V30 61 H 8.720087 7.194164 -23.196075 0
M  V30 62 H 8.216002 8.839642 -23.090551 0
M  V30 63 H 7.934152 3.146050 -18.426276 0
M  V30 64 H 6.217059 8.025865 -23.704972 0
M  V30 65 H 5.991212 7.939094 -22.000329 0
M  V30 66 H 11.016396 7.073352 -9.054342 0
M  V30 67 H 9.375523 7.510081 -8.623425 0
M  V30 68 H 5.661875 4.983849 -14.153541 0
M  V30 69 H 9.114160 8.490637 -5.985053 0
M  V30 70 H 10.521350 9.503990 -5.611432 0
M  V30 71 H 10.065012 9.190206 -7.275866 0
M  V30 72 H 11.966623 7.775981 -6.791617 0
M  V30 73 H 6.078607 7.251151 -15.054465 0
M  V30 74 H 7.775441 6.892316 -15.185013 0
M  V30 75 H 9.501147 8.599943 -10.526493 0
M  V30 76 H 10.120879 8.215607 -12.131348 0
M  V30 77 H 8.515415 8.911186 -11.943082 0
M  V30 78 H 5.754538 -0.680647 -15.272203 0
M  V30 79 H 9.481799 6.009449 -6.637575 0
M  V30 80 H 11.082666 5.499841 -7.105808 0
M  V30 81 H 7.775310 6.790230 -10.785175 0
M  V30 82 H 8.527498 4.153491 -20.145115 0
M  V30 83 H 5.674634 6.019596 -19.268086 0
M  V30 84 H 6.796590 5.153449 -12.023698 0
M  V30 85 H 6.186349 6.722763 -12.536697 0
M  V30 86 H 7.521976 1.740246 -16.935854 0
M  V30 87 H 8.902304 2.141367 -15.970962 0
M  V30 88 H 8.683882 4.578811 -14.512158 0
M  V30 89 H 7.646725 3.514375 -13.619992 0
M  V30 90 H 9.811924 6.203234 -21.300361 0
M  V30 END ATOM
M  V30 BEGIN BOND
M  V30 1 1 8 2
M  V30 2 1 9 3
M  V30 3 1 11 4
M  V30 4 1 13 5
M  V30 5 1 14 3
M  V30 6 1 15 8
M  V30 7 1 16 7
M  V30 8 1 17 3
M  V30 9 1 17 4
M  V30 10 1 18 5
M  V30 11 1 18 16
M  V30 12 1 19 8
M  V30 13 1 23 6
M  V30 14 1 23 21
M  V30 15 1 24 14
M  V30 16 1 24 20
M  V30 17 1 26 10
M  V30 18 1 29 12
M  V30 19 1 29 27
M  V30 20 2 29 28
M  V30 21 1 30 19
M  V30 22 1 30 23
M  V30 23 1 31 1
M  V30 24 1 31 15
M  V30 25 1 31 25
M  V30 26 1 32 10
M  V30 27 1 32 17
M  V30 28 1 34 1
M  V30 29 1 34 20
M  V30 30 1 35 9
M  V30 31 1 35 29
M  V30 32 1 36 11
M  V30 33 1 36 13
M  V30 34 1 36 32
M  V30 35 1 36 33 CFG=1
M  V30 36 1 37 9
M  V30 37 1 37 20
M  V30 38 1 38 7
M  V30 39 1 38 10
M  V30 40 1 38 22
M  V30 41 1 39 2
M  V30 42 1 3 40 CFG=3
M  V30 43 1 41 4
M  V30 44 1 42 4
M  V30 45 1 43 5
M  V30 46 1 44 5
M  V30 47 1 45 6
M  V30 48 1 46 6
M  V30 49 1 47 6
M  V30 50 1 48 7
M  V30 51 1 49 7
M  V30 52 1 8 50 CFG=3
M  V30 53 1 9 51 CFG=1
M  V30 54 1 10 52 CFG=1
M  V30 55 1 53 11
M  V30 56 1 54 11
M  V30 57 1 55 13
M  V30 58 1 56 13
M  V30 59 1 57 14
M  V30 60 1 58 14
M  V30 61 1 59 15
M  V30 62 1 60 15
M  V30 63 1 61 16
M  V30 64 1 62 16
M  V30 65 1 17 63 CFG=1
M  V30 66 1 64 18
M  V30 67 1 65 18
M  V30 68 1 66 19
M  V30 69 1 67 19
M  V30 70 1 20 68 CFG=1
M  V30 71 1 69 21
M  V30 72 1 70 21
M  V30 73 1 71 21
M  V30 74 1 72 23
M  V30 75 1 73 24
M  V30 76 1 74 24
M  V30 77 1 75 25
M  V30 78 1 76 25
M  V30 79 1 77 25
M  V30 80 1 78 27
M  V30 81 1 79 30
M  V30 82 1 80 30
M  V30 83 1 31 81 CFG=1
M  V30 84 1 32 82 CFG=3
M  V30 85 1 83 33
M  V30 86 1 84 34
M  V30 87 1 85 34
M  V30 88 1 86 35
M  V30 89 1 87 35
M  V30 90 1 88 37
M  V30 91 1 89 37
M  V30 92 1 38 90 CFG=3
M  V30 END BOND
M  V30 END CTAB
M  END
>  <i_epik_Tot_Q>  (1) 
-1

>  <i_epik_Tot_abs_Q>  (1) 
1

>  <i_i_glide_confnum>  (1) 
3678

>  <i_i_glide_lignum>  (1) 
17

>  <i_i_glide_posenum>  (1) 
353

>  <i_i_glide_rotatable_bonds>  (1) 
14

>  <i_lp_mmshare_version>  (1) 
72125

>  <i_m_source_file_index>  (1) 
2

>  <i_f3d_flags>  (1) 
0

>  <num_sample>  (1) 
50

>  <b_lp_Chiralities_Consistent>  (1) 
1

>  <r_epik_Charging_Adjusted_Penalty>  (1) 
0.13318820565599726

>  <r_epik_Ionization_Penalty>  (1) 
0.13318880763099702

>  <r_epik_Ionization_Penalty_Charging>  (1) 
1.1004593090013429e-05

>  <r_epik_Ionization_Penalty_Neutral>  (1) 
0.13317780303790702

>  <r_epik_State_Penalty>  (1) 
0.13317720106290726

>  <r_glide_ring_energy>  (1) 
0

>  <r_i_docking_score>  (1) 
-3.5479390573466913

>  <r_i_glide_ecoul>  (1) 
-0.28983914951233203

>  <r_i_glide_eff_state_penalty>  (1) 
0.13317720106290726

>  <r_i_glide_einternal>  (1) 
19.967365243586929

>  <r_i_glide_emodel>  (1) 
-24.849119279909992

>  <r_i_glide_emodel_strain>  (1) 
0.5851450331957011

>  <r_i_glide_energy>  (1) 
-30.975609261023166

>  <r_i_glide_erotb>  (1) 
0.56507953808565226

>  <r_i_glide_esite>  (1) 
0

>  <r_i_glide_evdw>  (1) 
-30.685770111510834

>  <r_i_glide_gscore>  (1) 
-3.6811162584095984

>  <r_i_glide_gscore_strain>  (1) 
0

>  <r_i_glide_hbond>  (1) 
-0.14909244458449059

>  <r_i_glide_ligand_efficiency>  (1) 
-0.093366817298597138

>  <r_i_glide_ligand_efficiency_ln>  (1) 
-0.76504003055676217

>  <r_i_glide_ligand_efficiency_sa>  (1) 
-0.31389694356897568

>  <r_i_glide_lipo>  (1) 
-2.1154586237114459

>  <r_i_glide_metal>  (1) 
-0

>  <r_i_glide_rewards>  (1) 
-0.4038803501969227

>  <r_lp_Energy>  (1) 
45.243853999999999

>  <s_epik_cmdline>  (1) 
J2VwaWtfcHl0aG9uJywgJy1waHQnLCAnMS4wJywgJy1waCcsICc3LjQnLCAnLXRuJywgJzgnLCAnLW1hJywgJzUwMCcsICctaW1hZScsICc8aW5maWxlLm1hZT4nLCAnLW9tYWUnLCAnPG91dGZpbGUubWFlPic=

>  <s_epik_input>  (1) 
W0NIM11bQ0hdKFtDSDNdKVtDSDJdW0NIMl1bQ0BASF0oW09IXSlbQ0gyXVtDQEBIXShbQ0gzXSlPW0NIMl1bQ0BASF0oW0NIMl1bQ0gyXTEpW0NIMl1bQ0BIXShbQ0gyXVAoPU8pKFtPSF0pW09IXSlbQ0BIXTFbQ0BASF0oW0NIMl1bQ0gyXTIpW0NAQEhdKFtDQF0yM1tPSF0pW0NAQEhdKEYpW0NASF0oRilbQ0gyXVtDSDJdW0NIMl1bQ0gyXVtDSDJdMw==

>  <s_glide_docking_method>  (1) 
confgen

>  <s_i_glide_gridfile>  (1) 
gpcr_drd2_6luq_protein_autoprepared_prepared

>  <s_lp_Force_Field>  (1) 
S-OPLS

>  <s_lp_Variant>  (1) 
DiffSBDD_1-1

>  <s_m_source_file>  (1) 
generated_generic_title2_ligand_DiffSBDD_2026-06-23_prepared.sdf

>  <GenAI_Model>  (1) 
DiffSBDD

>  <Protein>  (1) 
generic_title2

$$$$
DiffSBDD_1
     RDKit          3D

  0  0  0  0  0  0  0  0  0  0999 V3000
M  V30 BEGIN CTAB
M  V30 COUNTS 89 91 0 0 1
M  V30 BEGIN ATOM
M  V30 1 O 7.706108 4.792872 -12.535203 0
M  V30 2 O 8.575398 5.651053 -8.306527 0
M  V30 3 C 8.312637 3.025521 -17.382489 0 CFG=2
M  V30 4 C 10.063246 1.150807 -17.843900 0
M  V30 5 C 7.538254 -3.075647 -18.391941 0
M  V30 6 C 11.594668 8.920976 -6.527858 0
M  V30 7 C 4.838415 -0.881622 -18.249914 0
M  V30 8 C 9.517536 5.815477 -9.343445 0 CFG=1
M  V30 9 C 9.372722 4.155125 -17.140421 0 CFG=1
M  V30 10 C 6.317536 1.191080 -18.874667 0 CFG=2
M  V30 11 C 9.827469 -0.337933 -18.091292 0
M  V30 12 O 11.974252 6.022674 -17.252419 0 CHG=-1
M  V30 13 C 7.976199 -1.774494 -19.090726 0
M  V30 14 C 7.809121 2.458942 -16.022368 0
M  V30 15 C 9.083317 5.046943 -10.612034 0
M  V30 16 C 5.020930 -2.376752 -18.597524 0
M  V30 17 C 8.821912 1.902984 -18.360770 0 CFG=1
M  V30 18 C 6.122627 -3.077404 -17.778418 0
M  V30 19 C 9.818397 7.294929 -9.638312 0
M  V30 20 C 8.490874 4.530204 -14.754688 0 CFG=2
M  V30 21 C 12.636758 8.340889 -8.758523 0
M  V30 22 F 4.158203 0.827483 -19.585181 0
M  V30 23 C 11.504644 8.015677 -7.768051 0
M  V30 24 C 7.351602 3.549303 -15.053747 0
M  V30 25 C 6.498905 5.058624 -10.554179 0
M  V30 26 F 6.245730 2.203783 -19.742892 0
M  V30 27 O 12.272800 3.852227 -18.507115 0 CHG=-1
M  V30 28 O 11.853051 5.990233 -19.770568 0
M  V30 29 P 11.618123 5.219850 -18.487336 0
M  V30 30 C 10.114148 8.168041 -8.411774 0
M  V30 31 C 7.765807 5.481200 -11.302100 0 CFG=2
M  V30 32 C 7.831471 0.799917 -18.852762 0 CFG=1
M  V30 33 O 7.792812 -0.633422 -16.895350 0
M  V30 34 C 8.109484 5.542699 -13.670617 0
M  V30 35 C 9.812775 4.924331 -18.418353 0
M  V30 36 C 8.303854 -0.531119 -18.210518 0 CFG=2
M  V30 37 C 8.926374 5.184022 -16.071957 0
M  V30 38 C 5.269275 0.143764 -19.328531 0 CFG=2
M  V30 39 H 7.856185 6.258519 -8.463083 0
M  V30 40 H 7.462344 3.515628 -17.857233 0
M  V30 41 H 10.973820 1.497164 -18.334948 0
M  V30 42 H 10.216862 1.319870 -16.785029 0
M  V30 43 H 7.567075 -3.867903 -19.140971 0
M  V30 44 H 8.270525 -3.363520 -17.635784 0
M  V30 45 H 11.418585 9.965318 -6.784963 0
M  V30 46 H 10.855916 8.635536 -5.777716 0
M  V30 47 H 12.575370 8.868114 -6.060411 0
M  V30 48 H 3.775352 -0.742181 -18.058556 0
M  V30 49 H 5.282716 -0.638615 -17.286749 0
M  V30 50 H 10.427904 5.363238 -8.955271 0
M  V30 51 H 10.258983 3.665958 -16.735829 0
M  V30 52 H 5.976352 1.602606 -17.931906 0
M  V30 53 H 10.322014 -0.583047 -19.031568 0
M  V30 54 H 10.281230 -0.966881 -17.323368 0
M  V30 55 H 7.241376 -1.528980 -19.847866 0
M  V30 56 H 8.845434 -2.012587 -19.702683 0
M  V30 57 H 8.575733 1.871682 -15.526084 0
M  V30 58 H 6.984895 1.765585 -16.147428 0
M  V30 59 H 9.885806 5.133297 -11.343945 0
M  V30 60 H 9.028577 3.986116 -10.385012 0
M  V30 61 H 5.148584 -2.540593 -19.667713 0
M  V30 62 H 4.082106 -2.876812 -18.354148 0
M  V30 63 H 9.129293 2.392477 -19.280614 0
M  V30 64 H 5.833559 -4.117224 -17.623526 0
M  V30 65 H 6.143287 -2.655434 -16.777721 0
M  V30 66 H 10.629368 7.363026 -10.361751 0
M  V30 67 H 8.975410 7.750821 -10.146962 0
M  V30 68 H 9.339930 3.990234 -14.346907 0
M  V30 69 H 12.478077 9.304801 -9.241291 0
M  V30 70 H 13.604683 8.377809 -8.261219 0
M  V30 71 H 12.711110 7.590492 -9.544681 0
M  V30 72 H 11.626056 6.984296 -7.434380 0
M  V30 73 H 6.991979 3.075316 -14.140465 0
M  V30 74 H 6.510794 4.097043 -15.473628 0
M  V30 75 H 6.413154 5.590234 -9.611969 0
M  V30 76 H 5.605949 5.289355 -11.135453 0
M  V30 77 H 6.494292 3.990274 -10.340593 0
M  V30 78 H 10.002641 9.190232 -8.747876 0
M  V30 79 H 9.334842 8.030110 -7.661372 0
M  V30 80 H 7.727361 6.557144 -11.473123 0
M  V30 81 H 8.081202 0.671352 -19.908102 0
M  V30 82 H 8.043824 -1.468964 -16.524475 0
M  V30 83 H 7.300065 6.198355 -13.992780 0
M  V30 84 H 8.973937 6.165017 -13.436043 0
M  V30 85 H 9.528246 4.411143 -19.330456 0
M  V30 86 H 9.286907 5.876130 -18.481510 0
M  V30 87 H 8.100346 5.778883 -16.462650 0
M  V30 88 H 9.741879 5.881124 -15.881060 0
M  V30 89 H 5.528627 -0.312824 -20.282335 0
M  V30 END ATOM
M  V30 BEGIN BOND
M  V30 1 1 8 2
M  V30 2 1 9 3
M  V30 3 1 11 4
M  V30 4 1 13 5
M  V30 5 1 14 3
M  V30 6 1 15 8
M  V30 7 1 16 7
M  V30 8 1 17 3
M  V30 9 1 17 4
M  V30 10 1 18 5
M  V30 11 1 18 16
M  V30 12 1 19 8
M  V30 13 1 23 6
M  V30 14 1 23 21
M  V30 15 1 24 14
M  V30 16 1 24 20
M  V30 17 1 26 10
M  V30 18 1 29 12
M  V30 19 1 29 27
M  V30 20 2 29 28
M  V30 21 1 30 19
M  V30 22 1 30 23
M  V30 23 1 31 1
M  V30 24 1 31 15
M  V30 25 1 31 25
M  V30 26 1 32 10
M  V30 27 1 32 17
M  V30 28 1 34 1
M  V30 29 1 34 20
M  V30 30 1 35 9
M  V30 31 1 35 29
M  V30 32 1 36 11
M  V30 33 1 36 13
M  V30 34 1 36 32
M  V30 35 1 36 33 CFG=1
M  V30 36 1 37 9
M  V30 37 1 37 20
M  V30 38 1 38 7
M  V30 39 1 38 10
M  V30 40 1 38 22
M  V30 41 1 39 2
M  V30 42 1 3 40 CFG=3
M  V30 43 1 41 4
M  V30 44 1 42 4
M  V30 45 1 43 5
M  V30 46 1 44 5
M  V30 47 1 45 6
M  V30 48 1 46 6
M  V30 49 1 47 6
M  V30 50 1 48 7
M  V30 51 1 49 7
M  V30 52 1 8 50 CFG=1
M  V30 53 1 9 51 CFG=1
M  V30 54 1 10 52 CFG=1
M  V30 55 1 53 11
M  V30 56 1 54 11
M  V30 57 1 55 13
M  V30 58 1 56 13
M  V30 59 1 57 14
M  V30 60 1 58 14
M  V30 61 1 59 15
M  V30 62 1 60 15
M  V30 63 1 61 16
M  V30 64 1 62 16
M  V30 65 1 17 63 CFG=3
M  V30 66 1 64 18
M  V30 67 1 65 18
M  V30 68 1 66 19
M  V30 69 1 67 19
M  V30 70 1 20 68 CFG=1
M  V30 71 1 69 21
M  V30 72 1 70 21
M  V30 73 1 71 21
M  V30 74 1 72 23
M  V30 75 1 73 24
M  V30 76 1 74 24
M  V30 77 1 75 25
M  V30 78 1 76 25
M  V30 79 1 77 25
M  V30 80 1 78 30
M  V30 81 1 79 30
M  V30 82 1 31 80 CFG=3
M  V30 83 1 32 81 CFG=3
M  V30 84 1 82 33
M  V30 85 1 83 34
M  V30 86 1 84 34
M  V30 87 1 85 35
M  V30 88 1 86 35
M  V30 89 1 87 37
M  V30 90 1 88 37
M  V30 91 1 38 89 CFG=3
M  V30 END BOND
M  V30 END CTAB
M  END
>  <i_epik_Tot_Q>  (1) 
-2

>  <i_epik_Tot_abs_Q>  (1) 
2

>  <i_i_glide_confnum>  (1) 
2776

>  <i_i_glide_lignum>  (1) 
20

>  <i_i_glide_posenum>  (1) 
379

>  <i_i_glide_rotatable_bonds>  (1) 
13

>  <i_lp_mmshare_version>  (1) 
72125

>  <i_m_source_file_index>  (1) 
2

>  <i_f3d_flags>  (1) 
0

>  <num_sample>  (1) 
50

>  <b_lp_Chiralities_Consistent>  (1) 
1

>  <r_epik_Charging_Adjusted_Penalty>  (1) 
1.8994269935217587

>  <r_epik_Ionization_Penalty>  (1) 
0.94971411018702601

>  <r_epik_Ionization_Penalty_Charging>  (1) 
0.94971349676087924

>  <r_epik_Ionization_Penalty_Neutral>  (1) 
6.1342614676121867e-07

>  <r_epik_State_Penalty>  (1) 
0.94971349676087935

>  <r_glide_ring_energy>  (1) 
0

>  <r_i_docking_score>  (1) 
-3.5451087082870378

>  <r_i_glide_ecoul>  (1) 
-1.2395649502089636

>  <r_i_glide_eff_state_penalty>  (1) 
0.94971349676087935

>  <r_i_glide_einternal>  (1) 
7.6389798247455118

>  <r_i_glide_emodel>  (1) 
-40.023432305703622

>  <r_i_glide_emodel_strain>  (1) 
0.33338340897860519

>  <r_i_glide_energy>  (1) 
-35.40235389228441

>  <r_i_glide_erotb>  (1) 
0.50299043937721266

>  <r_i_glide_esite>  (1) 
0

>  <r_i_glide_evdw>  (1) 
-34.162788942075444

>  <r_i_glide_gscore>  (1) 
-4.4948222050479174

>  <r_i_glide_gscore_strain>  (1) 
0

>  <r_i_glide_hbond>  (1) 
-0.32303675380295938

>  <r_i_glide_ligand_efficiency>  (1) 
-0.093292334428606252

>  <r_i_glide_ligand_efficiency_ln>  (1) 
-0.76442972403906706

>  <r_i_glide_ligand_efficiency_sa>  (1) 
-0.31364653399183851

>  <r_i_glide_lipo>  (1) 
-2.0677911004320109

>  <r_i_glide_metal>  (1) 
-0

>  <r_i_glide_rewards>  (1) 
-0.71291060055504252

>  <r_lp_Energy>  (1) 
44.677890999999995

>  <s_epik_cmdline>  (1) 
J2VwaWtfcHl0aG9uJywgJy1waHQnLCAnMS4wJywgJy1waCcsICc3LjQnLCAnLXRuJywgJzgnLCAnLW1hJywgJzUwMCcsICctaW1hZScsICc8aW5maWxlLm1hZT4nLCAnLW9tYWUnLCAnPG91dGZpbGUubWFlPic=

>  <s_epik_input>  (1) 
W0NIM11bQ0hdKFtDSDNdKVtDSDJdW0NIMl1bQ0BASF0oW09IXSlbQ0gyXVtDQEhdKFtDSDNdKU9bQ0gyXVtDQEBIXShbQ0gyXVtDSDJdMSlbQ0gyXVtDQEhdKFtDSDJdUCg9TykoW09IXSlbT0hdKVtDQEhdMVtDQEBIXShbQ0gyXVtDSDJdMilbQ0BASF0oW0NAXTIzW09IXSlbQ0BASF0oRilbQ0BIXShGKVtDSDJdW0NIMl1bQ0gyXVtDSDJdW0NIMl0z

>  <s_glide_docking_method>  (1) 
confgen

>  <s_i_glide_gridfile>  (1) 
gpcr_drd2_6luq_protein_autoprepared_prepared

>  <s_lp_Force_Field>  (1) 
S-OPLS

>  <s_lp_Variant>  (1) 
DiffSBDD_1-4

>  <s_m_source_file>  (1) 
generated_generic_title2_ligand_DiffSBDD_2026-06-23_prepared.sdf

>  <GenAI_Model>  (1) 
DiffSBDD

>  <Protein>  (1) 
generic_title2

$$$$
DiffSBDD_39
     RDKit          3D

  0  0  0  0  0  0  0  0  0  0999 V3000
M  V30 BEGIN CTAB
M  V30 COUNTS 69 72 0 0 1
M  V30 BEGIN ATOM
M  V30 1 C 8.634037 6.998827 -12.711746 0
M  V30 2 F 8.975368 6.476565 -5.869734 0
M  V30 3 F 9.762960 5.635248 -7.665918 0
M  V30 4 C 4.872578 7.870761 -19.350188 0
M  V30 5 C 7.786069 6.093445 -14.919447 0
M  V30 6 C 6.955872 3.729459 -15.106779 0 CFG=1
M  V30 7 O 4.575585 7.933915 -20.728271 0
M  V30 8 C 10.853435 8.371698 -8.484493 0 CFG=2
M  V30 9 C 7.791169 4.583084 -11.371979 0
M  V30 10 C 6.824109 5.288053 -17.127019 0 CFG=2
M  V30 11 O 12.406879 9.190133 -6.806993 0
M  V30 12 C 8.778124 5.554350 -10.720132 0
M  V30 13 N 8.628781 6.938941 -11.228744 0 CFG=1 CHG=1
M  V30 14 C 11.252481 6.584827 -6.154117 0
M  V30 15 C 7.646796 6.027373 -13.387208 0 CFG=1
M  V30 16 C 9.518506 7.990267 -10.636840 0
M  V30 17 O 12.175408 6.868614 -7.185024 0
M  V30 18 C 6.895212 3.645419 -13.570105 0
M  V30 19 N 6.892531 5.134251 -15.629892 0 CFG=2 CHG=1
M  V30 20 C 5.737462 6.636622 -19.026297 0 CFG=1
M  V30 21 C 7.101795 6.673149 -19.750452 0
M  V30 22 C 10.756202 7.564195 -9.799524 0
M  V30 23 C 7.892477 4.601850 -12.897848 0 CFG=2
M  V30 24 C 12.181704 8.152009 -7.750417 0 CFG=1
M  V30 25 C 9.770230 8.006058 -7.474960 0
M  V30 26 C 7.970798 5.458319 -19.389847 0
M  V30 27 C 9.885779 6.639302 -6.802976 0
M  V30 28 O 8.885336 8.790230 -7.184995 0
M  V30 29 C 8.184507 5.355543 -17.872651 0
M  V30 30 O 8.175433 3.247756 -15.600082 0
M  V30 31 C 5.942971 6.500744 -17.502480 0
M  V30 32 H 9.649147 6.767525 -13.033048 0
M  V30 33 H 8.402300 8.015198 -13.029159 0
M  V30 34 H 5.375393 8.790849 -19.055751 0
M  V30 35 H 3.932318 7.832332 -18.797178 0
M  V30 36 H 8.820625 5.913017 -15.214184 0
M  V30 37 H 7.532538 7.115581 -15.190284 0
M  V30 38 H 6.175410 3.104986 -15.527088 0
M  V30 39 H 5.377347 8.078906 -21.207587 0
M  V30 40 H 10.802213 9.427046 -8.746032 0
M  V30 41 H 8.053041 3.590277 -11.034974 0
M  V30 42 H 6.772078 4.789312 -11.040787 0
M  V30 43 H 6.324178 4.413007 -17.539586 0
M  V30 44 H 11.653430 9.251555 -6.239561 0
M  V30 45 H 9.780841 5.180475 -10.913752 0
M  V30 46 H 8.601712 5.547921 -9.648427 0
M  V30 47 H 11.344737 7.289362 -5.325462 0
M  V30 48 H 11.455134 5.590840 -5.757509 0
M  V30 49 H 6.632130 6.324818 -13.114837 0
M  V30 50 H 9.872707 8.641109 -11.434071 0
M  V30 51 H 8.905903 8.666553 -10.046899 0
M  V30 52 H 7.085594 2.620563 -13.248259 0
M  V30 53 H 5.881700 3.881797 -13.240554 0
M  V30 54 H 5.196338 5.752440 -19.367791 0
M  V30 55 H 6.955162 6.693822 -20.830735 0
M  V30 56 H 7.637393 7.590033 -19.501376 0
M  V30 57 H 10.797560 6.507797 -9.568464 0
M  V30 58 H 11.649182 7.744667 -10.398421 0
M  V30 59 H 8.904063 4.297567 -13.176749 0
M  V30 60 H 13.020729 8.187382 -8.447083 0
M  V30 61 H 7.500245 4.547194 -19.761170 0
M  V30 62 H 8.934670 5.532646 -19.896014 0
M  V30 63 H 8.794583 4.476362 -17.673644 0
M  V30 64 H 8.779968 6.210740 -17.569946 0
M  V30 65 H 8.089339 2.321984 -15.780238 0
M  V30 66 H 6.386255 7.421377 -17.122160 0
M  V30 67 H 4.969397 6.408701 -17.017909 0
M  V30 68 H 7.704982 7.221533 -10.901156 0
M  V30 69 H 5.968844 5.418926 -15.337565 0
M  V30 END ATOM
M  V30 BEGIN BOND
M  V30 1 1 7 4
M  V30 2 1 12 9
M  V30 3 1 13 1
M  V30 4 1 13 12
M  V30 5 1 15 1
M  V30 6 1 15 5
M  V30 7 1 16 13
M  V30 8 1 17 14
M  V30 9 1 18 6
M  V30 10 1 19 5
M  V30 11 1 19 6
M  V30 12 1 19 10
M  V30 13 1 20 4
M  V30 14 1 21 20
M  V30 15 1 22 8
M  V30 16 1 22 16
M  V30 17 1 23 9
M  V30 18 1 23 15
M  V30 19 1 23 18
M  V30 20 1 24 8
M  V30 21 1 24 11
M  V30 22 1 24 17
M  V30 23 1 25 8
M  V30 24 1 26 21
M  V30 25 1 27 2
M  V30 26 1 27 3
M  V30 27 1 27 14
M  V30 28 1 27 25
M  V30 29 2 28 25
M  V30 30 1 29 10
M  V30 31 1 29 26
M  V30 32 1 30 6
M  V30 33 1 31 10
M  V30 34 1 31 20
M  V30 35 1 32 1
M  V30 36 1 33 1
M  V30 37 1 34 4
M  V30 38 1 35 4
M  V30 39 1 36 5
M  V30 40 1 37 5
M  V30 41 1 6 38 CFG=3
M  V30 42 1 39 7
M  V30 43 1 8 40 CFG=3
M  V30 44 1 41 9
M  V30 45 1 42 9
M  V30 46 1 10 43 CFG=3
M  V30 47 1 44 11
M  V30 48 1 45 12
M  V30 49 1 46 12
M  V30 50 1 47 14
M  V30 51 1 48 14
M  V30 52 1 15 49 CFG=3
M  V30 53 1 50 16
M  V30 54 1 51 16
M  V30 55 1 52 18
M  V30 56 1 53 18
M  V30 57 1 20 54 CFG=3
M  V30 58 1 55 21
M  V30 59 1 56 21
M  V30 60 1 57 22
M  V30 61 1 58 22
M  V30 62 1 23 59 CFG=1
M  V30 63 1 24 60 CFG=3
M  V30 64 1 61 26
M  V30 65 1 62 26
M  V30 66 1 63 29
M  V30 67 1 64 29
M  V30 68 1 65 30
M  V30 69 1 66 31
M  V30 70 1 67 31
M  V30 71 1 13 68 CFG=1
M  V30 72 1 19 69 CFG=1
M  V30 END BOND
M  V30 END CTAB
M  END
>  <i_epik_Tot_Q>  (1) 
2

>  <i_epik_Tot_abs_Q>  (1) 
2

>  <i_i_glide_confnum>  (1) 
184

>  <i_i_glide_lignum>  (1) 
113

>  <i_i_glide_posenum>  (1) 
197

>  <i_i_glide_rotatable_bonds>  (1) 
8

>  <i_lp_mmshare_version>  (1) 
72125

>  <i_m_source_file_index>  (1) 
40

>  <i_f3d_flags>  (1) 
0

>  <num_sample>  (1) 
50

>  <b_lp_Chiralities_Consistent>  (1) 
1

>  <r_epik_Charging_Adjusted_Penalty>  (1) 
1.743801429740254

>  <r_epik_Ionization_Penalty>  (1) 
1.6051069046209219

>  <r_epik_Ionization_Penalty_Charging>  (1) 
0.6098477401054202

>  <r_epik_Ionization_Penalty_Neutral>  (1) 
0.99525916451550167

>  <r_epik_State_Penalty>  (1) 
1.1339536896348337

>  <r_glide_ring_energy>  (1) 
1.2534239858202507

>  <r_i_docking_score>  (1) 
-3.5441744066954133

>  <r_i_glide_ecoul>  (1) 
-6.7158347508109602

>  <r_i_glide_eff_state_penalty>  (1) 
1.1339536896348337

>  <r_i_glide_einternal>  (1) 
16.212264474237955

>  <r_i_glide_emodel>  (1) 
-17.819728629111264

>  <r_i_glide_emodel_strain>  (1) 
5.7762745337487331

>  <r_i_glide_energy>  (1) 
-25.404140328258972

>  <r_i_glide_erotb>  (1) 
0.49785121930328097

>  <r_i_glide_esite>  (1) 
-0.18622295993398902

>  <r_i_glide_evdw>  (1) 
-18.688305577448013

>  <r_i_glide_gscore>  (1) 
-4.678128096330247

>  <r_i_glide_gscore_strain>  (1) 
0.44406863343718328

>  <r_i_glide_hbond>  (1) 
-0.16001707235227322

>  <r_i_glide_ligand_efficiency>  (1) 
-0.11432820666759398

>  <r_i_glide_ligand_efficiency_ln>  (1) 
-0.79931994461110456

>  <r_i_glide_ligand_efficiency_sa>  (1) 
-0.35914841644818446

>  <r_i_glide_lipo>  (1) 
-1.8563698837668956

>  <r_i_glide_metal>  (1) 
-0

>  <r_i_glide_rewards>  (1) 
-1.4756475415235082

>  <r_lp_Energy>  (1) 
47.174439

>  <r_lp_tautomer_probability>  (1) 
0.99995000000000001

>  <s_epik_Chemistry_Notes>  (1) 
This compound contains an acetal/aminal-like group ( X-CH(R)-Y where X, Y are N, S, or O) that may be acid/base labile, releasing an aldehyde.

>  <s_epik_cmdline>  (1) 
J2VwaWtfcHl0aG9uJywgJy1waHQnLCAnMS4wJywgJy1waCcsICc3LjQnLCAnLXRuJywgJzgnLCAnLW1hJywgJzUwMCcsICctaW1hZScsICc8aW5maWxlLm1hZT4nLCAnLW9tYWUnLCAnPG91dGZpbGUubWFlPic=

>  <s_epik_input>  (1) 
RkMxKEYpW0NIMl1PW0NASF0oW09IXSlbQ0BIXShDMT1PKVtDSDJdW0NIMl1OKFtDSDJdMilbQ0gyXVtDSDJdW0NASF0oW0NAQEhdMjMpW0NIMl1bQ0BIXShbT0hdKU4oW0NIMl0zKVtDQEBIXTRbQ0gyXVtDSDJdW0NIMl1bQ0BASF0oW0NIMl00KVtDSDJdW09IXQ==

>  <s_glide_docking_method>  (1) 
confgen

>  <s_i_glide_gridfile>  (1) 
gpcr_drd2_6luq_protein_autoprepared_prepared

>  <s_lp_Force_Field>  (1) 
S-OPLS

>  <s_lp_Variant>  (1) 
DiffSBDD_39-9

>  <s_m_source_file>  (1) 
generated_generic_title2_ligand_DiffSBDD_2026-06-23_prepared.sdf

>  <GenAI_Model>  (1) 
DiffSBDD

>  <Protein>  (1) 
generic_title2

$$$$
DiffSBDD_37
     RDKit          3D

  0  0  0  0  0  0  0  0  0  0999 V3000
M  V30 BEGIN CTAB
M  V30 COUNTS 80 85 0 0 1
M  V30 BEGIN ATOM
M  V30 1 C 7.903113 5.003433 -13.679540 0 CFG=1
M  V30 2 O 10.575952 9.011024 -6.385446 0
M  V30 3 F 12.499999 4.425111 -19.408293 0
M  V30 4 C 9.060039 7.615914 -11.045787 0
M  V30 5 C 10.542412 5.348786 -15.380705 0
M  V30 6 O 8.071788 2.774977 -12.854643 0 CHG=-1
M  V30 7 C 8.634408 3.885419 -12.911011 0
M  V30 8 C 10.140163 6.182431 -19.971234 0
M  V30 9 C 7.357457 7.418513 -13.122480 0
M  V30 10 O 9.223924 5.696650 -15.757338 0
M  V30 11 C 7.007251 2.670962 -15.727681 0
M  V30 12 C 9.152223 6.360403 -8.691765 0
M  V30 13 F 12.896085 6.863005 -23.094488 0
M  V30 14 C 11.197785 8.490728 -8.673248 0
M  V30 15 C 7.953885 6.897164 -11.834379 0 CFG=2
M  V30 16 C 7.726873 6.546042 -19.410498 0
M  V30 17 O 6.575389 1.990270 -16.893018 0
M  V30 18 C 6.379910 5.018979 -17.889699 0
M  V30 19 C 7.156631 2.587230 -18.033505 0
M  V30 20 C 11.232609 7.341824 -9.683769 0
M  V30 21 C 10.587052 7.984368 -7.356652 0 CFG=2
M  V30 22 C 12.069014 6.630052 -22.062280 0
M  V30 23 C 11.706442 7.788774 -21.156601 0
M  V30 24 O 7.091907 5.990217 -11.185029 0
M  V30 25 C 9.033221 5.889412 -18.953816 0 CFG=1
M  V30 26 C 10.658894 4.981826 -20.763619 0 CFG=1
M  V30 27 O 9.729492 4.172247 -12.385041 0
M  V30 28 N 8.331387 6.330835 -13.135382 0 CFG=1 CHG=1
M  V30 29 C 8.089175 5.017113 -15.254211 0 CFG=1
M  V30 30 C 7.978864 3.763148 -16.173362 0 CFG=2
M  V30 31 C 6.680625 6.461044 -18.308927 0
M  V30 32 C 11.602562 5.384552 -21.887115 0
M  V30 33 C 9.851793 6.751137 -10.021843 0 CFG=2
M  V30 34 C 11.331154 3.946750 -19.837090 0 CFG=2
M  V30 35 C 10.622201 7.429475 -20.156660 0
M  V30 36 S 10.326677 3.475054 -18.396376 0
M  V30 37 C 9.166118 7.481459 -7.627043 0
M  V30 38 C 8.768058 4.380321 -18.691488 0 CFG=1
M  V30 39 C 7.603808 4.030022 -17.677331 0 CFG=2
M  V30 40 H 6.839984 4.856541 -13.480976 0
M  V30 41 H 11.468496 9.263385 -6.208129 0
M  V30 42 H 9.758215 8.032572 -11.772362 0
M  V30 43 H 8.632696 8.488413 -10.552103 0
M  V30 44 H 11.235495 5.954949 -15.964078 0
M  V30 45 H 10.718406 5.590256 -14.336677 0
M  V30 46 H 10.787899 4.313846 -15.585045 0
M  V30 47 H 6.372076 7.085023 -13.445290 0
M  V30 48 H 7.775401 8.293636 -13.613752 0
M  V30 49 H 7.495653 1.927787 -15.101811 0
M  V30 50 H 6.175506 3.090347 -15.168437 0
M  V30 51 H 8.142016 5.990180 -8.855182 0
M  V30 52 H 9.685055 5.504806 -8.273209 0
M  V30 53 H 10.620832 9.314612 -9.089313 0
M  V30 54 H 12.208912 8.861019 -8.502716 0
M  V30 55 H 7.357316 6.063319 -20.316821 0
M  V30 56 H 7.884631 7.590226 -19.668856 0
M  V30 57 H 5.706381 4.604733 -18.640125 0
M  V30 58 H 5.775401 5.190194 -16.997686 0
M  V30 59 H 8.007973 1.956377 -18.291317 0
M  V30 60 H 6.475792 2.539777 -18.884329 0
M  V30 61 H 11.775409 6.550869 -9.185025 0
M  V30 62 H 11.786096 7.613243 -10.582483 0
M  V30 63 H 11.186576 7.164779 -6.956973 0
M  V30 64 H 11.360160 8.620947 -21.770591 0
M  V30 65 H 12.593464 8.124310 -20.619522 0
M  V30 66 H 6.787860 6.478475 -10.416640 0
M  V30 67 H 9.356526 6.368960 -18.033634 0
M  V30 68 H 9.804999 4.524561 -21.263682 0
M  V30 69 H 7.277956 5.675145 -15.548001 0
M  V30 70 H 8.935265 3.248598 -16.133808 0
M  V30 71 H 5.758685 6.931049 -18.654390 0
M  V30 72 H 6.975438 7.044325 -17.439445 0
M  V30 73 H 11.900951 4.603525 -22.570902 0
M  V30 74 H 10.050910 5.816022 -10.532535 0
M  V30 75 H 11.565470 3.041017 -20.397122 0
M  V30 76 H 10.225311 8.243985 -19.572891 0
M  V30 77 H 8.575417 8.328661 -7.967003 0
M  V30 78 H 8.699780 7.124534 -6.708321 0
M  V30 79 H 8.412489 3.989758 -19.645737 0
M  V30 80 H 9.271349 6.593606 -13.388407 0
M  V30 END ATOM
M  V30 BEGIN BOND
M  V30 1 1 7 1
M  V30 2 1 7 6
M  V30 3 1 10 5
M  V30 4 1 15 4
M  V30 5 1 15 9
M  V30 6 1 17 11
M  V30 7 1 19 17
M  V30 8 1 20 14
M  V30 9 1 21 2
M  V30 10 1 21 14
M  V30 11 1 22 13
M  V30 12 1 23 22
M  V30 13 1 15 24 CFG=1
M  V30 14 1 25 8
M  V30 15 1 25 16
M  V30 16 1 26 8
M  V30 17 2 27 7
M  V30 18 1 28 1
M  V30 19 1 28 9
M  V30 20 1 28 15
M  V30 21 1 29 1
M  V30 22 1 29 10
M  V30 23 1 30 11
M  V30 24 1 30 29
M  V30 25 1 31 16
M  V30 26 1 31 18
M  V30 27 2 32 22
M  V30 28 1 32 26
M  V30 29 1 33 4
M  V30 30 1 33 12
M  V30 31 1 33 20
M  V30 32 1 34 3
M  V30 33 1 34 26
M  V30 34 2 35 8
M  V30 35 1 35 23
M  V30 36 1 36 34
M  V30 37 1 37 12
M  V30 38 1 37 21
M  V30 39 1 38 25
M  V30 40 1 38 36
M  V30 41 1 39 18 CFG=1
M  V30 42 1 39 19
M  V30 43 1 39 30
M  V30 44 1 39 38
M  V30 45 1 1 40 CFG=3
M  V30 46 1 41 2
M  V30 47 1 42 4
M  V30 48 1 43 4
M  V30 49 1 44 5
M  V30 50 1 45 5
M  V30 51 1 46 5
M  V30 52 1 47 9
M  V30 53 1 48 9
M  V30 54 1 49 11
M  V30 55 1 50 11
M  V30 56 1 51 12
M  V30 57 1 52 12
M  V30 58 1 53 14
M  V30 59 1 54 14
M  V30 60 1 55 16
M  V30 61 1 56 16
M  V30 62 1 57 18
M  V30 63 1 58 18
M  V30 64 1 59 19
M  V30 65 1 60 19
M  V30 66 1 61 20
M  V30 67 1 62 20
M  V30 68 1 21 63 CFG=1
M  V30 69 1 64 23
M  V30 70 1 65 23
M  V30 71 1 66 24
M  V30 72 1 25 67 CFG=1
M  V30 73 1 26 68 CFG=3
M  V30 74 1 29 69 CFG=3
M  V30 75 1 30 70 CFG=3
M  V30 76 1 71 31
M  V30 77 1 72 31
M  V30 78 1 73 32
M  V30 79 1 33 74 CFG=3
M  V30 80 1 34 75 CFG=3
M  V30 81 1 76 35
M  V30 82 1 77 37
M  V30 83 1 78 37
M  V30 84 1 38 79 CFG=3
M  V30 85 1 28 80 CFG=3
M  V30 END BOND
M  V30 END CTAB
M  END
>  <i_epik_Tot_Q>  (1) 
0

>  <i_epik_Tot_abs_Q>  (1) 
2

>  <i_i_glide_confnum>  (1) 
137

>  <i_i_glide_lignum>  (1) 
101

>  <i_i_glide_posenum>  (1) 
102

>  <i_i_glide_rotatable_bonds>  (1) 
9

>  <i_lp_mmshare_version>  (1) 
72125

>  <i_m_source_file_index>  (1) 
38

>  <i_f3d_flags>  (1) 
0

>  <num_sample>  (1) 
50

>  <b_lp_Chiralities_Consistent>  (1) 
1

>  <r_epik_Charging_Adjusted_Penalty>  (1) 
0.53807329711462948

>  <r_epik_Ionization_Penalty>  (1) 
0.26903764201212299

>  <r_epik_Ionization_Penalty_Charging>  (1) 
0.26903696022575102

>  <r_epik_Ionization_Penalty_Neutral>  (1) 
6.8178637198181737e-07

>  <r_epik_State_Penalty>  (1) 
0.26903633688887846

>  <r_glide_ring_energy>  (1) 
1.2981474174439562

>  <r_i_docking_score>  (1) 
-3.5403656063666129

>  <r_i_glide_ecoul>  (1) 
-3.2902350706756476

>  <r_i_glide_eff_state_penalty>  (1) 
0.26903633688887846

>  <r_i_glide_einternal>  (1) 
14.48985239770257

>  <r_i_glide_emodel>  (1) 
-17.583196960525246

>  <r_i_glide_emodel_strain>  (1) 
2.7041524588837973

>  <r_i_glide_energy>  (1) 
-23.775528734204066

>  <r_i_glide_erotb>  (1) 
0.23153238063810569

>  <r_i_glide_esite>  (1) 
-0.10000000000000001

>  <r_i_glide_evdw>  (1) 
-20.485293663528417

>  <r_i_glide_gscore>  (1) 
-3.8094019432554913

>  <r_i_glide_gscore_strain>  (1) 
0

>  <r_i_glide_hbond>  (1) 
-0.15997188127406645

>  <r_i_glide_ligand_efficiency>  (1) 
-0.090778605291451611

>  <r_i_glide_ligand_efficiency_ln>  (1) 
-0.75915488525916897

>  <r_i_glide_ligand_efficiency_sa>  (1) 
-0.30784944504523715

>  <r_i_glide_lipo>  (1) 
-1.6689034967754686

>  <r_i_glide_metal>  (1) 
-0

>  <r_i_glide_rewards>  (1) 
-0.59425900206629401

>  <r_lp_Energy>  (1) 
30.214154999999998

>  <s_epik_cmdline>  (1) 
J2VwaWtfcHl0aG9uJywgJy1waHQnLCAnMS4wJywgJy1waCcsICc3LjQnLCAnLXRuJywgJzgnLCAnLW1hJywgJzUwMCcsICctaW1hZScsICc8aW5maWxlLm1hZT4nLCAnLW9tYWUnLCAnPG91dGZpbGUubWFlPic=

>  <s_epik_input>  (1) 
W09IXVtDQEBIXTFbQ0gyXVtDSDJdW0NAQEhdKFtDSDJdW0NIMl0xKVtDSDJdW0NAQF0yKFtPSF0pW0NIMl1OMltDQEhdKEMoPU8pW09IXSlbQ0BASF0oT1tDSDNdKVtDQEhdM1tDSDJdT1tDSDJdW0NAXTM0W0NASF01W0NASF0oW0NIMl1bQ0gyXVtDSDJdNClDPTZbQ0BIXShbQ0BASF0oRilTNSlbQ0hdPUMoRilbQ0gyXVtDSF02

>  <s_glide_docking_method>  (1) 
confgen

>  <s_i_glide_gridfile>  (1) 
gpcr_drd2_6luq_protein_autoprepared_prepared

>  <s_lp_Force_Field>  (1) 
S-OPLS

>  <s_lp_Variant>  (1) 
DiffSBDD_37-2

>  <s_m_source_file>  (1) 
generated_generic_title2_ligand_DiffSBDD_2026-06-23_prepared.sdf

>  <GenAI_Model>  (1) 
DiffSBDD

>  <Protein>  (1) 
generic_title2

$$$$
DiffSBDD_0
     RDKit          3D

  0  0  0  0  0  0  0  0  0  0999 V3000
M  V30 BEGIN CTAB
M  V30 COUNTS 70 74 0 0 1
M  V30 BEGIN ATOM
M  V30 1 C 10.647513 9.048891 -6.548805 0
M  V30 2 N 7.749105 3.941339 -13.684605 0
M  V30 3 C 7.778946 5.700649 -17.568911 0 CFG=1
M  V30 4 C 8.980646 3.791531 -11.553203 0
M  V30 5 F 10.175603 6.471222 -5.497885 0
M  V30 6 C 7.510344 5.392027 -13.707316 0
M  V30 7 C 11.295563 8.713109 -7.897156 0
M  V30 8 C 9.663170 5.548116 -10.182710 0
M  V30 9 C 10.106829 6.396045 -7.825205 0 CFG=1
M  V30 10 C 10.332371 4.992483 -17.786891 0
M  V30 11 C 7.238357 3.225328 -14.858485 0 CFG=1
M  V30 12 C 6.431663 -0.256026 -14.374105 0
M  V30 13 C 8.996461 5.294770 -18.402181 0 CFG=1
M  V30 14 O 8.699767 5.058509 -11.107858 0
M  V30 15 C 9.421422 6.855630 -6.531759 0 CFG=2
M  V30 16 C 7.761731 4.409810 -18.356420 0 CFG=1
M  V30 17 N 7.579775 5.205116 -16.182495 0 CFG=1 CHG=1
M  V30 18 C 9.134767 6.390080 -9.028148 0
M  V30 19 C 6.496668 1.197884 -13.957496 0
M  V30 20 C 7.969020 3.795642 -16.071356 0 CFG=2
M  V30 21 O 5.427197 -0.409655 -15.357976 0
M  V30 22 C 11.417662 7.188321 -8.077168 0
M  V30 23 N 11.029440 5.904685 -17.050147 0
M  V30 24 C 8.038505 6.003043 -15.029151 0
M  V30 25 N 10.930305 3.815174 -17.975735 0
M  V30 26 O 12.168506 3.957913 -17.327847 0
M  V30 27 C 12.137426 5.215431 -16.845841 0
M  V30 28 O 7.396641 1.851730 -14.841052 0
M  V30 29 N 13.295856 5.622966 -16.205647 0
M  V30 30 C 8.537444 3.292842 -12.722111 0
M  V30 31 C 9.268239 8.377455 -6.486883 0
M  V30 32 C 14.544621 4.929095 -15.949965 0
M  V30 33 C 7.606650 3.213139 -17.433983 0
M  V30 34 H 11.278685 8.686372 -5.736228 0
M  V30 35 H 10.575185 10.122343 -6.385010 0
M  V30 36 H 7.127586 6.517410 -17.875930 0
M  V30 37 H 9.586846 3.227953 -10.861201 0
M  V30 38 H 6.437397 5.559584 -13.613538 0
M  V30 39 H 7.966736 5.956821 -12.906601 0
M  V30 40 H 12.281245 9.172840 -7.959745 0
M  V30 41 H 10.706669 9.134312 -8.712905 0
M  V30 42 H 10.175409 4.724346 -9.698902 0
M  V30 43 H 10.371852 6.148215 -10.750782 0
M  V30 44 H 10.385888 5.357310 -7.646107 0
M  V30 45 H 6.175420 3.450008 -14.926494 0
M  V30 46 H 6.174924 -0.809778 -13.478102 0
M  V30 47 H 7.396722 -0.624488 -14.724419 0
M  V30 48 H 9.155880 5.861120 -19.318105 0
M  V30 49 H 8.453362 6.368628 -6.402698 0
M  V30 50 H 7.170484 4.372443 -19.268728 0
M  V30 51 H 8.975413 7.408455 -9.373705 0
M  V30 52 H 8.171192 5.988522 -8.715499 0
M  V30 53 H 5.494533 1.626551 -13.948156 0
M  V30 54 H 6.861242 1.255133 -12.933201 0
M  V30 55 H 9.039393 3.693522 -15.901546 0
M  V30 56 H 5.100744 -1.298145 -15.300079 0
M  V30 57 H 12.173048 6.827933 -7.376783 0
M  V30 58 H 11.794858 6.974341 -9.074635 0
M  V30 59 H 7.703643 7.034975 -15.118455 0
M  V30 60 H 9.126313 5.989819 -15.028332 0
M  V30 61 H 13.269927 6.566413 -15.849125 0
M  V30 62 H 8.788772 2.280703 -12.997239 0
M  V30 63 H 8.742046 8.638149 -5.585035 0
M  V30 64 H 8.633962 8.723689 -7.304679 0
M  V30 65 H 15.269687 5.608779 -15.502636 0
M  V30 66 H 14.381179 4.099474 -15.262605 0
M  V30 67 H 14.963290 4.536468 -16.878355 0
M  V30 68 H 6.575456 2.858174 -17.468108 0
M  V30 69 H 8.263991 2.394853 -17.734392 0
M  V30 70 H 6.573973 5.190188 -16.089997 0
M  V30 END ATOM
M  V30 BEGIN BOND
M  V30 1 1 6 2
M  V30 2 1 7 1
M  V30 3 1 11 2
M  V30 4 1 13 3
M  V30 5 1 13 10
M  V30 6 1 14 4
M  V30 7 1 14 8
M  V30 8 1 15 5
M  V30 9 1 15 9
M  V30 10 1 16 3
M  V30 11 1 16 13
M  V30 12 1 17 3
M  V30 13 1 18 8
M  V30 14 1 18 9
M  V30 15 1 19 12
M  V30 16 1 20 11
M  V30 17 1 20 17
M  V30 18 1 21 12
M  V30 19 1 22 7
M  V30 20 1 22 9
M  V30 21 1 23 10
M  V30 22 1 24 6
M  V30 23 1 24 17
M  V30 24 2 25 10
M  V30 25 1 26 25
M  V30 26 2 27 23
M  V30 27 1 27 26
M  V30 28 1 28 11
M  V30 29 1 28 19
M  V30 30 1 29 27
M  V30 31 1 30 2
M  V30 32 2 30 4
M  V30 33 1 31 1
M  V30 34 1 31 15
M  V30 35 1 32 29
M  V30 36 1 33 16
M  V30 37 1 33 20
M  V30 38 1 34 1
M  V30 39 1 35 1
M  V30 40 1 3 36 CFG=3
M  V30 41 1 37 4
M  V30 42 1 38 6
M  V30 43 1 39 6
M  V30 44 1 40 7
M  V30 45 1 41 7
M  V30 46 1 42 8
M  V30 47 1 43 8
M  V30 48 1 9 44 CFG=1
M  V30 49 1 11 45 CFG=3
M  V30 50 1 46 12
M  V30 51 1 47 12
M  V30 52 1 13 48 CFG=3
M  V30 53 1 15 49 CFG=1
M  V30 54 1 16 50 CFG=3
M  V30 55 1 51 18
M  V30 56 1 52 18
M  V30 57 1 53 19
M  V30 58 1 54 19
M  V30 59 1 20 55 CFG=1
M  V30 60 1 56 21
M  V30 61 1 57 22
M  V30 62 1 58 22
M  V30 63 1 59 24
M  V30 64 1 60 24
M  V30 65 1 61 29
M  V30 66 1 62 30
M  V30 67 1 63 31
M  V30 68 1 64 31
M  V30 69 1 65 32
M  V30 70 1 66 32
M  V30 71 1 67 32
M  V30 72 1 68 33
M  V30 73 1 69 33
M  V30 74 1 17 70 CFG=1
M  V30 END BOND
M  V30 END CTAB
M  END
>  <i_epik_Tot_Q>  (1) 
1

>  <i_epik_Tot_abs_Q>  (1) 
1

>  <i_i_glide_confnum>  (1) 
587

>  <i_i_glide_lignum>  (1) 
8

>  <i_i_glide_posenum>  (1) 
158

>  <i_i_glide_rotatable_bonds>  (1) 
11

>  <i_lp_mmshare_version>  (1) 
72125

>  <i_m_source_file_index>  (1) 
1

>  <i_f3d_flags>  (1) 
0

>  <num_sample>  (1) 
50

>  <b_lp_Chiralities_Consistent>  (1) 
1

>  <r_epik_Charging_Adjusted_Penalty>  (1) 
0.41344222577729461

>  <r_epik_Ionization_Penalty>  (1) 
0.0027644559619576371

>  <r_epik_Ionization_Penalty_Charging>  (1) 
0.0027623868246906495

>  <r_epik_Ionization_Penalty_Neutral>  (1) 
2.0691372669875143e-06

>  <r_epik_State_Penalty>  (1) 
0.41067983895260396

>  <r_glide_ring_energy>  (1) 
1.2880141380397463

>  <r_i_docking_score>  (1) 
-3.5289580524883197

>  <r_i_glide_ecoul>  (1) 
-0.86532977724478322

>  <r_i_glide_eff_state_penalty>  (1) 
0.41067983895260396

>  <r_i_glide_einternal>  (1) 
8.9756510741561186

>  <r_i_glide_emodel>  (1) 
-32.084987738896231

>  <r_i_glide_emodel_strain>  (1) 
0.97395474402475202

>  <r_i_glide_energy>  (1) 
-28.929750942645853

>  <r_i_glide_erotb>  (1) 
0.74142510397790429

>  <r_i_glide_esite>  (1) 
0

>  <r_i_glide_evdw>  (1) 
-28.064421165401068

>  <r_i_glide_gscore>  (1) 
-3.9396378914409236

>  <r_i_glide_gscore_strain>  (1) 
0

>  <r_i_glide_hbond>  (1) 
-0.050148224182550924

>  <r_i_glide_ligand_efficiency>  (1) 
-0.10693812280267635

>  <r_i_glide_ligand_efficiency_ln>  (1) 
-0.78482199890650117

>  <r_i_glide_ligand_efficiency_sa>  (1) 
-0.34300770007489395

>  <r_i_glide_lipo>  (1) 
-1.59410611824927

>  <r_i_glide_metal>  (1) 
-0

>  <r_i_glide_rewards>  (1) 
-1.5037881281302357

>  <r_lp_Energy>  (1) 
51.448637999999995

>  <r_lp_tautomer_probability>  (1) 
0.5

>  <s_epik_Chemistry_Notes>  (1) 
This compound has an imine and may undergo hydrolysis. This compound contains an acetal/aminal-like group ( X-CH(R)-Y where X, Y are N, S, or O) that may be acid/base labile, releasing an aldehyde.

>  <s_epik_cmdline>  (1) 
J2VwaWtfcHl0aG9uJywgJy1waHQnLCAnMS4wJywgJy1waCcsICc3LjQnLCAnLXRuJywgJzgnLCAnLW1hJywgJzUwMCcsICctaW1hZScsICc8aW5maWxlLm1hZT4nLCAnLW9tYWUnLCAnPG91dGZpbGUubWFlPic=

>  <s_epik_input>  (1) 
W0NIMl0xW0NIMl1bQ0gyXVtDSDJdW0NASF0oRilbQ0BIXTFbQ0gyXVtDSDJdTy9bQ0hdPVtDSF1cTihbQ0BIXTJPW0NIMl1bQ0gyXVtPSF0pW0NIMl1bQ0gyXU4zW0NAQEhdMltDSDJdW0NAQEhdKFtDQEBIXTM0KVtDQEBIXTRjNW5jKG9uNSlbTkhdW0NIM10=

>  <s_glide_docking_method>  (1) 
confgen

>  <s_i_glide_gridfile>  (1) 
gpcr_drd2_6luq_protein_autoprepared_prepared

>  <s_lp_Force_Field>  (1) 
S-OPLS

>  <s_lp_Variant>  (1) 
DiffSBDD_0-8

>  <s_m_source_file>  (1) 
generated_generic_title2_ligand_DiffSBDD_2026-06-23_prepared.sdf

>  <GenAI_Model>  (1) 
DiffSBDD

>  <Protein>  (1) 
generic_title2

$$$$
DiffSBDD_0
     RDKit          3D

  0  0  0  0  0  0  0  0  0  0999 V3000
M  V30 BEGIN CTAB
M  V30 COUNTS 70 74 0 0 1
M  V30 BEGIN ATOM
M  V30 1 C 11.070323 7.763053 -5.755526 0
M  V30 2 N 7.959424 4.268251 -13.398473 0
M  V30 3 C 6.816448 4.750763 -17.465796 0 CFG=1
M  V30 4 C 9.611018 5.407590 -11.988592 0
M  V30 5 F 8.975365 9.190205 -8.408361 0
M  V30 6 C 7.056748 5.400823 -13.649691 0
M  V30 7 C 11.319579 6.420829 -6.450582 0
M  V30 8 C 9.534507 7.451248 -10.818797 0
M  V30 9 C 9.444902 6.943537 -8.168269 0 CFG=1
M  V30 10 C 9.382531 4.737409 -18.134926 0
M  V30 11 C 7.678760 3.079060 -14.193538 0 CFG=2
M  V30 12 C 5.433559 0.497994 -13.204299 0
M  V30 13 C 7.947074 4.441076 -18.457153 0 CFG=1
M  V30 14 O 8.840605 6.475352 -11.619860 0
M  V30 15 C 9.319367 8.315814 -7.486340 0 CFG=1
M  V30 16 C 7.102677 3.319353 -17.893730 0 CFG=1
M  V30 17 N 6.975421 4.633321 -15.987647 0 CFG=1 CHG=1
M  V30 18 C 10.232213 6.970878 -9.496364 0
M  V30 19 C 6.317271 1.703475 -12.849568 0
M  V30 20 C 7.847245 3.503106 -15.654419 0 CFG=2
M  V30 21 O 6.175576 -0.409653 -13.996557 0
M  V30 22 C 10.035763 5.942106 -7.158831 0
M  V30 23 N 10.311682 3.764278 -17.889546 0
M  V30 24 C 7.167776 5.828828 -15.139421 0
M  V30 25 N 9.827879 5.990160 -18.094721 0
M  V30 26 O 11.178992 5.862598 -17.742218 0
M  V30 27 C 11.359965 4.534971 -17.632934 0
M  V30 28 O 6.411837 2.553947 -13.986661 0
M  V30 29 N 12.634143 4.159433 -17.246923 0
M  V30 30 C 9.192841 4.403391 -12.775021 0
M  V30 31 C 10.606391 8.791839 -6.786621 0
M  V30 32 C 13.212816 2.854071 -16.999212 0
M  V30 33 C 7.515164 2.458677 -16.711362 0
M  V30 34 H 10.310516 7.638108 -4.985281 0
M  V30 35 H 11.962273 8.120373 -5.243246 0
M  V30 36 H 5.888897 5.213851 -17.794056 0
M  V30 37 H 10.575451 5.448585 -11.583285 0
M  V30 38 H 6.039461 5.071816 -13.436884 0
M  V30 39 H 7.199636 6.266238 -13.017581 0
M  V30 40 H 11.639492 5.681105 -5.715634 0
M  V30 41 H 12.137452 6.522749 -7.165073 0
M  V30 42 H 10.309100 7.865551 -11.465738 0
M  V30 43 H 8.866214 8.289244 -10.634297 0
M  V30 44 H 8.454387 6.561448 -8.395792 0
M  V30 45 H 8.418557 2.309755 -13.962227 0
M  V30 46 H 4.519489 0.799892 -13.716591 0
M  V30 47 H 5.137661 -0.023030 -12.293280 0
M  V30 48 H 7.758238 4.725335 -19.491168 0
M  V30 49 H 8.498045 8.296205 -6.767972 0
M  V30 50 H 6.414280 2.846303 -18.590827 0
M  V30 51 H 10.575508 5.961234 -9.612488 0
M  V30 52 H 11.134301 7.562315 -9.351416 0
M  V30 53 H 5.883077 2.287991 -12.040515 0
M  V30 54 H 7.279760 1.345674 -12.481671 0
M  V30 55 H 8.883017 3.821278 -15.750592 0
M  V30 56 H 5.727969 -1.265293 -13.985007 0
M  V30 57 H 9.277341 5.749071 -6.400129 0
M  V30 58 H 10.214599 4.995101 -7.660334 0
M  V30 59 H 6.413744 6.579044 -15.376314 0
M  V30 60 H 8.145090 6.267509 -15.338887 0
M  V30 61 H 13.272778 4.927268 -17.099411 0
M  V30 62 H 9.855866 3.584064 -12.986665 0
M  V30 63 H 10.440710 9.749074 -6.296978 0
M  V30 64 H 11.395372 8.962177 -7.519537 0
M  V30 65 H 13.806254 2.879293 -16.084886 0
M  V30 66 H 12.434167 2.099424 -16.882535 0
M  V30 67 H 13.863384 2.562555 -17.823700 0
M  V30 68 H 6.671101 1.832873 -16.416865 0
M  V30 69 H 8.359633 1.813874 -16.951979 0
M  V30 70 H 6.074777 4.290728 -15.685274 0
M  V30 END ATOM
M  V30 BEGIN BOND
M  V30 1 1 6 2
M  V30 2 1 7 1
M  V30 3 1 11 2
M  V30 4 1 13 3
M  V30 5 1 13 10
M  V30 6 1 14 4
M  V30 7 1 14 8
M  V30 8 1 15 5
M  V30 9 1 15 9
M  V30 10 1 16 3
M  V30 11 1 16 13
M  V30 12 1 17 3
M  V30 13 1 18 8
M  V30 14 1 18 9
M  V30 15 1 19 12
M  V30 16 1 20 11
M  V30 17 1 20 17
M  V30 18 1 21 12
M  V30 19 1 22 7
M  V30 20 1 22 9
M  V30 21 1 23 10
M  V30 22 1 24 6
M  V30 23 1 24 17
M  V30 24 2 25 10
M  V30 25 1 26 25
M  V30 26 2 27 23
M  V30 27 1 27 26
M  V30 28 1 28 11
M  V30 29 1 28 19
M  V30 30 1 29 27
M  V30 31 1 30 2
M  V30 32 2 30 4
M  V30 33 1 31 1
M  V30 34 1 31 15
M  V30 35 1 32 29
M  V30 36 1 33 16
M  V30 37 1 33 20
M  V30 38 1 34 1
M  V30 39 1 35 1
M  V30 40 1 3 36 CFG=1
M  V30 41 1 37 4
M  V30 42 1 38 6
M  V30 43 1 39 6
M  V30 44 1 40 7
M  V30 45 1 41 7
M  V30 46 1 42 8
M  V30 47 1 43 8
M  V30 48 1 9 44 CFG=3
M  V30 49 1 11 45 CFG=1
M  V30 50 1 46 12
M  V30 51 1 47 12
M  V30 52 1 13 48 CFG=3
M  V30 53 1 15 49 CFG=1
M  V30 54 1 16 50 CFG=3
M  V30 55 1 51 18
M  V30 56 1 52 18
M  V30 57 1 53 19
M  V30 58 1 54 19
M  V30 59 1 20 55 CFG=1
M  V30 60 1 56 21
M  V30 61 1 57 22
M  V30 62 1 58 22
M  V30 63 1 59 24
M  V30 64 1 60 24
M  V30 65 1 61 29
M  V30 66 1 62 30
M  V30 67 1 63 31
M  V30 68 1 64 31
M  V30 69 1 65 32
M  V30 70 1 66 32
M  V30 71 1 67 32
M  V30 72 1 68 33
M  V30 73 1 69 33
M  V30 74 1 17 70 CFG=1
M  V30 END BOND
M  V30 END CTAB
M  END
>  <i_epik_Tot_Q>  (1) 
1

>  <i_epik_Tot_abs_Q>  (1) 
1

>  <i_i_glide_confnum>  (1) 
532

>  <i_i_glide_lignum>  (1) 
12

>  <i_i_glide_posenum>  (1) 
390

>  <i_i_glide_rotatable_bonds>  (1) 
11

>  <i_lp_mmshare_version>  (1) 
72125

>  <i_m_source_file_index>  (1) 
1

>  <i_f3d_flags>  (1) 
0

>  <num_sample>  (1) 
50

>  <b_lp_Chiralities_Consistent>  (1) 
1

>  <r_epik_Charging_Adjusted_Penalty>  (1) 
0.41344222577729461

>  <r_epik_Ionization_Penalty>  (1) 
0.0027644559619576371

>  <r_epik_Ionization_Penalty_Charging>  (1) 
0.0027623868246906495

>  <r_epik_Ionization_Penalty_Neutral>  (1) 
2.0691372669875143e-06

>  <r_epik_State_Penalty>  (1) 
0.41067983895260396

>  <r_glide_ring_energy>  (1) 
1.7272227408313681

>  <r_i_docking_score>  (1) 
-3.5278735603689317

>  <r_i_glide_ecoul>  (1) 
-3.2403602058225234

>  <r_i_glide_eff_state_penalty>  (1) 
0.41067983895260396

>  <r_i_glide_einternal>  (1) 
15.652254435207251

>  <r_i_glide_emodel>  (1) 
-20.363131562237903

>  <r_i_glide_emodel_strain>  (1) 
3.8000337222495801

>  <r_i_glide_energy>  (1) 
-24.868618513167583

>  <r_i_glide_erotb>  (1) 
0.74142510397790429

>  <r_i_glide_esite>  (1) 
-0.043936224290152565

>  <r_i_glide_evdw>  (1) 
-21.62825830734506

>  <r_i_glide_gscore>  (1) 
-3.9385533993215356

>  <r_i_glide_gscore_strain>  (1) 
0

>  <r_i_glide_hbond>  (1) 
-0.16

>  <r_i_glide_ligand_efficiency>  (1) 
-0.10690525940511915

>  <r_i_glide_ligand_efficiency_ln>  (1) 
-0.78458081347434894

>  <r_i_glide_ligand_efficiency_sa>  (1) 
-0.34290228959902891

>  <r_i_glide_lipo>  (1) 
-1.8980254797565039

>  <r_i_glide_metal>  (1) 
-0

>  <r_i_glide_rewards>  (1) 
-1.0105498530121511

>  <r_lp_Energy>  (1) 
39.695543999999998

>  <r_lp_tautomer_probability>  (1) 
0.5

>  <s_epik_Chemistry_Notes>  (1) 
This compound has an imine and may undergo hydrolysis. This compound contains an acetal/aminal-like group ( X-CH(R)-Y where X, Y are N, S, or O) that may be acid/base labile, releasing an aldehyde.

>  <s_epik_cmdline>  (1) 
J2VwaWtfcHl0aG9uJywgJy1waHQnLCAnMS4wJywgJy1waCcsICc3LjQnLCAnLXRuJywgJzgnLCAnLW1hJywgJzUwMCcsICctaW1hZScsICc8aW5maWxlLm1hZT4nLCAnLW9tYWUnLCAnPG91dGZpbGUubWFlPic=

>  <s_epik_input>  (1) 
W0NIMl0xW0NIMl1bQ0gyXVtDSDJdW0NASF0oRilbQ0BIXTFbQ0gyXVtDSDJdTy9bQ0hdPVtDSF1cTihbQ0BIXTJPW0NIMl1bQ0gyXVtPSF0pW0NIMl1bQ0gyXU4zW0NAQEhdMltDSDJdW0NAQEhdKFtDQEBIXTM0KVtDQEBIXTRjNW5jKG9uNSlbTkhdW0NIM10=

>  <s_glide_docking_method>  (1) 
confgen

>  <s_i_glide_gridfile>  (1) 
gpcr_drd2_6luq_protein_autoprepared_prepared

>  <s_lp_Force_Field>  (1) 
S-OPLS

>  <s_lp_Variant>  (1) 
DiffSBDD_0-12

>  <s_m_source_file>  (1) 
generated_generic_title2_ligand_DiffSBDD_2026-06-23_prepared.sdf

>  <GenAI_Model>  (1) 
DiffSBDD

>  <Protein>  (1) 
generic_title2

$$$$
DiffSBDD_9
     RDKit          3D

  0  0  0  0  0  0  0  0  0  0999 V3000
M  V30 BEGIN CTAB
M  V30 COUNTS 77 78 0 0 1
M  V30 BEGIN ATOM
M  V30 1 C 9.775226 8.338356 -10.476922 0
M  V30 2 F 14.118369 4.437826 -19.851876 0
M  V30 3 C 9.781578 5.071664 -17.196522 0 CFG=2
M  V30 4 O 13.351811 4.328112 -17.728377 0
M  V30 5 F 7.054615 2.517026 -16.480496 0
M  V30 6 C 7.855900 5.140892 -15.432619 0 CFG=2
M  V30 7 O 10.576918 9.188025 -5.985592 0
M  V30 8 C 9.323997 5.989767 -12.578594 0
M  V30 9 C 8.036709 4.252722 -14.171757 0 CFG=2
M  V30 10 F 15.560794 4.200975 -18.177769 0
M  V30 11 O 10.485930 6.339361 -12.784951 0
M  V30 12 C 9.730375 8.390202 -6.385128 0
M  V30 13 C 12.165708 6.296665 -18.724026 0
M  V30 14 C 10.945319 4.675412 -16.278086 0
M  V30 15 O 14.998570 6.950145 -18.353635 0
M  V30 16 F 15.098003 1.875771 -19.506405 0
M  V30 17 C 10.119443 7.191262 -9.522312 0
M  V30 18 C 8.705598 8.160019 -11.583648 0
M  V30 19 F 15.004296 6.005262 -16.290833 0
M  V30 20 O 9.435690 6.169833 -9.453747 0
M  V30 21 C 14.306404 3.922086 -18.612609 0
M  V30 22 N 8.411692 6.795850 -12.012251 0
M  V30 23 C 14.227778 6.613000 -17.222374 0
M  V30 24 C 6.394623 5.712188 -15.528287 0
M  V30 25 O 8.713248 2.283056 -17.960584 0
M  V30 26 F 13.775688 7.767911 -16.674916 0
M  V30 27 C 12.995299 5.711051 -17.551732 0 CFG=2
M  V30 28 C 8.411886 4.453052 -16.755038 0 CFG=2
M  V30 29 C 10.087034 4.841302 -18.675820 0
M  V30 30 O 7.391518 4.674395 -12.967257 0
M  V30 31 C 8.328120 2.890882 -16.750032 0 CFG=1
M  V30 32 C 6.196709 6.938676 -14.608853 0
M  V30 33 C 5.894871 6.119316 -16.933484 0
M  V30 34 C 10.038118 6.899885 -6.460925 0
M  V30 35 C 8.821811 4.617560 -12.908360 0 CFG=2
M  V30 36 C 11.128830 5.374522 -19.337536 0
M  V30 37 C 14.178567 2.396346 -18.691661 0
M  V30 38 C 11.282165 6.598405 -7.319983 0
M  V30 39 C 12.112722 5.676011 -16.280818 0
M  V30 40 C 11.354706 7.374230 -8.653364 0
M  V30 41 H 10.717573 8.604923 -10.949478 0
M  V30 42 H 9.492043 9.190993 -9.862255 0
M  V30 43 H 9.669715 6.151474 -17.126172 0
M  V30 44 H 8.482399 6.014292 -15.265366 0
M  V30 45 H 7.838451 3.196976 -14.309528 0
M  V30 46 H 8.729226 8.681734 -6.701811 0
M  V30 47 H 11.680625 7.222710 -18.415311 0
M  V30 48 H 12.818309 6.581738 -19.548055 0
M  V30 49 H 10.575131 4.648653 -15.254980 0
M  V30 50 H 11.284233 3.662715 -16.499325 0
M  V30 51 H 14.914711 7.882068 -18.482695 0
M  V30 52 H 9.003261 8.747516 -12.450954 0
M  V30 53 H 7.772572 8.613304 -11.251224 0
M  V30 54 H 7.478551 6.441672 -11.852425 0
M  V30 55 H 5.727173 4.929594 -15.175427 0
M  V30 56 H 9.497602 1.780551 -17.803372 0
M  V30 57 H 7.775555 4.726271 -17.585985 0
M  V30 58 H 9.402625 4.207515 -19.215024 0
M  V30 59 H 8.975187 2.469547 -15.987603 0
M  V30 60 H 6.961238 7.696255 -14.787596 0
M  V30 61 H 5.232121 7.416609 -14.775837 0
M  V30 62 H 6.220520 6.680625 -13.553171 0
M  V30 63 H 6.586466 6.809615 -17.417926 0
M  V30 64 H 5.748705 5.256444 -17.584276 0
M  V30 65 H 4.922096 6.610359 -16.883348 0
M  V30 66 H 9.161104 6.405144 -6.879454 0
M  V30 67 H 10.162133 6.501133 -5.454146 0
M  V30 68 H 9.221999 3.802470 -12.309066 0
M  V30 69 H 11.253387 5.150186 -20.387588 0
M  V30 70 H 14.315560 1.938979 -17.710916 0
M  V30 71 H 13.200653 2.102339 -19.072801 0
M  V30 72 H 11.313191 5.528144 -7.516544 0
M  V30 73 H 12.175113 6.820965 -6.745325 0
M  V30 74 H 12.754853 5.447767 -15.433239 0
M  V30 75 H 11.716181 6.669209 -16.065638 0
M  V30 76 H 12.219161 7.088974 -9.244750 0
M  V30 77 H 11.478782 8.438286 -8.457644 0
M  V30 END ATOM
M  V30 BEGIN BOND
M  V30 1 1 9 6
M  V30 2 2 11 8
M  V30 3 2 12 7
M  V30 4 1 14 3
M  V30 5 1 17 1
M  V30 6 1 18 1
M  V30 7 2 20 17
M  V30 8 1 21 2
M  V30 9 1 21 4
M  V30 10 1 21 10
M  V30 11 1 22 8
M  V30 12 1 22 18
M  V30 13 1 23 15
M  V30 14 1 23 19
M  V30 15 1 24 6
M  V30 16 1 26 23
M  V30 17 1 27 4 CFG=3
M  V30 18 1 27 13
M  V30 19 1 27 23
M  V30 20 1 28 3
M  V30 21 1 28 6
M  V30 22 1 29 3
M  V30 23 1 30 9
M  V30 24 1 31 5
M  V30 25 1 31 25
M  V30 26 1 31 28
M  V30 27 1 32 24
M  V30 28 1 33 24
M  V30 29 1 34 12
M  V30 30 1 35 8
M  V30 31 1 35 9
M  V30 32 1 35 30
M  V30 33 1 36 13
M  V30 34 2 36 29
M  V30 35 1 37 16
M  V30 36 1 37 21
M  V30 37 1 38 34
M  V30 38 1 39 14
M  V30 39 1 39 27
M  V30 40 1 40 17
M  V30 41 1 40 38
M  V30 42 1 41 1
M  V30 43 1 42 1
M  V30 44 1 3 43 CFG=3
M  V30 45 1 6 44 CFG=1
M  V30 46 1 9 45 CFG=3
M  V30 47 1 46 12
M  V30 48 1 47 13
M  V30 49 1 48 13
M  V30 50 1 49 14
M  V30 51 1 50 14
M  V30 52 1 51 15
M  V30 53 1 52 18
M  V30 54 1 53 18
M  V30 55 1 54 22
M  V30 56 1 55 24
M  V30 57 1 56 25
M  V30 58 1 28 57 CFG=3
M  V30 59 1 58 29
M  V30 60 1 31 59 CFG=1
M  V30 61 1 60 32
M  V30 62 1 61 32
M  V30 63 1 62 32
M  V30 64 1 63 33
M  V30 65 1 64 33
M  V30 66 1 65 33
M  V30 67 1 66 34
M  V30 68 1 67 34
M  V30 69 1 35 68 CFG=1
M  V30 70 1 69 36
M  V30 71 1 70 37
M  V30 72 1 71 37
M  V30 73 1 72 38
M  V30 74 1 73 38
M  V30 75 1 74 39
M  V30 76 1 75 39
M  V30 77 1 76 40
M  V30 78 1 77 40
M  V30 END BOND
M  V30 END CTAB
M  END
>  <i_epik_Tot_Q>  (1) 
0

>  <i_epik_Tot_abs_Q>  (1) 
0

>  <i_i_glide_confnum>  (1) 
8078

>  <i_i_glide_lignum>  (1) 
44

>  <i_i_glide_posenum>  (1) 
24

>  <i_i_glide_rotatable_bonds>  (1) 
20

>  <i_lp_mmshare_version>  (1) 
72125

>  <i_m_source_file_index>  (1) 
10

>  <i_f3d_flags>  (1) 
0

>  <num_sample>  (1) 
50

>  <b_lp_Chiralities_Consistent>  (1) 
1

>  <r_epik_Charging_Adjusted_Penalty>  (1) 
0.024791601223723252

>  <r_epik_Ionization_Penalty>  (1) 
0.024829857689501161

>  <r_epik_Ionization_Penalty_Charging>  (1) 
0

>  <r_epik_Ionization_Penalty_Neutral>  (1) 
0.024829857689501161

>  <r_epik_State_Penalty>  (1) 
0.024791601223723252

>  <r_glide_ring_energy>  (1) 
0

>  <r_i_docking_score>  (1) 
-3.5264352875681335

>  <r_i_glide_ecoul>  (1) 
-1.8251083655706355

>  <r_i_glide_eff_state_penalty>  (1) 
0.024791601223723252

>  <r_i_glide_einternal>  (1) 
10.262395429874459

>  <r_i_glide_emodel>  (1) 
-34.611755668555574

>  <r_i_glide_emodel_strain>  (1) 
7.2404574320202002

>  <r_i_glide_energy>  (1) 
-37.386716966456476

>  <r_i_glide_erotb>  (1) 
0.79596426883134463

>  <r_i_glide_esite>  (1) 
-0.14719002261777622

>  <r_i_glide_evdw>  (1) 
-35.56160860088584

>  <r_i_glide_gscore>  (1) 
-3.5512268887918568

>  <r_i_glide_gscore_strain>  (1) 
0.81011435800505005

>  <r_i_glide_hbond>  (1) 
0

>  <r_i_glide_ligand_efficiency>  (1) 
-0.088160882189203343

>  <r_i_glide_ligand_efficiency_ln>  (1) 
-0.75208486848048628

>  <r_i_glide_ligand_efficiency_sa>  (1) 
-0.30150597596267154

>  <r_i_glide_lipo>  (1) 
-2.0275027678399327

>  <r_i_glide_metal>  (1) 
-0

>  <r_i_glide_rewards>  (1) 
-0.93076604029065535

>  <r_lp_Energy>  (1) 
20.029204999999997

>  <r_lp_tautomer_probability>  (1) 
0.99989996500775002

>  <s_epik_cmdline>  (1) 
J2VwaWtfcHl0aG9uJywgJy1waHQnLCAnMS4wJywgJy1waCcsICc3LjQnLCAnLXRuJywgJzgnLCAnLW1hJywgJzUwMCcsICctaW1hZScsICc8aW5maWxlLm1hZT4nLCAnLW9tYWUnLCAnPG91dGZpbGUubWFlPic=

>  <s_epik_input>  (1) 
Tz1bQ0hdW0NIMl1bQ0gyXVtDSDJdQyg9TylbQ0gyXVtDSDJdW05IXUMoPU8pW0NASF0xT1tDQEhdMVtDQEhdKFtDSF0oW0NIM10pW0NIM10pW0NASF0oW0NAQEhdKEYpW09IXSlbQ0BASF0oW0NIMl1bQ0gyXTIpW0NIXT1bQ0hdW0NIMl1bQ0BdMihDKEYpKEYpW09IXSlPQyhGKShGKVtDSDJdRg==

>  <s_glide_docking_method>  (1) 
confgen

>  <s_i_glide_gridfile>  (1) 
gpcr_drd2_6luq_protein_autoprepared_prepared

>  <s_lp_Force_Field>  (1) 
S-OPLS

>  <s_lp_Variant>  (1) 
DiffSBDD_9-1

>  <s_m_source_file>  (1) 
generated_generic_title2_ligand_DiffSBDD_2026-06-23_prepared.sdf

>  <GenAI_Model>  (1) 
DiffSBDD

>  <Protein>  (1) 
generic_title2

$$$$
DiffSBDD_13
     RDKit          3D

  0  0  0  0  0  0  0  0  0  0999 V3000
M  V30 BEGIN CTAB
M  V30 COUNTS 48 50 0 0 1
M  V30 BEGIN ATOM
M  V30 1 O 4.975413 7.990226 -11.585015 0
M  V30 2 C 5.780660 7.327103 -12.125519 0
M  V30 3 C 6.262205 0.363143 -19.729874 0
M  V30 4 F 10.175404 5.221950 -12.381553 0
M  V30 5 C 6.679254 3.185331 -19.052510 0
M  V30 6 F 8.972065 -1.783597 -17.185012 0
M  V30 7 C 6.688699 6.624767 -12.763420 0
M  V30 8 C 7.575019 0.580393 -16.271424 0
M  V30 9 C 8.429628 -1.000035 -18.115660 0
M  V30 10 C 6.573418 4.472049 -18.608528 0
M  V30 11 C 8.175410 5.190227 -9.879647 0
M  V30 12 F 8.053539 -1.785661 -19.124927 0
M  V30 13 C 6.542106 6.269175 -14.164696 0
M  V30 14 C 7.941241 6.185564 -11.986343 0 CFG=1
M  V30 15 C 7.309627 5.306166 -16.213458 0
M  V30 16 C 5.411603 1.460645 -20.375336 0
M  V30 17 C 7.463470 2.043042 -16.697569 0
M  V30 18 C 5.375430 3.847854 -21.210455 0
M  V30 19 N 7.564612 5.188800 -10.992112 0
M  V30 20 C 7.513767 5.638904 -14.845990 0
M  V30 21 C 8.765805 5.299414 -14.204944 0
M  V30 22 C 7.033391 4.912196 -17.335057 0
M  V30 23 C 7.320156 2.022404 -18.230907 0 CFG=1
M  V30 24 C 8.984765 5.550155 -12.903877 0
M  V30 25 F 9.378767 -0.171027 -18.549697 0
M  V30 26 C 7.208249 -0.246871 -17.509396 0 CFG=2
M  V30 27 C 6.187278 2.780783 -20.448759 0 CFG=1
M  V30 28 N 6.576948 0.766140 -18.365800 0
M  V30 29 H 5.706517 -0.575820 -19.716141 0
M  V30 30 H 7.173447 0.199938 -20.305789 0
M  V30 31 H 6.886566 0.369478 -15.451962 0
M  V30 32 H 8.575402 0.346329 -15.913115 0
M  V30 33 H 6.126121 5.223259 -19.238622 0
M  V30 34 H 7.920436 4.461313 -9.106384 0
M  V30 35 H 8.964418 5.919259 -9.674649 0
M  V30 36 H 5.620834 6.521764 -14.674158 0
M  V30 37 H 8.388825 7.075654 -11.534017 0
M  V30 38 H 4.483841 1.590217 -19.816319 0
M  V30 39 H 5.127750 1.151179 -21.380342 0
M  V30 40 H 6.575426 2.459492 -16.225197 0
M  V30 41 H 8.333328 2.611230 -16.368086 0
M  V30 42 H 5.965473 4.744990 -21.399561 0
M  V30 43 H 5.059157 3.471646 -22.183918 0
M  V30 44 H 4.475709 4.133170 -20.663905 0
M  V30 45 H 9.550199 4.838476 -14.788743 0
M  V30 46 H 8.307465 1.882296 -18.667856 0
M  V30 47 H 6.455155 -0.989299 -17.242016 0
M  V30 48 H 7.089183 2.591429 -21.033158 0
M  V30 END ATOM
M  V30 BEGIN BOND
M  V30 1 2 2 1
M  V30 2 2 7 2
M  V30 3 1 9 6
M  V30 4 2 10 5
M  V30 5 1 12 9
M  V30 6 1 13 7
M  V30 7 1 14 7
M  V30 8 1 16 3
M  V30 9 1 17 8
M  V30 10 2 19 11
M  V30 11 1 19 14
M  V30 12 2 20 13
M  V30 13 1 20 15
M  V30 14 1 21 20
M  V30 15 1 22 10
M  V30 16 3 22 15
M  V30 17 1 23 5
M  V30 18 1 23 17
M  V30 19 1 24 4
M  V30 20 1 24 14
M  V30 21 2 24 21
M  V30 22 1 25 9
M  V30 23 1 26 8
M  V30 24 1 26 9
M  V30 25 1 27 5
M  V30 26 1 27 16
M  V30 27 1 27 18
M  V30 28 1 28 3
M  V30 29 1 28 23
M  V30 30 1 28 26
M  V30 31 1 29 3
M  V30 32 1 30 3
M  V30 33 1 31 8
M  V30 34 1 32 8
M  V30 35 1 33 10
M  V30 36 1 34 11
M  V30 37 1 35 11
M  V30 38 1 36 13
M  V30 39 1 14 37 CFG=1
M  V30 40 1 38 16
M  V30 41 1 39 16
M  V30 42 1 40 17
M  V30 43 1 41 17
M  V30 44 1 42 18
M  V30 45 1 43 18
M  V30 46 1 44 18
M  V30 47 1 45 21
M  V30 48 1 23 46 CFG=3
M  V30 49 1 26 47 CFG=1
M  V30 50 1 27 48 CFG=3
M  V30 END BOND
M  V30 END CTAB
M  END
>  <i_epik_Tot_Q>  (1) 
0

>  <i_epik_Tot_abs_Q>  (1) 
0

>  <i_i_glide_confnum>  (1) 
1

>  <i_i_glide_lignum>  (1) 
51

>  <i_i_glide_posenum>  (1) 
63

>  <i_i_glide_rotatable_bonds>  (1) 
4

>  <i_lp_mmshare_version>  (1) 
72125

>  <i_m_source_file_index>  (1) 
14

>  <i_f3d_flags>  (1) 
0

>  <num_sample>  (1) 
50

>  <b_lp_Chiralities_Consistent>  (1) 
1

>  <r_epik_Charging_Adjusted_Penalty>  (1) 
0

>  <r_epik_Ionization_Penalty>  (1) 
0.00020645461892998548

>  <r_epik_Ionization_Penalty_Charging>  (1) 
0

>  <r_epik_Ionization_Penalty_Neutral>  (1) 
0.00020645461892998548

>  <r_epik_State_Penalty>  (1) 
-0

>  <r_glide_ring_energy>  (1) 
0

>  <r_i_docking_score>  (1) 
-3.5239752984589203

>  <r_i_glide_ecoul>  (1) 
0.24210676938853531

>  <r_i_glide_eff_state_penalty>  (1) 
-0

>  <r_i_glide_einternal>  (1) 
0.10712861212619806

>  <r_i_glide_emodel>  (1) 
-34.39701980277168

>  <r_i_glide_emodel_strain>  (1) 
0.039531360000943039

>  <r_i_glide_energy>  (1) 
-28.732197766604834

>  <r_i_glide_erotb>  (1) 
0.38039990127662543

>  <r_i_glide_esite>  (1) 
-0.10364389392791558

>  <r_i_glide_evdw>  (1) 
-28.974304535993369

>  <r_i_glide_gscore>  (1) 
-3.5239752984589203

>  <r_i_glide_gscore_strain>  (1) 
0

>  <r_i_glide_hbond>  (1) 
0

>  <r_i_glide_ligand_efficiency>  (1) 
-0.12585626065924715

>  <r_i_glide_ligand_efficiency_ln>  (1) 
-0.81343696729506487

>  <r_i_glide_ligand_efficiency_sa>  (1) 
-0.38217373315937875

>  <r_i_glide_lipo>  (1) 
-1.2805420712953259

>  <r_i_glide_metal>  (1) 
-0

>  <r_i_glide_rewards>  (1) 
-1.1077900231209159

>  <r_lp_Energy>  (1) 
25.917797999999998

>  <r_lp_tautomer_probability>  (1) 
1

>  <s_epik_Chemistry_Notes>  (1) 
This compound has an imine and may undergo hydrolysis.

>  <s_epik_cmdline>  (1) 
J2VwaWtfcHl0aG9uJywgJy1waHQnLCAnMS4wJywgJy1waCcsICc3LjQnLCAnLXRuJywgJzgnLCAnLW1hJywgJzUwMCcsICctaW1hZScsICc8aW5maWxlLm1hZT4nLCAnLW9tYWUnLCAnPG91dGZpbGUubWFlPic=

>  <s_epik_input>  (1) 
W0NIMl09TltDQEhdMUMoRik9W0NIXUMoPVtDSF1DMT1DPU8pQyNDL1tDSF09Q1wyW0NASF0oW0NIM10pW0NIMl1bQ0gyXU4oW0NAQEhdMjMpW0NAQEhdKEMoRikoRilGKVtDSDJdW0NIMl0z

>  <s_glide_docking_method>  (1) 
confgen

>  <s_i_glide_gridfile>  (1) 
gpcr_drd2_6luq_protein_autoprepared_prepared

>  <s_lp_Force_Field>  (1) 
S-OPLS

>  <s_lp_Variant>  (1) 
DiffSBDD_13-2

>  <s_m_source_file>  (1) 
generated_generic_title2_ligand_DiffSBDD_2026-06-23_prepared.sdf

>  <GenAI_Model>  (1) 
DiffSBDD

>  <Protein>  (1) 
generic_title2

$$$$
DiffSBDD_0
     RDKit          3D

  0  0  0  0  0  0  0  0  0  0999 V3000
M  V30 BEGIN CTAB
M  V30 COUNTS 70 74 0 0 1
M  V30 BEGIN ATOM
M  V30 1 C 9.252451 7.901479 -6.399260 0
M  V30 2 N 7.874819 3.951120 -13.802601 0
M  V30 3 C 7.344318 4.961254 -17.891375 0 CFG=1
M  V30 4 C 9.624917 4.629313 -12.202881 0
M  V30 5 F 11.775409 6.490570 -6.626887 0
M  V30 6 C 7.291171 5.281268 -14.043182 0
M  V30 7 C 9.309676 8.591518 -7.742400 0
M  V30 8 C 10.024314 6.732708 -11.211239 0
M  V30 9 C 10.813543 6.894832 -8.735871 0 CFG=1
M  V30 10 C 9.933451 4.512741 -18.165073 0
M  V30 11 C 7.410688 2.916529 -14.734089 0 CFG=1
M  V30 12 C 5.977991 0.275766 -14.097194 0
M  V30 13 C 8.548886 4.542165 -18.739976 0 CFG=1
M  V30 14 O 9.277399 5.951648 -12.140015 0
M  V30 15 C 10.756910 6.131912 -7.392534 0 CFG=2
M  V30 16 C 7.439717 3.550010 -18.433148 0 CFG=1
M  V30 17 N 7.304553 4.711450 -16.425121 0 CFG=1 CHG=1
M  V30 18 C 9.826788 6.260991 -9.752414 0
M  V30 19 C 7.318194 0.815983 -13.578146 0
M  V30 20 C 7.891100 3.397872 -16.107791 0 CFG=2
M  V30 21 O 6.175432 -0.409771 -15.317692 0
M  V30 22 C 10.620777 8.399770 -8.486364 0
M  V30 23 N 10.731564 3.405810 -18.203805 0
M  V30 24 C 7.664286 5.775303 -15.462523 0
M  V30 25 N 10.458787 5.590209 -17.585290 0
M  V30 26 O 11.729676 5.167740 -17.168144 0
M  V30 27 C 11.792029 3.885867 -17.574233 0
M  V30 28 O 7.952072 1.648722 -14.540034 0
M  V30 29 N 12.974092 3.235610 -17.263263 0
M  V30 30 C 8.975285 3.723673 -12.960322 0
M  V30 31 C 9.485748 6.405747 -6.570580 0
M  V30 32 C 14.167362 3.694458 -16.574950 0
M  V30 33 C 7.505076 2.535275 -17.303940 0
M  V30 34 H 9.984053 8.336007 -5.718388 0
M  V30 35 H 8.263904 8.082564 -5.985027 0
M  V30 36 H 6.569764 5.620200 -18.280094 0
M  V30 37 H 10.472829 4.390960 -11.585032 0
M  V30 38 H 6.207767 5.161623 -13.996719 0
M  V30 39 H 7.482313 6.041987 -13.297314 0
M  V30 40 H 8.975409 9.590231 -7.608458 0
M  V30 41 H 8.575411 8.173461 -8.384940 0
M  V30 42 H 11.075489 6.737102 -11.501029 0
M  V30 43 H 9.686823 7.764692 -11.305709 0
M  V30 44 H 11.808347 6.790221 -9.157536 0
M  V30 45 H 6.324145 2.883123 -14.687564 0
M  V30 46 H 5.242652 1.065397 -14.226554 0
M  V30 47 H 5.555718 -0.409766 -13.363849 0
M  V30 48 H 8.590314 4.926825 -19.756641 0
M  V30 49 H 10.887495 5.071756 -7.585028 0
M  V30 50 H 6.801333 3.273887 -19.270599 0
M  V30 51 H 8.783794 6.390223 -9.469221 0
M  V30 52 H 9.962307 5.184466 -9.684251 0
M  V30 53 H 7.175870 1.354719 -12.640909 0
M  V30 54 H 7.992595 -0.009690 -13.359117 0
M  V30 55 H 8.975269 3.474928 -16.046013 0
M  V30 56 H 6.812908 -1.098790 -15.184651 0
M  V30 57 H 11.445347 8.802307 -7.896841 0
M  V30 58 H 10.612704 8.951917 -9.425517 0
M  V30 59 H 7.120331 6.691715 -15.696606 0
M  V30 60 H 8.730861 5.990242 -15.523877 0
M  V30 61 H 13.012571 2.270724 -17.555014 0
M  V30 62 H 9.299945 2.694617 -12.960460 0
M  V30 63 H 9.570349 5.990228 -5.570350 0
M  V30 64 H 8.619065 5.946975 -7.047771 0
M  V30 65 H 14.743575 2.847326 -16.202991 0
M  V30 66 H 14.796446 4.270840 -17.252975 0
M  V30 67 H 13.902306 4.327693 -15.727200 0
M  V30 68 H 6.526447 2.072562 -17.169457 0
M  V30 69 H 8.233617 1.750921 -17.510679 0
M  V30 70 H 6.319943 4.574543 -16.252640 0
M  V30 END ATOM
M  V30 BEGIN BOND
M  V30 1 1 6 2
M  V30 2 1 7 1
M  V30 3 1 11 2
M  V30 4 1 13 3
M  V30 5 1 13 10
M  V30 6 1 14 4
M  V30 7 1 14 8
M  V30 8 1 15 5
M  V30 9 1 15 9
M  V30 10 1 16 3
M  V30 11 1 16 13
M  V30 12 1 17 3
M  V30 13 1 18 8
M  V30 14 1 18 9
M  V30 15 1 19 12
M  V30 16 1 20 11
M  V30 17 1 20 17
M  V30 18 1 21 12
M  V30 19 1 22 7
M  V30 20 1 22 9
M  V30 21 1 23 10
M  V30 22 1 24 6
M  V30 23 1 24 17
M  V30 24 2 25 10
M  V30 25 1 26 25
M  V30 26 2 27 23
M  V30 27 1 27 26
M  V30 28 1 28 11
M  V30 29 1 28 19
M  V30 30 1 29 27
M  V30 31 1 30 2
M  V30 32 2 30 4
M  V30 33 1 31 1
M  V30 34 1 31 15
M  V30 35 1 32 29
M  V30 36 1 33 16
M  V30 37 1 33 20
M  V30 38 1 34 1
M  V30 39 1 35 1
M  V30 40 1 3 36 CFG=3
M  V30 41 1 37 4
M  V30 42 1 38 6
M  V30 43 1 39 6
M  V30 44 1 40 7
M  V30 45 1 41 7
M  V30 46 1 42 8
M  V30 47 1 43 8
M  V30 48 1 9 44 CFG=3
M  V30 49 1 11 45 CFG=3
M  V30 50 1 46 12
M  V30 51 1 47 12
M  V30 52 1 13 48 CFG=3
M  V30 53 1 15 49 CFG=3
M  V30 54 1 16 50 CFG=3
M  V30 55 1 51 18
M  V30 56 1 52 18
M  V30 57 1 53 19
M  V30 58 1 54 19
M  V30 59 1 20 55 CFG=1
M  V30 60 1 56 21
M  V30 61 1 57 22
M  V30 62 1 58 22
M  V30 63 1 59 24
M  V30 64 1 60 24
M  V30 65 1 61 29
M  V30 66 1 62 30
M  V30 67 1 63 31
M  V30 68 1 64 31
M  V30 69 1 65 32
M  V30 70 1 66 32
M  V30 71 1 67 32
M  V30 72 1 68 33
M  V30 73 1 69 33
M  V30 74 1 17 70 CFG=1
M  V30 END BOND
M  V30 END CTAB
M  END
>  <i_epik_Tot_Q>  (1) 
1

>  <i_epik_Tot_abs_Q>  (1) 
1

>  <i_i_glide_confnum>  (1) 
605

>  <i_i_glide_lignum>  (1) 
8

>  <i_i_glide_posenum>  (1) 
330

>  <i_i_glide_rotatable_bonds>  (1) 
11

>  <i_lp_mmshare_version>  (1) 
72125

>  <i_m_source_file_index>  (1) 
1

>  <i_f3d_flags>  (1) 
0

>  <num_sample>  (1) 
50

>  <b_lp_Chiralities_Consistent>  (1) 
1

>  <r_epik_Charging_Adjusted_Penalty>  (1) 
0.41344222577729461

>  <r_epik_Ionization_Penalty>  (1) 
0.0027644559619576371

>  <r_epik_Ionization_Penalty_Charging>  (1) 
0.0027623868246906495

>  <r_epik_Ionization_Penalty_Neutral>  (1) 
2.0691372669875143e-06

>  <r_epik_State_Penalty>  (1) 
0.41067983895260396

>  <r_glide_ring_energy>  (1) 
1.2880141380397463

>  <r_i_docking_score>  (1) 
-3.5027169528323054

>  <r_i_glide_ecoul>  (1) 
-1.6847813485847514

>  <r_i_glide_eff_state_penalty>  (1) 
0.41067983895260396

>  <r_i_glide_einternal>  (1) 
5.1782218889130727

>  <r_i_glide_emodel>  (1) 
-36.691051882962881

>  <r_i_glide_emodel_strain>  (1) 
0.43930669879101458

>  <r_i_glide_energy>  (1) 
-31.159848587816022

>  <r_i_glide_erotb>  (1) 
0.74142510397790429

>  <r_i_glide_esite>  (1) 
0

>  <r_i_glide_evdw>  (1) 
-29.475067239231272

>  <r_i_glide_gscore>  (1) 
-3.9133967917849093

>  <r_i_glide_gscore_strain>  (1) 
0

>  <r_i_glide_hbond>  (1) 
-0.31265643798100917

>  <r_i_glide_ligand_efficiency>  (1) 
-0.10614293796461531

>  <r_i_glide_ligand_efficiency_ln>  (1) 
-0.77898611421214603

>  <r_i_glide_ligand_efficiency_sa>  (1) 
-0.34045711740812101

>  <r_i_glide_lipo>  (1) 
-1.3410521032455074

>  <r_i_glide_metal>  (1) 
-0

>  <r_i_glide_rewards>  (1) 
-1.2746427902870203

>  <r_lp_Energy>  (1) 
51.448637999999995

>  <r_lp_tautomer_probability>  (1) 
0.5

>  <s_epik_Chemistry_Notes>  (1) 
This compound has an imine and may undergo hydrolysis. This compound contains an acetal/aminal-like group ( X-CH(R)-Y where X, Y are N, S, or O) that may be acid/base labile, releasing an aldehyde.

>  <s_epik_cmdline>  (1) 
J2VwaWtfcHl0aG9uJywgJy1waHQnLCAnMS4wJywgJy1waCcsICc3LjQnLCAnLXRuJywgJzgnLCAnLW1hJywgJzUwMCcsICctaW1hZScsICc8aW5maWxlLm1hZT4nLCAnLW9tYWUnLCAnPG91dGZpbGUubWFlPic=

>  <s_epik_input>  (1) 
W0NIMl0xW0NIMl1bQ0gyXVtDSDJdW0NASF0oRilbQ0BIXTFbQ0gyXVtDSDJdTy9bQ0hdPVtDSF1cTihbQ0BIXTJPW0NIMl1bQ0gyXVtPSF0pW0NIMl1bQ0gyXU4zW0NAQEhdMltDSDJdW0NAQEhdKFtDQEBIXTM0KVtDQEBIXTRjNW5jKG9uNSlbTkhdW0NIM10=

>  <s_glide_docking_method>  (1) 
confgen

>  <s_i_glide_gridfile>  (1) 
gpcr_drd2_6luq_protein_autoprepared_prepared

>  <s_lp_Force_Field>  (1) 
S-OPLS

>  <s_lp_Variant>  (1) 
DiffSBDD_0-8

>  <s_m_source_file>  (1) 
generated_generic_title2_ligand_DiffSBDD_2026-06-23_prepared.sdf

>  <GenAI_Model>  (1) 
DiffSBDD

>  <Protein>  (1) 
generic_title2

$$$$
DiffSBDD_4
     RDKit          3D

  0  0  0  0  0  0  0  0  0  0999 V3000
M  V30 BEGIN CTAB
M  V30 COUNTS 69 73 0 0 1
M  V30 BEGIN ATOM
M  V30 1 O 10.978569 4.961753 -15.985079 0
M  V30 2 C 6.519091 8.083053 -20.696686 0
M  V30 3 C 7.922731 4.128515 -22.022088 0
M  V30 4 C 13.304812 4.968658 -18.156670 0
M  V30 5 C 10.212704 3.133762 -19.738404 0
M  V30 6 C 7.888263 3.908175 -20.488203 0 CFG=2
M  V30 7 C 7.086813 5.397216 -22.305313 0
M  V30 8 C 15.683349 5.226415 -16.641073 0
M  V30 9 C 12.816344 7.966619 -19.118289 0
M  V30 10 C 13.258868 5.502494 -16.820873 0
M  V30 11 O 6.174636 11.590227 -23.195155 0
M  V30 12 F 4.048281 10.866804 -23.986023 0
M  V30 13 C 11.706353 7.250365 -19.900105 0
M  V30 14 C 6.135407 5.538632 -21.130988 0 CFG=2
M  V30 15 C 4.359475 8.429173 -22.581148 0
M  V30 16 C 6.684490 9.021165 -21.906639 0 CFG=2
M  V30 17 C 5.322845 4.355130 -20.638714 0
M  V30 18 C 11.052598 5.996290 -19.255183 0 CFG=1
M  V30 19 C 5.518552 6.921940 -20.915452 0 CFG=2
M  V30 20 C 9.881984 5.569491 -20.171304 0
M  V30 21 C 14.551253 4.575911 -18.697845 0
M  V30 22 C 12.033640 4.797208 -19.023458 0 CFG=2
M  V30 23 C 11.359226 3.428418 -18.764588 0
M  V30 24 C 14.456470 5.621939 -16.081638 0
M  V30 25 F 7.538209 9.982050 -21.555095 0
M  V30 26 N 5.357859 10.447490 -23.525731 0
M  V30 27 C 4.457740 7.245149 -21.954922 0
M  V30 28 C 15.730706 4.706494 -17.944065 0
M  V30 29 C 5.309202 9.592642 -22.339189 0 CFG=1
M  V30 30 C 6.666010 4.675591 -20.023640 0 CFG=1
M  V30 31 C 11.950161 5.958604 -16.175439 0
M  V30 32 C 9.184007 4.273426 -19.712504 0 CFG=2
M  V30 33 H 11.299538 4.391189 -15.295797 0
M  V30 34 H 7.482452 7.714094 -20.356119 0
M  V30 35 H 6.138149 8.692495 -19.878456 0
M  V30 36 H 7.437910 3.278717 -22.505656 0
M  V30 37 H 8.927088 4.179661 -22.440937 0
M  V30 38 H 10.601470 2.997355 -20.748260 0
M  V30 39 H 9.744798 2.189962 -19.457019 0
M  V30 40 H 7.675502 2.855915 -20.293223 0
M  V30 41 H 7.747483 6.261655 -22.352102 0
M  V30 42 H 6.541274 5.337586 -23.246986 0
M  V30 43 H 16.592484 5.325137 -16.066717 0
M  V30 44 H 13.053521 8.920237 -19.587679 0
M  V30 45 H 13.742119 7.395287 -19.096335 0
M  V30 46 H 12.523137 8.178705 -18.093922 0
M  V30 47 H 7.013302 11.335895 -23.562998 0
M  V30 48 H 10.921578 7.985299 -20.084652 0
M  V30 49 H 12.097814 6.989357 -20.884058 0
M  V30 50 H 3.570498 8.584968 -23.302439 0
M  V30 51 H 7.148750 8.490534 -22.737769 0
M  V30 52 H 4.440275 4.550583 -20.032996 0
M  V30 53 H 5.247944 3.482348 -21.284888 0
M  V30 54 H 10.560130 6.279052 -18.334140 0
M  V30 55 H 4.961705 6.845608 -19.980153 0
M  V30 56 H 9.154710 6.374574 -20.212351 0
M  V30 57 H 10.255901 5.448393 -21.188084 0
M  V30 58 H 14.600287 4.172131 -19.698343 0
M  V30 59 H 12.445155 4.668029 -20.025473 0
M  V30 60 H 12.106323 2.639423 -18.856439 0
M  V30 61 H 10.979906 3.345459 -17.752356 0
M  V30 62 H 14.431918 6.023056 -15.079635 0
M  V30 63 H 3.747410 6.463157 -22.178988 0
M  V30 64 H 16.676024 4.405509 -18.369751 0
M  V30 65 H 4.886982 10.184165 -21.525667 0
M  V30 66 H 6.664857 5.063063 -19.006102 0
M  V30 67 H 12.180591 6.319806 -15.173350 0
M  V30 68 H 11.545222 6.837111 -16.657829 0
M  V30 69 H 8.892822 4.405018 -18.668480 0
M  V30 END ATOM
M  V30 BEGIN BOND
M  V30 1 1 6 3
M  V30 2 1 7 3
M  V30 3 1 10 4
M  V30 4 1 13 9
M  V30 5 1 14 7 CFG=3
M  V30 6 1 16 2
M  V30 7 1 17 14
M  V30 8 1 18 13
M  V30 9 1 19 2
M  V30 10 1 19 14
M  V30 11 1 20 18
M  V30 12 2 21 4
M  V30 13 1 22 4
M  V30 14 1 22 18
M  V30 15 1 23 5
M  V30 16 1 23 22
M  V30 17 1 24 8
M  V30 18 2 24 10
M  V30 19 1 25 16
M  V30 20 1 26 11
M  V30 21 1 26 12
M  V30 22 2 27 15
M  V30 23 1 27 19
M  V30 24 2 28 8
M  V30 25 1 28 21
M  V30 26 1 29 15
M  V30 27 1 29 16
M  V30 28 1 29 26
M  V30 29 1 30 6
M  V30 30 1 30 14
M  V30 31 1 30 17
M  V30 32 1 31 1
M  V30 33 1 31 10
M  V30 34 1 32 5
M  V30 35 1 32 6
M  V30 36 1 32 20
M  V30 37 1 33 1
M  V30 38 1 34 2
M  V30 39 1 35 2
M  V30 40 1 36 3
M  V30 41 1 37 3
M  V30 42 1 38 5
M  V30 43 1 39 5
M  V30 44 1 6 40 CFG=3
M  V30 45 1 41 7
M  V30 46 1 42 7
M  V30 47 1 43 8
M  V30 48 1 44 9
M  V30 49 1 45 9
M  V30 50 1 46 9
M  V30 51 1 47 11
M  V30 52 1 48 13
M  V30 53 1 49 13
M  V30 54 1 50 15
M  V30 55 1 16 51 CFG=3
M  V30 56 1 52 17
M  V30 57 1 53 17
M  V30 58 1 18 54 CFG=1
M  V30 59 1 19 55 CFG=1
M  V30 60 1 56 20
M  V30 61 1 57 20
M  V30 62 1 58 21
M  V30 63 1 22 59 CFG=3
M  V30 64 1 60 23
M  V30 65 1 61 23
M  V30 66 1 62 24
M  V30 67 1 63 27
M  V30 68 1 64 28
M  V30 69 1 29 65 CFG=1
M  V30 70 1 30 66 CFG=1
M  V30 71 1 67 31
M  V30 72 1 68 31
M  V30 73 1 32 69 CFG=1
M  V30 END BOND
M  V30 END CTAB
M  END
>  <i_epik_Tot_Q>  (1) 
0

>  <i_epik_Tot_abs_Q>  (1) 
0

>  <i_i_glide_confnum>  (1) 
5

>  <i_i_glide_lignum>  (1) 
27

>  <i_i_glide_posenum>  (1) 
257

>  <i_i_glide_rotatable_bonds>  (1) 
8

>  <i_lp_mmshare_version>  (1) 
72125

>  <i_m_source_file_index>  (1) 
5

>  <i_f3d_flags>  (1) 
0

>  <num_sample>  (1) 
50

>  <b_lp_Chiralities_Consistent>  (1) 
1

>  <r_epik_Charging_Adjusted_Penalty>  (1) 
0

>  <r_epik_Ionization_Penalty>  (1) 
0.0023293269725234308

>  <r_epik_Ionization_Penalty_Charging>  (1) 
0

>  <r_epik_Ionization_Penalty_Neutral>  (1) 
0.0023293269725234308

>  <r_epik_State_Penalty>  (1) 
-0

>  <r_glide_ring_energy>  (1) 
0

>  <r_i_docking_score>  (1) 
-3.500972886006898

>  <r_i_glide_ecoul>  (1) 
-5.9064402861349175

>  <r_i_glide_eff_state_penalty>  (1) 
-0

>  <r_i_glide_einternal>  (1) 
4.591548374608732

>  <r_i_glide_emodel>  (1) 
-29.703126297513812

>  <r_i_glide_emodel_strain>  (1) 
0.36869156440475592

>  <r_i_glide_energy>  (1) 
-28.163577387636831

>  <r_i_glide_erotb>  (1) 
0.50387134536734435

>  <r_i_glide_esite>  (1) 
-0.080068413816540632

>  <r_i_glide_evdw>  (1) 
-22.257137101501915

>  <r_i_glide_gscore>  (1) 
-3.500972886006898

>  <r_i_glide_gscore_strain>  (1) 
0

>  <r_i_glide_hbond>  (1) 
-0.32000000000000001

>  <r_i_glide_ligand_efficiency>  (1) 
-0.10940540268771556

>  <r_i_glide_ligand_efficiency_ln>  (1) 
-0.78396326209349165

>  <r_i_glide_ligand_efficiency_sa>  (1) 
-0.34734050263496841

>  <r_i_glide_lipo>  (1) 
-1.1471023264878375

>  <r_i_glide_metal>  (1) 
-0

>  <r_i_glide_rewards>  (1) 
-0.45885059307453058

>  <r_lp_Energy>  (1) 
42.803042999999995

>  <r_lp_tautomer_probability>  (1) 
1

>  <s_epik_Chemistry_Notes>  (1) 
This compound has a N-S or N-O group and may undergo hydrolysis at high or low pH.

>  <s_epik_cmdline>  (1) 
J2VwaWtfcHl0aG9uJywgJy1waHQnLCAnMS4wJywgJy1waCcsICc3LjQnLCAnLXRuJywgJzgnLCAnLW1hJywgJzUwMCcsICctaW1hZScsICc8aW5maWxlLm1hZT4nLCAnLW9tYWUnLCAnPG91dGZpbGUubWFlPic=

>  <s_epik_input>  (1) 
W2NIXTFbY0hdW2NIXVtjSF1jKFtDSDJdW09IXSljMVtDQEhdMltDSDJdW0NIMl1bQ0BASF0oW0NIMl1bQ0BASF0yW0NIMl1bQ0gzXSlbQ0BIXShbQ0gyXVtDSDJdMylbQ0hdKFtDSDJdNClbQ0BdMzRbQ0BIXShbQ0gyXVtDQEBIXTVGKVtDSF09W0NIXVtDQEBIXTVOKEYpW09IXQ==

>  <s_glide_docking_method>  (1) 
confgen

>  <s_i_glide_gridfile>  (1) 
gpcr_drd2_6luq_protein_autoprepared_prepared

>  <s_lp_Force_Field>  (1) 
S-OPLS

>  <s_lp_Variant>  (1) 
DiffSBDD_4-1

>  <s_m_source_file>  (1) 
generated_generic_title2_ligand_DiffSBDD_2026-06-23_prepared.sdf

>  <GenAI_Model>  (1) 
DiffSBDD

>  <Protein>  (1) 
generic_title2

$$$$
DiffSBDD_28
     RDKit          3D

  0  0  0  0  0  0  0  0  0  0999 V3000
M  V30 BEGIN CTAB
M  V30 COUNTS 79 86 0 0 1
M  V30 BEGIN ATOM
M  V30 1 F 8.547261 -2.029029 -23.597742 0
M  V30 2 C 7.258923 5.501184 -11.482632 0 CFG=1
M  V30 3 C 7.044893 3.534018 -14.739646 0 CFG=2
M  V30 4 C 9.685605 6.951291 -11.318755 0 CFG=2
M  V30 5 C 8.667672 0.786210 -18.696261 0 CFG=1
M  V30 6 C 6.356249 6.639885 -11.991229 0
M  V30 7 C 7.651350 2.446706 -16.878066 0 CFG=2
M  V30 8 C 7.729877 -1.906316 -20.469426 0 CFG=1
M  V30 9 C 6.589599 2.520184 -13.689191 0
M  V30 10 C 7.427834 -0.106211 -18.702933 0 CFG=1
M  V30 11 C 8.398249 5.247512 -9.602378 0 CFG=1
M  V30 12 C 8.946141 4.241434 -15.801984 0
M  V30 13 C 8.604595 5.975659 -10.902873 0 CFG=1
M  V30 14 O 8.575397 5.990227 -8.422376 0
M  V30 15 C 9.114241 -1.270875 -22.589949 0 CFG=1
M  V30 16 C 8.794296 1.993590 -17.784759 0 CFG=1
M  V30 17 O 9.407828 0.745298 -17.465370 0
M  V30 18 N 8.112823 3.060903 -15.617879 0
M  V30 19 O 11.926692 7.734338 -10.785005 0
M  V30 20 C 9.022782 0.182007 -22.849186 0
M  V30 21 O 9.775404 5.554688 -11.610561 0
M  V30 22 C 6.255977 0.615779 -17.998951 0
M  V30 23 C 6.979762 4.940036 -10.067875 0
M  V30 24 N 7.409534 4.381870 -12.478346 0 CFG=1 CHG=1
M  V30 25 C 10.633885 7.503223 -10.263436 0
M  V30 26 N 6.736553 -2.608457 -21.318724 0 CHG=1
M  V30 27 C 6.682871 1.258827 -16.675019 0
M  V30 28 C 5.654646 -1.664550 -21.627989 0
M  V30 29 C 5.685973 -0.681123 -20.470841 0
M  V30 30 O 8.520187 0.927479 -22.009614 0
M  V30 31 C 9.001467 4.905521 -14.424802 0
M  V30 32 C 9.115669 -1.794803 -21.154669 0
M  V30 33 O 10.217426 -0.361497 -22.926676 0
M  V30 34 N 7.115886 -0.595783 -20.088398 0 CFG=2 CHG=1
M  V30 35 C 6.297224 3.396664 -12.486479 0
M  V30 36 C 12.776784 8.390272 -9.859338 0
M  V30 37 C 7.569373 4.730517 -13.921918 0 CFG=1
M  V30 38 H 6.192805 3.890619 -15.315343 0
M  V30 39 H 9.496140 7.584572 -12.182451 0
M  V30 40 H 9.313300 0.751679 -19.568335 0
M  V30 41 H 5.949767 7.244292 -11.185039 0
M  V30 42 H 6.890983 7.315498 -12.658684 0
M  V30 43 H 5.484355 6.262939 -12.525631 0
M  V30 44 H 7.105862 3.206994 -17.438951 0
M  V30 45 H 7.843849 -2.527018 -19.579154 0
M  V30 46 H 7.401667 1.832339 -13.445473 0
M  V30 47 H 5.735385 1.917976 -13.984392 0
M  V30 48 H 7.660822 -0.969350 -18.076984 0
M  V30 49 H 9.006001 4.350939 -9.548760 0
M  V30 50 H 9.941938 3.990205 -16.168138 0
M  V30 51 H 8.487657 4.921049 -16.522502 0
M  V30 52 H 7.976468 6.735515 -8.495265 0
M  V30 53 H 9.487935 2.767378 -18.106979 0
M  V30 54 H 5.454588 -0.088336 -17.776494 0
M  V30 55 H 5.831536 1.386930 -18.643110 0
M  V30 56 H 6.693027 3.904392 -9.931932 0
M  V30 57 H 6.255753 5.590217 -9.585023 0
M  V30 58 H 10.209052 8.430913 -9.876562 0
M  V30 59 H 10.726170 6.804017 -9.433145 0
M  V30 60 H 6.345912 -3.375616 -20.787095 0
M  V30 61 H 7.128527 0.507795 -16.020046 0
M  V30 62 H 5.775436 1.590242 -16.186949 0
M  V30 63 H 4.692032 -2.166191 -21.734866 0
M  V30 64 H 5.878176 -1.151324 -22.565044 0
M  V30 65 H 5.086833 -1.103169 -19.663454 0
M  V30 66 H 5.270138 0.291515 -20.737381 0
M  V30 67 H 9.722606 4.389826 -13.792471 0
M  V30 68 H 9.284152 5.952512 -14.470465 0
M  V30 69 H 9.786674 -1.190268 -20.544792 0
M  V30 70 H 9.580372 -2.781445 -21.182841 0
M  V30 71 H 6.175406 2.787654 -11.595002 0
M  V30 72 H 5.350579 3.918540 -12.634220 0
M  V30 73 H 13.775819 8.489497 -10.283599 0
M  V30 74 H 12.405283 9.389934 -9.631471 0
M  V30 75 H 12.863343 7.829849 -8.927923 0
M  V30 76 H 6.975336 5.595441 -14.213488 0
M  V30 77 H 8.241254 3.870537 -12.214561 0
M  V30 78 H 7.146912 -2.973531 -22.168770 0
M  V30 79 H 7.506006 0.100924 -20.716188 0
M  V30 END ATOM
M  V30 BEGIN BOND
M  V30 1 1 2 6 CFG=3
M  V30 2 1 9 3
M  V30 3 1 10 5
M  V30 4 1 13 2
M  V30 5 1 13 4
M  V30 6 1 13 11
M  V30 7 1 14 11
M  V30 8 1 15 1 CFG=3
M  V30 9 1 16 5
M  V30 10 1 16 7
M  V30 11 1 17 5
M  V30 12 1 17 16
M  V30 13 1 18 3
M  V30 14 1 18 7
M  V30 15 1 18 12
M  V30 16 1 20 15
M  V30 17 1 21 4
M  V30 18 1 13 21 CFG=3
M  V30 19 1 22 10
M  V30 20 1 23 2
M  V30 21 1 23 11
M  V30 22 1 24 2
M  V30 23 1 25 4
M  V30 24 1 25 19
M  V30 25 1 26 8
M  V30 26 1 27 7
M  V30 27 1 27 22
M  V30 28 1 28 26
M  V30 29 1 29 28
M  V30 30 2 30 20
M  V30 31 1 31 12
M  V30 32 1 32 8
M  V30 33 1 32 15
M  V30 34 1 33 15
M  V30 35 1 33 20
M  V30 36 1 34 8
M  V30 37 1 34 10
M  V30 38 1 34 29
M  V30 39 1 35 9
M  V30 40 1 35 24
M  V30 41 1 36 19
M  V30 42 1 37 3
M  V30 43 1 37 24
M  V30 44 1 37 31
M  V30 45 1 3 38 CFG=3
M  V30 46 1 4 39 CFG=3
M  V30 47 1 5 40 CFG=3
M  V30 48 1 41 6
M  V30 49 1 42 6
M  V30 50 1 43 6
M  V30 51 1 7 44 CFG=3
M  V30 52 1 8 45 CFG=1
M  V30 53 1 46 9
M  V30 54 1 47 9
M  V30 55 1 10 48 CFG=1
M  V30 56 1 11 49 CFG=1
M  V30 57 1 50 12
M  V30 58 1 51 12
M  V30 59 1 52 14
M  V30 60 1 16 53 CFG=3
M  V30 61 1 54 22
M  V30 62 1 55 22
M  V30 63 1 56 23
M  V30 64 1 57 23
M  V30 65 1 58 25
M  V30 66 1 59 25
M  V30 67 1 60 26
M  V30 68 1 61 27
M  V30 69 1 62 27
M  V30 70 1 63 28
M  V30 71 1 64 28
M  V30 72 1 65 29
M  V30 73 1 66 29
M  V30 74 1 67 31
M  V30 75 1 68 31
M  V30 76 1 69 32
M  V30 77 1 70 32
M  V30 78 1 71 35
M  V30 79 1 72 35
M  V30 80 1 73 36
M  V30 81 1 74 36
M  V30 82 1 75 36
M  V30 83 1 37 76 CFG=3
M  V30 84 1 24 77 CFG=1
M  V30 85 1 78 26
M  V30 86 1 34 79 CFG=3
M  V30 END BOND
M  V30 END CTAB
M  END
>  <i_epik_Tot_Q>  (1) 
3

>  <i_epik_Tot_abs_Q>  (1) 
3

>  <i_i_glide_confnum>  (1) 
1

>  <i_i_glide_lignum>  (1) 
84

>  <i_i_glide_posenum>  (1) 
337

>  <i_i_glide_rotatable_bonds>  (1) 
8

>  <i_lp_mmshare_version>  (1) 
72125

>  <i_m_source_file_index>  (1) 
29

>  <i_f3d_flags>  (1) 
0

>  <num_sample>  (1) 
50

>  <b_lp_Chiralities_Consistent>  (1) 
1

>  <r_epik_Charging_Adjusted_Penalty>  (1) 
2.5479580004866769

>  <r_epik_Ionization_Penalty>  (1) 
1.853674345886815

>  <r_epik_Ionization_Penalty_Charging>  (1) 
1.8530809818743854

>  <r_epik_Ionization_Penalty_Neutral>  (1) 
0.00059336401242958479

>  <r_epik_State_Penalty>  (1) 
0.69487701861229134

>  <r_glide_ring_energy>  (1) 
0.81914574756083292

>  <r_i_docking_score>  (1) 
-3.4967351794603454

>  <r_i_glide_ecoul>  (1) 
-11.465691744400418

>  <r_i_glide_eff_state_penalty>  (1) 
0.69487701861229134

>  <r_i_glide_einternal>  (1) 
7.233875426249714

>  <r_i_glide_emodel>  (1) 
-35.500842138375958

>  <r_i_glide_emodel_strain>  (1) 
2.9044425423812186

>  <r_i_glide_energy>  (1) 
-34.216736303003991

>  <r_i_glide_erotb>  (1) 
0.44698704239028575

>  <r_i_glide_esite>  (1) 
0

>  <r_i_glide_evdw>  (1) 
-22.751044558603574

>  <r_i_glide_gscore>  (1) 
-4.1916121980726366

>  <r_i_glide_gscore_strain>  (1) 
0

>  <r_i_glide_hbond>  (1) 
-0.23810961272316433

>  <r_i_glide_ligand_efficiency>  (1) 
-0.094506356201630962

>  <r_i_glide_ligand_efficiency_ln>  (1) 
-0.75835988532163479

>  <r_i_glide_ligand_efficiency_sa>  (1) 
-0.31491614525451078

>  <r_i_glide_lipo>  (1) 
-1.0051944487533855

>  <r_i_glide_metal>  (1) 
-0

>  <r_i_glide_rewards>  (1) 
-0.53788918939613117

>  <r_lp_Energy>  (1) 
62.908856

>  <s_epik_Chemistry_Notes>  (1) 
This compound has an ester and may undergo hydrolysis at high or low pH. This compound contains an acetal/aminal-like group ( X-CH(R)-Y where X, Y are N, S, or O) that may be acid/base labile, releasing an aldehyde.

>  <s_epik_cmdline>  (1) 
J2VwaWtfcHl0aG9uJywgJy1waHQnLCAnMS4wJywgJy1waCcsICc3LjQnLCAnLXRuJywgJzgnLCAnLW1hJywgJzUwMCcsICctaW1hZScsICc8aW5maWxlLm1hZT4nLCAnLW9tYWUnLCAnPG91dGZpbGUubWFlPic=

>  <s_epik_input>  (1) 
Tz1DKE8xKUMxKEYpW0NIMl1bQ0BASF0yW05IXVtDSDJdW0NIMl1OMltDQEBIXTNbQ0gyXVtDSDJdW0NASF0oW0NAQEhdKE80KVtDQEhdMzQpTjVbQ0gyXVtDSDJdW0NAQEhdKFtDQEhdNTYpTihbQ0gyXVtDSDJdNilbQ0BAXShbQ0gzXSkoW0NIMl1bQ0BASF03W09IXSlbQ0BAXTc4W0NASF0oTzgpW0NIMl1PW0NIM10=

>  <s_glide_docking_method>  (1) 
confgen

>  <s_i_glide_gridfile>  (1) 
gpcr_drd2_6luq_protein_autoprepared_prepared

>  <s_lp_Force_Field>  (1) 
S-OPLS

>  <s_lp_Variant>  (1) 
DiffSBDD_28-7

>  <s_m_source_file>  (1) 
generated_generic_title2_ligand_DiffSBDD_2026-06-23_prepared.sdf

>  <GenAI_Model>  (1) 
DiffSBDD

>  <Protein>  (1) 
generic_title2

$$$$
DiffSBDD_48
     RDKit          3D

  0  0  0  0  0  0  0  0  0  0999 V3000
M  V30 BEGIN CTAB
M  V30 COUNTS 43 43 0 0 1
M  V30 BEGIN ATOM
M  V30 1 C 8.154851 4.758909 -13.872631 0 CFG=2
M  V30 2 C 9.775470 7.417836 -7.952634 0
M  V30 3 C 8.175633 5.541222 -12.529714 0 CFG=2
M  V30 4 C 9.375453 5.848069 -10.262679 0
M  V30 5 O 11.375337 5.990138 -16.224984 0 CHG=-1
M  V30 6 O 5.775415 3.269643 -13.185010 0
M  V30 7 F 10.370045 7.590133 -11.573748 0
M  V30 8 C 9.198045 5.045547 -16.011814 0
M  V30 9 C 8.975192 5.362784 -8.999355 0
M  V30 10 C 8.124472 3.214532 -13.747559 0
M  V30 11 C 6.795656 2.593411 -13.296668 0
M  V30 12 C 9.187353 4.988906 -11.506323 0
M  V30 13 C 10.550517 5.190215 -16.720269 0
M  V30 14 C 5.666871 7.071808 -13.399193 0
M  V30 15 C 10.175410 7.904889 -9.211912 0
M  V30 16 C 6.784304 1.088059 -13.002875 0
M  V30 17 O 10.727593 4.498743 -17.747662 0
M  V30 18 O 9.329040 5.124091 -14.592961 0
M  V30 19 O 8.059030 0.497507 -13.185035 0
M  V30 20 C 6.176237 6.772735 -11.985015 0
M  V30 21 O 6.889007 5.543784 -11.922937 0
M  V30 22 F 9.968116 8.171386 -6.842748 0
M  V30 23 C 9.176544 6.147338 -7.846269 0
M  V30 24 C 9.976161 7.122770 -10.366341 0
M  V30 25 H 7.290101 5.094361 -14.446326 0
M  V30 26 H 8.465719 6.565274 -12.769364 0
M  V30 27 H 8.754450 4.098024 -16.316619 0
M  V30 28 H 8.529765 5.833333 -16.358873 0
M  V30 29 H 8.516141 4.390343 -8.914102 0
M  V30 30 H 8.929480 2.877395 -13.096001 0
M  V30 31 H 8.326941 2.767244 -14.718080 0
M  V30 32 H 8.892007 3.987997 -11.192311 0
M  V30 33 H 10.162076 4.881305 -11.984938 0
M  V30 34 H 4.975450 7.914971 -13.386185 0
M  V30 35 H 6.482978 7.318542 -14.078280 0
M  V30 36 H 5.133485 6.212283 -13.806148 0
M  V30 37 H 10.635862 8.877686 -9.292603 0
M  V30 38 H 6.071794 0.606692 -13.673072 0
M  V30 39 H 6.437267 0.913954 -11.985036 0
M  V30 40 H 8.637755 0.790218 -12.492131 0
M  V30 41 H 5.323643 6.686291 -11.310711 0
M  V30 42 H 6.784730 7.595806 -11.608918 0
M  V30 43 H 8.868486 5.776472 -6.880496 0
M  V30 END ATOM
M  V30 BEGIN BOND
M  V30 1 1 3 1
M  V30 2 1 9 4
M  V30 3 1 10 1
M  V30 4 2 11 6
M  V30 5 1 11 10
M  V30 6 1 12 3
M  V30 7 1 12 4
M  V30 8 1 13 5
M  V30 9 1 13 8
M  V30 10 2 15 2
M  V30 11 1 16 11
M  V30 12 2 17 13
M  V30 13 1 18 1
M  V30 14 1 18 8
M  V30 15 1 19 16
M  V30 16 1 20 14
M  V30 17 1 21 3
M  V30 18 1 21 20
M  V30 19 1 22 2
M  V30 20 1 23 2
M  V30 21 2 23 9
M  V30 22 2 24 4
M  V30 23 1 24 7
M  V30 24 1 24 15
M  V30 25 1 1 25 CFG=3
M  V30 26 1 3 26 CFG=3
M  V30 27 1 27 8
M  V30 28 1 28 8
M  V30 29 1 29 9
M  V30 30 1 30 10
M  V30 31 1 31 10
M  V30 32 1 32 12
M  V30 33 1 33 12
M  V30 34 1 34 14
M  V30 35 1 35 14
M  V30 36 1 36 14
M  V30 37 1 37 15
M  V30 38 1 38 16
M  V30 39 1 39 16
M  V30 40 1 40 19
M  V30 41 1 41 20
M  V30 42 1 42 20
M  V30 43 1 43 23
M  V30 END BOND
M  V30 END CTAB
M  END
>  <i_epik_Tot_Q>  (1) 
-1

>  <i_epik_Tot_abs_Q>  (1) 
1

>  <i_i_glide_confnum>  (1) 
282

>  <i_i_glide_lignum>  (1) 
127

>  <i_i_glide_posenum>  (1) 
151

>  <i_i_glide_rotatable_bonds>  (1) 
12

>  <i_lp_mmshare_version>  (1) 
72125

>  <i_m_source_file_index>  (1) 
49

>  <i_f3d_flags>  (1) 
0

>  <num_sample>  (1) 
50

>  <b_lp_Chiralities_Consistent>  (1) 
1

>  <r_epik_Charging_Adjusted_Penalty>  (1) 
7.9156217055703786e-05

>  <r_epik_Ionization_Penalty>  (1) 
8.8264238192330274e-05

>  <r_epik_Ionization_Penalty_Charging>  (1) 
7.9156217055703786e-05

>  <r_epik_Ionization_Penalty_Neutral>  (1) 
9.1080211366264862e-06

>  <r_epik_State_Penalty>  (1) 
-0

>  <r_glide_ring_energy>  (1) 
0

>  <r_i_docking_score>  (1) 
-3.4841954699111475

>  <r_i_glide_ecoul>  (1) 
-1.0349523291567377

>  <r_i_glide_eff_state_penalty>  (1) 
-0

>  <r_i_glide_einternal>  (1) 
7.2965551171063829

>  <r_i_glide_emodel>  (1) 
-33.741270987011987

>  <r_i_glide_emodel_strain>  (1) 
0.10923672132313378

>  <r_i_glide_energy>  (1) 
-30.902404008651501

>  <r_i_glide_erotb>  (1) 
1.2745455854061123

>  <r_i_glide_esite>  (1) 
-0.029622578908762593

>  <r_i_glide_evdw>  (1) 
-29.867451679494764

>  <r_i_glide_gscore>  (1) 
-3.4841954699111475

>  <r_i_glide_gscore_strain>  (1) 
0

>  <r_i_glide_hbond>  (1) 
-0.28484633019295635

>  <r_i_glide_ligand_efficiency>  (1) 
-0.1451748112462978

>  <r_i_glide_ligand_efficiency_ln>  (1) 
-0.83392785526197644

>  <r_i_glide_ligand_efficiency_sa>  (1) 
-0.41875661827886429

>  <r_i_glide_lipo>  (1) 
-0.78710779042463352

>  <r_i_glide_metal>  (1) 
-0

>  <r_i_glide_rewards>  (1) 
-2.0085489224426585

>  <r_lp_Energy>  (1) 
23.232806999999998

>  <r_lp_tautomer_probability>  (1) 
1

>  <s_epik_cmdline>  (1) 
J2VwaWtfcHl0aG9uJywgJy1waHQnLCAnMS4wJywgJy1waCcsICc3LjQnLCAnLXRuJywgJzgnLCAnLW1hJywgJzUwMCcsICctaW1hZScsICc8aW5maWxlLm1hZT4nLCAnLW9tYWUnLCAnPG91dGZpbGUubWFlPic=

>  <s_epik_input>  (1) 
W09IXUMoPU8pW0NIMl1PW0NAQEhdKFtDSDJdQyg9TylbQ0gyXVtPSF0pW0NASF0oT1tDSDJdW0NIM10pW0NIMl1jKFtjSF1bY0hdMSljKEYpW2NIXWMxRg==

>  <s_glide_docking_method>  (1) 
confgen

>  <s_i_glide_gridfile>  (1) 
gpcr_drd2_6luq_protein_autoprepared_prepared

>  <s_lp_Force_Field>  (1) 
S-OPLS

>  <s_lp_Variant>  (1) 
DiffSBDD_48-2

>  <s_m_source_file>  (1) 
generated_generic_title2_ligand_DiffSBDD_2026-06-23_prepared.sdf

>  <GenAI_Model>  (1) 
DiffSBDD

>  <Protein>  (1) 
generic_title2

$$$$
DiffSBDD_48
     RDKit          3D

  0  0  0  0  0  0  0  0  0  0999 V3000
M  V30 BEGIN CTAB
M  V30 COUNTS 43 43 0 0 1
M  V30 BEGIN ATOM
M  V30 1 C 7.442310 3.806107 -13.044031 0 CFG=2
M  V30 2 C 9.912188 7.386640 -7.947758 0
M  V30 3 C 7.675750 4.663215 -11.771316 0 CFG=1
M  V30 4 C 9.375374 6.009012 -10.351587 0
M  V30 5 O 8.826019 5.190447 -16.671940 0 CHG=-1
M  V30 6 O 8.175453 1.225805 -15.034898 0
M  V30 7 F 10.145804 7.919740 -11.574861 0
M  V30 8 C 7.022646 4.399733 -15.343169 0
M  V30 9 C 9.120363 5.390727 -9.106649 0
M  V30 10 C 8.269575 2.500024 -12.989940 0
M  V30 11 C 7.744018 1.382865 -13.893386 0
M  V30 12 C 9.096095 5.260990 -11.652796 0
M  V30 13 C 7.583892 5.190004 -16.524389 0
M  V30 14 C 5.373188 7.591268 -11.957068 0
M  V30 15 C 10.170542 8.005043 -9.186041 0
M  V30 16 C 6.661315 0.468214 -13.316226 0
M  V30 17 O 6.757475 5.776621 -17.258838 0
M  V30 18 O 7.847425 4.552942 -14.189637 0
M  V30 19 O 6.174722 -0.409764 -14.311437 0
M  V30 20 C 6.405568 6.605489 -12.501687 0
M  V30 21 O 6.638960 5.607746 -11.519470 0
M  V30 22 F 10.170582 8.047864 -6.793648 0
M  V30 23 C 9.386603 6.081227 -7.908178 0
M  V30 24 C 9.899417 7.320130 -10.387336 0
M  V30 25 H 6.377168 3.568052 -13.089555 0
M  V30 26 H 7.554773 3.990310 -10.926986 0
M  V30 27 H 6.954258 3.359997 -15.652131 0
M  V30 28 H 6.010402 4.742753 -15.132777 0
M  V30 29 H 8.720670 4.390360 -9.070409 0
M  V30 30 H 8.285365 2.103880 -11.985025 0
M  V30 31 H 9.318176 2.707772 -13.184854 0
M  V30 32 H 9.832993 4.461679 -11.726123 0
M  V30 33 H 9.289855 5.907200 -12.506931 0
M  V30 34 H 4.905287 8.141660 -12.768966 0
M  V30 35 H 4.583164 7.073930 -11.413675 0
M  V30 36 H 5.804442 8.318869 -11.273322 0
M  V30 37 H 10.572934 9.005845 -9.214946 0
M  V30 38 H 5.838509 1.069021 -12.926481 0
M  V30 39 H 7.077340 -0.107087 -12.489558 0
M  V30 40 H 5.618844 -1.078439 -13.911558 0
M  V30 41 H 7.318832 7.131036 -12.781943 0
M  V30 42 H 5.992964 6.147794 -13.396920 0
M  V30 43 H 9.187496 5.609232 -6.957511 0
M  V30 END ATOM
M  V30 BEGIN BOND
M  V30 1 1 3 1
M  V30 2 1 9 4
M  V30 3 1 10 1
M  V30 4 2 11 6
M  V30 5 1 11 10
M  V30 6 1 12 3
M  V30 7 1 12 4
M  V30 8 1 13 5
M  V30 9 1 13 8
M  V30 10 2 15 2
M  V30 11 1 16 11
M  V30 12 2 17 13
M  V30 13 1 18 1
M  V30 14 1 18 8
M  V30 15 1 19 16
M  V30 16 1 20 14
M  V30 17 1 21 3
M  V30 18 1 21 20
M  V30 19 1 22 2
M  V30 20 1 23 2
M  V30 21 2 23 9
M  V30 22 2 24 4
M  V30 23 1 24 7
M  V30 24 1 24 15
M  V30 25 1 1 25 CFG=3
M  V30 26 1 3 26 CFG=1
M  V30 27 1 27 8
M  V30 28 1 28 8
M  V30 29 1 29 9
M  V30 30 1 30 10
M  V30 31 1 31 10
M  V30 32 1 32 12
M  V30 33 1 33 12
M  V30 34 1 34 14
M  V30 35 1 35 14
M  V30 36 1 36 14
M  V30 37 1 37 15
M  V30 38 1 38 16
M  V30 39 1 39 16
M  V30 40 1 40 19
M  V30 41 1 41 20
M  V30 42 1 42 20
M  V30 43 1 43 23
M  V30 END BOND
M  V30 END CTAB
M  END
>  <i_epik_Tot_Q>  (1) 
-1

>  <i_epik_Tot_abs_Q>  (1) 
1

>  <i_i_glide_confnum>  (1) 
1155

>  <i_i_glide_lignum>  (1) 
126

>  <i_i_glide_posenum>  (1) 
260

>  <i_i_glide_rotatable_bonds>  (1) 
12

>  <i_lp_mmshare_version>  (1) 
72125

>  <i_m_source_file_index>  (1) 
49

>  <i_f3d_flags>  (1) 
0

>  <num_sample>  (1) 
50

>  <b_lp_Chiralities_Consistent>  (1) 
1

>  <r_epik_Charging_Adjusted_Penalty>  (1) 
7.9156217055703786e-05

>  <r_epik_Ionization_Penalty>  (1) 
8.8264238192330274e-05

>  <r_epik_Ionization_Penalty_Charging>  (1) 
7.9156217055703786e-05

>  <r_epik_Ionization_Penalty_Neutral>  (1) 
9.1080211366264862e-06

>  <r_epik_State_Penalty>  (1) 
-0

>  <r_glide_ring_energy>  (1) 
0

>  <r_i_docking_score>  (1) 
-3.4494729539058291

>  <r_i_glide_ecoul>  (1) 
-2.3064746677281187

>  <r_i_glide_eff_state_penalty>  (1) 
-0

>  <r_i_glide_einternal>  (1) 
4.9590037387039789

>  <r_i_glide_emodel>  (1) 
-32.793574663795823

>  <r_i_glide_emodel_strain>  (1) 
0.36848096437828737

>  <r_i_glide_energy>  (1) 
-29.004143677102327

>  <r_i_glide_erotb>  (1) 
1.2745455854061123

>  <r_i_glide_esite>  (1) 
-0.024097648248230338

>  <r_i_glide_evdw>  (1) 
-26.697669009374209

>  <r_i_glide_gscore>  (1) 
-3.4494729539058291

>  <r_i_glide_gscore_strain>  (1) 
0

>  <r_i_glide_hbond>  (1) 
-0.16

>  <r_i_glide_ligand_efficiency>  (1) 
-0.1437280397460762

>  <r_i_glide_ligand_efficiency_ln>  (1) 
-0.82561716386946582

>  <r_i_glide_ligand_efficiency_sa>  (1) 
-0.41458340712980907

>  <r_i_glide_lipo>  (1) 
-0.7159523657021134

>  <r_i_glide_metal>  (1) 
-0

>  <r_i_glide_rewards>  (1) 
-2.1431138747336682

>  <r_lp_Energy>  (1) 
21.997854

>  <r_lp_tautomer_probability>  (1) 
1

>  <s_epik_cmdline>  (1) 
J2VwaWtfcHl0aG9uJywgJy1waHQnLCAnMS4wJywgJy1waCcsICc3LjQnLCAnLXRuJywgJzgnLCAnLW1hJywgJzUwMCcsICctaW1hZScsICc8aW5maWxlLm1hZT4nLCAnLW9tYWUnLCAnPG91dGZpbGUubWFlPic=

>  <s_epik_input>  (1) 
W09IXUMoPU8pW0NIMl1PW0NAQEhdKFtDSDJdQyg9TylbQ0gyXVtPSF0pW0NASF0oT1tDSDJdW0NIM10pW0NIMl1jKFtjSF1bY0hdMSljKEYpW2NIXWMxRg==

>  <s_glide_docking_method>  (1) 
confgen

>  <s_i_glide_gridfile>  (1) 
gpcr_drd2_6luq_protein_autoprepared_prepared

>  <s_lp_Force_Field>  (1) 
S-OPLS

>  <s_lp_Variant>  (1) 
DiffSBDD_48-1

>  <s_m_source_file>  (1) 
generated_generic_title2_ligand_DiffSBDD_2026-06-23_prepared.sdf

>  <GenAI_Model>  (1) 
DiffSBDD

>  <Protein>  (1) 
generic_title2

$$$$
DiffSBDD_39
     RDKit          3D

  0  0  0  0  0  0  0  0  0  0999 V3000
M  V30 BEGIN CTAB
M  V30 COUNTS 68 71 0 0 1
M  V30 BEGIN ATOM
M  V30 1 C 8.159249 5.469320 -15.516697 0
M  V30 2 F 13.807616 3.429275 -19.973225 0
M  V30 3 F 11.728642 4.005506 -19.864602 0
M  V30 4 C 10.686894 8.485822 -9.575994 0
M  V30 5 C 7.576353 5.913884 -13.065951 0
M  V30 6 C 6.490825 4.099334 -11.743604 0 CFG=1
M  V30 7 O 11.720298 8.695179 -8.632866 0
M  V30 8 C 12.445650 5.493743 -17.193918 0 CFG=2
M  V30 9 C 7.690576 2.612087 -15.175502 0
M  V30 10 C 8.457853 5.369710 -10.701262 0 CFG=2
M  V30 11 O 14.314041 7.015290 -17.608457 0
M  V30 12 C 7.949961 3.240930 -16.559217 0
M  V30 13 N 8.725521 4.511210 -16.500678 0 CFG=2 CHG=1
M  V30 14 C 13.320200 5.728066 -19.973962 0
M  V30 15 C 8.091717 4.875911 -14.094068 0 CFG=1
M  V30 16 C 10.207141 4.366842 -16.428636 0
M  V30 17 O 12.651041 6.755638 -19.238321 0
M  V30 18 C 7.027336 3.061420 -12.752363 0
M  V30 19 N 7.318802 5.347768 -11.696595 0 CFG=1 CHG=1
M  V30 20 C 10.148331 7.047526 -9.507900 0 CFG=1
M  V30 21 C 9.441512 6.783152 -8.172420 0
M  V30 22 C 10.900426 5.511879 -17.182931 0
M  V30 23 C 7.178192 3.644115 -14.158779 0 CFG=2
M  V30 24 C 12.945973 6.794607 -17.870826 0 CFG=1
M  V30 25 C 13.010732 4.280833 -17.932730 0
M  V30 26 C 8.915076 5.356101 -8.135468 0
M  V30 27 C 12.958658 4.320793 -19.458768 0
M  V30 28 O 13.475822 3.316719 -17.325963 0
M  V30 29 C 7.928120 5.071654 -9.267517 0
M  V30 30 O 5.333781 4.512533 -12.173637 0 CHG=-1
M  V30 31 C 9.252808 6.721323 -10.731128 0
M  V30 32 H 7.155928 5.745566 -15.845320 0
M  V30 33 H 8.724248 6.389688 -15.533148 0
M  V30 34 H 9.877314 9.191534 -9.394150 0
M  V30 35 H 11.087702 8.696587 -10.565948 0
M  V30 36 H 6.627353 6.310125 -13.431867 0
M  V30 37 H 8.226446 6.783779 -13.051539 0
M  V30 38 H 6.502549 3.590244 -10.791057 0
M  V30 39 H 12.453980 8.143828 -8.857541 0
M  V30 40 H 12.816097 5.486998 -16.167063 0
M  V30 41 H 6.952057 1.816002 -15.281153 0
M  V30 42 H 8.575397 2.117104 -14.795188 0
M  V30 43 H 9.155516 4.573854 -10.970040 0
M  V30 44 H 14.518687 7.895029 -17.890124 0
M  V30 45 H 6.983265 3.467761 -17.011443 0
M  V30 46 H 8.429585 2.524867 -17.226797 0
M  V30 47 H 14.398467 5.887288 -19.940766 0
M  V30 48 H 13.034694 5.820134 -21.022825 0
M  V30 49 H 9.084062 4.565452 -13.768571 0
M  V30 50 H 10.551236 4.389967 -15.396078 0
M  V30 51 H 10.511289 3.409590 -16.852783 0
M  V30 52 H 6.362097 2.195515 -12.780704 0
M  V30 53 H 7.991283 2.686938 -12.404014 0
M  V30 54 H 11.003745 6.390060 -9.539813 0
M  V30 55 H 10.142759 6.919756 -7.350243 0
M  V30 56 H 8.632377 7.489081 -7.985799 0
M  V30 57 H 10.515591 5.573815 -18.202445 0
M  V30 58 H 10.603513 6.428059 -16.691238 0
M  V30 59 H 6.192404 3.961308 -14.503751 0
M  V30 60 H 12.423658 7.661526 -17.463634 0
M  V30 61 H 9.749066 4.657937 -8.193076 0
M  V30 62 H 8.412763 5.192552 -7.185063 0
M  V30 63 H 7.654604 4.031318 -9.143277 0
M  V30 64 H 6.989766 5.590238 -9.101225 0
M  V30 65 H 8.576180 7.559810 -10.870288 0
M  V30 66 H 9.896807 6.726854 -11.609932 0
M  V30 67 H 8.569228 4.930302 -17.406745 0
M  V30 68 H 6.662245 6.003022 -11.291605 0
M  V30 END ATOM
M  V30 BEGIN BOND
M  V30 1 1 7 4
M  V30 2 1 12 9
M  V30 3 1 13 1
M  V30 4 1 13 12
M  V30 5 1 15 1
M  V30 6 1 15 5
M  V30 7 1 16 13
M  V30 8 1 17 14
M  V30 9 1 18 6
M  V30 10 1 19 5
M  V30 11 1 19 6
M  V30 12 1 19 10
M  V30 13 1 20 4
M  V30 14 1 21 20
M  V30 15 1 22 8
M  V30 16 1 22 16
M  V30 17 1 23 9
M  V30 18 1 23 15
M  V30 19 1 23 18
M  V30 20 1 24 8
M  V30 21 1 24 11
M  V30 22 1 24 17
M  V30 23 1 25 8
M  V30 24 1 26 21
M  V30 25 1 27 2
M  V30 26 1 27 3
M  V30 27 1 27 14
M  V30 28 1 27 25
M  V30 29 2 28 25
M  V30 30 1 29 10
M  V30 31 1 29 26
M  V30 32 1 30 6
M  V30 33 1 31 10
M  V30 34 1 31 20
M  V30 35 1 32 1
M  V30 36 1 33 1
M  V30 37 1 34 4
M  V30 38 1 35 4
M  V30 39 1 36 5
M  V30 40 1 37 5
M  V30 41 1 6 38 CFG=1
M  V30 42 1 39 7
M  V30 43 1 8 40 CFG=1
M  V30 44 1 41 9
M  V30 45 1 42 9
M  V30 46 1 10 43 CFG=3
M  V30 47 1 44 11
M  V30 48 1 45 12
M  V30 49 1 46 12
M  V30 50 1 47 14
M  V30 51 1 48 14
M  V30 52 1 15 49 CFG=1
M  V30 53 1 50 16
M  V30 54 1 51 16
M  V30 55 1 52 18
M  V30 56 1 53 18
M  V30 57 1 20 54 CFG=3
M  V30 58 1 55 21
M  V30 59 1 56 21
M  V30 60 1 57 22
M  V30 61 1 58 22
M  V30 62 1 23 59 CFG=3
M  V30 63 1 24 60 CFG=1
M  V30 64 1 61 26
M  V30 65 1 62 26
M  V30 66 1 63 29
M  V30 67 1 64 29
M  V30 68 1 65 31
M  V30 69 1 66 31
M  V30 70 1 13 67 CFG=3
M  V30 71 1 19 68 CFG=1
M  V30 END BOND
M  V30 END CTAB
M  END
>  <i_epik_Tot_Q>  (1) 
1

>  <i_epik_Tot_abs_Q>  (1) 
3

>  <i_i_glide_confnum>  (1) 
131

>  <i_i_glide_lignum>  (1) 
106

>  <i_i_glide_posenum>  (1) 
144

>  <i_i_glide_rotatable_bonds>  (1) 
7

>  <i_lp_mmshare_version>  (1) 
72125

>  <i_m_source_file_index>  (1) 
40

>  <i_f3d_flags>  (1) 
0

>  <num_sample>  (1) 
50

>  <b_lp_Chiralities_Consistent>  (1) 
1

>  <r_epik_Charging_Adjusted_Penalty>  (1) 
0.43569023002306473

>  <r_epik_Ionization_Penalty>  (1) 
0.17475065349743213

>  <r_epik_Ionization_Penalty_Charging>  (1) 
0.17468327186895813

>  <r_epik_Ionization_Penalty_Neutral>  (1) 
6.7381628474014066e-05

>  <r_epik_State_Penalty>  (1) 
0.26100695815410663

>  <r_glide_ring_energy>  (1) 
1.2534239858202354

>  <r_i_docking_score>  (1) 
-3.4492187708299129

>  <r_i_glide_ecoul>  (1) 
-4.6318974821284851

>  <r_i_glide_eff_state_penalty>  (1) 
0.26100695815410663

>  <r_i_glide_einternal>  (1) 
5.4698557712357729

>  <r_i_glide_emodel>  (1) 
-32.189237250697623

>  <r_i_glide_emodel_strain>  (1) 
0.81757183933513744

>  <r_i_glide_energy>  (1) 
-28.210675331656731

>  <r_i_glide_erotb>  (1) 
0.49989103335302049

>  <r_i_glide_esite>  (1) 
-0.04381984635769734

>  <r_i_glide_evdw>  (1) 
-23.578777849528247

>  <r_i_glide_gscore>  (1) 
-3.7102257289840197

>  <r_i_glide_gscore_strain>  (1) 
0

>  <r_i_glide_hbond>  (1) 
0

>  <r_i_glide_ligand_efficiency>  (1) 
-0.11126512163967461

>  <r_i_glide_ligand_efficiency_ln>  (1) 
-0.77790453868267762

>  <r_i_glide_ligand_efficiency_sa>  (1) 
-0.34952610040484877

>  <r_i_glide_lipo>  (1) 
-0.89762307044227441

>  <r_i_glide_metal>  (1) 
-0

>  <r_i_glide_rewards>  (1) 
-1.394950330741384

>  <r_lp_Energy>  (1) 
53.105624999999996

>  <r_lp_tautomer_probability>  (1) 
0.99995000000000001

>  <s_epik_Chemistry_Notes>  (1) 
This compound contains an acetal/aminal-like group ( X-CH(R)-Y where X, Y are N, S, or O) that may be acid/base labile, releasing an aldehyde.

>  <s_epik_cmdline>  (1) 
J2VwaWtfcHl0aG9uJywgJy1waHQnLCAnMS4wJywgJy1waCcsICc3LjQnLCAnLXRuJywgJzgnLCAnLW1hJywgJzUwMCcsICctaW1hZScsICc8aW5maWxlLm1hZT4nLCAnLW9tYWUnLCAnPG91dGZpbGUubWFlPic=

>  <s_epik_input>  (1) 
RkMxKEYpW0NIMl1PW0NASF0oW09IXSlbQ0BIXShDMT1PKVtDSDJdW0NIMl1OKFtDSDJdMilbQ0gyXVtDSDJdW0NASF0oW0NAQEhdMjMpW0NIMl1bQ0BIXShbT0hdKU4oW0NIMl0zKVtDQEBIXTRbQ0gyXVtDSDJdW0NIMl1bQ0BASF0oW0NIMl00KVtDSDJdW09IXQ==

>  <s_glide_docking_method>  (1) 
confgen

>  <s_i_glide_gridfile>  (1) 
gpcr_drd2_6luq_protein_autoprepared_prepared

>  <s_lp_Force_Field>  (1) 
S-OPLS

>  <s_lp_Variant>  (1) 
DiffSBDD_39-2

>  <s_m_source_file>  (1) 
generated_generic_title2_ligand_DiffSBDD_2026-06-23_prepared.sdf

>  <GenAI_Model>  (1) 
DiffSBDD

>  <Protein>  (1) 
generic_title2

$$$$
DiffSBDD_0
     RDKit          3D

  0  0  0  0  0  0  0  0  0  0999 V3000
M  V30 BEGIN CTAB
M  V30 COUNTS 70 74 0 0 1
M  V30 BEGIN ATOM
M  V30 1 C 5.404842 5.282310 -22.075583 0
M  V30 2 N 8.647683 4.806936 -14.192727 0
M  V30 3 C 5.819061 1.655868 -13.909757 0 CFG=1
M  V30 4 C 9.659016 5.566767 -16.284746 0
M  V30 5 F 7.785081 3.510306 -19.863361 0
M  V30 6 C 7.271606 5.212799 -14.454071 0
M  V30 7 C 5.029425 6.420433 -21.113661 0
M  V30 8 C 8.702998 5.940129 -18.373591 0
M  V30 9 C 6.306445 5.272085 -19.208779 0 CFG=1
M  V30 10 C 7.008616 0.607375 -16.036435 0
M  V30 11 C 8.810963 3.791094 -13.148834 0 CFG=2
M  V30 12 C 8.560475 5.201935 -9.768334 0
M  V30 13 C 6.210134 0.466459 -14.782142 0 CFG=1
M  V30 14 O 8.495681 5.590223 -17.008284 0
M  V30 15 C 6.649546 4.122638 -20.190651 0 CFG=1
M  V30 16 C 6.764004 0.605239 -13.376309 0 CFG=1
M  V30 17 N 6.639776 2.900773 -13.840621 0 CFG=1 CHG=1
M  V30 18 C 7.393714 6.363024 -19.050397 0
M  V30 19 C 8.803172 5.262715 -11.285274 0
M  V30 20 C 8.064870 2.571913 -13.754724 0 CFG=2
M  V30 21 O 8.975413 6.390238 -9.130675 0
M  V30 22 C 4.976708 5.920460 -19.658268 0
M  V30 23 N 8.194305 -0.029215 -16.226620 0
M  V30 24 C 6.386612 4.014903 -14.785033 0
M  V30 25 N 6.575501 1.351913 -17.054630 0
M  V30 26 O 7.573355 1.199457 -18.031418 0
M  V30 27 C 8.466580 0.375755 -17.451743 0
M  V30 28 O 8.235293 4.116352 -11.918729 0
M  V30 29 N 9.568176 0.065858 -18.232259 0
M  V30 30 C 9.715219 5.190236 -14.992888 0
M  V30 31 C 6.711660 4.590422 -21.655237 0
M  V30 32 C 9.934667 0.463856 -19.579201 0
M  V30 33 C 8.113911 1.219639 -13.053900 0
M  V30 34 H 4.599872 4.546731 -22.101365 0
M  V30 35 H 5.500245 5.671702 -23.089472 0
M  V30 36 H 4.786902 1.733736 -13.583458 0
M  V30 37 H 10.521255 5.866694 -16.865004 0
M  V30 38 H 6.897528 5.680121 -13.542328 0
M  V30 39 H 7.185678 5.992881 -15.206412 0
M  V30 40 H 4.064636 6.837203 -21.400558 0
M  V30 41 H 5.740907 7.240970 -21.206861 0
M  V30 42 H 9.381376 6.790322 -18.442538 0
M  V30 43 H 9.195169 5.125885 -18.902874 0
M  V30 44 H 6.147794 4.830081 -18.224456 0
M  V30 45 H 9.871976 3.590255 -13.002145 0
M  V30 46 H 9.134715 4.390210 -9.331565 0
M  V30 47 H 7.506431 5.029649 -9.546348 0
M  V30 48 H 5.452156 -0.301599 -14.927180 0
M  V30 49 H 5.885451 3.348132 -20.105542 0
M  V30 50 H 6.387149 -0.109730 -12.646575 0
M  V30 51 H 6.980077 7.190246 -18.473860 0
M  V30 52 H 7.639156 6.783751 -20.024232 0
M  V30 53 H 8.350559 6.161594 -11.705258 0
M  V30 54 H 9.875223 5.325358 -11.475469 0
M  V30 55 H 8.447555 2.422479 -14.764077 0
M  V30 56 H 8.249596 7.022456 -9.185035 0
M  V30 57 H 4.175407 5.190194 -19.585037 0
M  V30 58 H 4.706437 6.736806 -18.988576 0
M  V30 59 H 5.375425 4.389470 -14.697179 0
M  V30 60 H 6.575660 3.698587 -15.808856 0
M  V30 61 H 10.234462 -0.549332 -17.791024 0
M  V30 62 H 10.647300 5.161783 -14.479216 0
M  V30 63 H 6.900102 3.736112 -22.306499 0
M  V30 64 H 7.553543 5.269205 -21.794198 0
M  V30 65 H 10.457099 -0.350123 -20.082292 0
M  V30 66 H 9.051266 0.717575 -20.166326 0
M  V30 67 H 10.593308 1.332456 -19.552330 0
M  V30 68 H 8.175412 1.322273 -11.985026 0
M  V30 69 H 8.936504 0.587319 -13.389756 0
M  V30 70 H 6.449584 3.288009 -12.926103 0
M  V30 END ATOM
M  V30 BEGIN BOND
M  V30 1 1 6 2
M  V30 2 1 7 1
M  V30 3 1 11 2
M  V30 4 1 13 3
M  V30 5 1 13 10
M  V30 6 1 14 4
M  V30 7 1 14 8
M  V30 8 1 15 5
M  V30 9 1 15 9
M  V30 10 1 16 3
M  V30 11 1 16 13
M  V30 12 1 17 3
M  V30 13 1 18 8
M  V30 14 1 18 9
M  V30 15 1 19 12
M  V30 16 1 20 11
M  V30 17 1 20 17
M  V30 18 1 21 12
M  V30 19 1 22 7
M  V30 20 1 22 9
M  V30 21 1 23 10
M  V30 22 1 24 6
M  V30 23 1 24 17
M  V30 24 2 25 10
M  V30 25 1 26 25
M  V30 26 2 27 23
M  V30 27 1 27 26
M  V30 28 1 28 11
M  V30 29 1 28 19
M  V30 30 1 29 27
M  V30 31 1 30 2
M  V30 32 2 30 4
M  V30 33 1 31 1
M  V30 34 1 31 15
M  V30 35 1 32 29
M  V30 36 1 33 16
M  V30 37 1 33 20
M  V30 38 1 34 1
M  V30 39 1 35 1
M  V30 40 1 3 36 CFG=1
M  V30 41 1 37 4
M  V30 42 1 38 6
M  V30 43 1 39 6
M  V30 44 1 40 7
M  V30 45 1 41 7
M  V30 46 1 42 8
M  V30 47 1 43 8
M  V30 48 1 9 44 CFG=1
M  V30 49 1 11 45 CFG=1
M  V30 50 1 46 12
M  V30 51 1 47 12
M  V30 52 1 13 48 CFG=1
M  V30 53 1 15 49 CFG=3
M  V30 54 1 16 50 CFG=1
M  V30 55 1 51 18
M  V30 56 1 52 18
M  V30 57 1 53 19
M  V30 58 1 54 19
M  V30 59 1 20 55 CFG=3
M  V30 60 1 56 21
M  V30 61 1 57 22
M  V30 62 1 58 22
M  V30 63 1 59 24
M  V30 64 1 60 24
M  V30 65 1 61 29
M  V30 66 1 62 30
M  V30 67 1 63 31
M  V30 68 1 64 31
M  V30 69 1 65 32
M  V30 70 1 66 32
M  V30 71 1 67 32
M  V30 72 1 68 33
M  V30 73 1 69 33
M  V30 74 1 17 70 CFG=1
M  V30 END BOND
M  V30 END CTAB
M  END
>  <i_epik_Tot_Q>  (1) 
1

>  <i_epik_Tot_abs_Q>  (1) 
1

>  <i_i_glide_confnum>  (1) 
132

>  <i_i_glide_lignum>  (1) 
12

>  <i_i_glide_posenum>  (1) 
337

>  <i_i_glide_rotatable_bonds>  (1) 
11

>  <i_lp_mmshare_version>  (1) 
72125

>  <i_m_source_file_index>  (1) 
1

>  <i_f3d_flags>  (1) 
0

>  <num_sample>  (1) 
50

>  <b_lp_Chiralities_Consistent>  (1) 
1

>  <r_epik_Charging_Adjusted_Penalty>  (1) 
0.41344222577729461

>  <r_epik_Ionization_Penalty>  (1) 
0.0027644559619576371

>  <r_epik_Ionization_Penalty_Charging>  (1) 
0.0027623868246906495

>  <r_epik_Ionization_Penalty_Neutral>  (1) 
2.0691372669875143e-06

>  <r_epik_State_Penalty>  (1) 
0.41067983895260396

>  <r_glide_ring_energy>  (1) 
1.7272227408313681

>  <r_i_docking_score>  (1) 
-3.4415395699160665

>  <r_i_glide_ecoul>  (1) 
-7.1551617159391929

>  <r_i_glide_eff_state_penalty>  (1) 
0.41067983895260396

>  <r_i_glide_einternal>  (1) 
16.607962494462235

>  <r_i_glide_emodel>  (1) 
-22.250940077538825

>  <r_i_glide_emodel_strain>  (1) 
2.5967298568215966

>  <r_i_glide_energy>  (1) 
-26.187063993543582

>  <r_i_glide_erotb>  (1) 
0.74142510397790429

>  <r_i_glide_esite>  (1) 
0

>  <r_i_glide_evdw>  (1) 
-19.031902277604388

>  <r_i_glide_gscore>  (1) 
-3.8522194088686703

>  <r_i_glide_gscore_strain>  (1) 
0

>  <r_i_glide_hbond>  (1) 
-0.16

>  <r_i_glide_ligand_efficiency>  (1) 
-0.10428907787624443

>  <r_i_glide_ligand_efficiency_ln>  (1) 
-0.76538058101111062

>  <r_i_glide_ligand_efficiency_sa>  (1) 
-0.3345107975316623

>  <r_i_glide_lipo>  (1) 
-1.7035701897103424

>  <r_i_glide_metal>  (1) 
-0

>  <r_i_glide_rewards>  (1) 
-0.7052049518651341

>  <r_lp_Energy>  (1) 
39.695543999999998

>  <r_lp_tautomer_probability>  (1) 
0.5

>  <s_epik_Chemistry_Notes>  (1) 
This compound has an imine and may undergo hydrolysis. This compound contains an acetal/aminal-like group ( X-CH(R)-Y where X, Y are N, S, or O) that may be acid/base labile, releasing an aldehyde.

>  <s_epik_cmdline>  (1) 
J2VwaWtfcHl0aG9uJywgJy1waHQnLCAnMS4wJywgJy1waCcsICc3LjQnLCAnLXRuJywgJzgnLCAnLW1hJywgJzUwMCcsICctaW1hZScsICc8aW5maWxlLm1hZT4nLCAnLW9tYWUnLCAnPG91dGZpbGUubWFlPic=

>  <s_epik_input>  (1) 
W0NIMl0xW0NIMl1bQ0gyXVtDSDJdW0NASF0oRilbQ0BIXTFbQ0gyXVtDSDJdTy9bQ0hdPVtDSF1cTihbQ0BIXTJPW0NIMl1bQ0gyXVtPSF0pW0NIMl1bQ0gyXU4zW0NAQEhdMltDSDJdW0NAQEhdKFtDQEBIXTM0KVtDQEBIXTRjNW5jKG9uNSlbTkhdW0NIM10=

>  <s_glide_docking_method>  (1) 
confgen

>  <s_i_glide_gridfile>  (1) 
gpcr_drd2_6luq_protein_autoprepared_prepared

>  <s_lp_Force_Field>  (1) 
S-OPLS

>  <s_lp_Variant>  (1) 
DiffSBDD_0-12

>  <s_m_source_file>  (1) 
generated_generic_title2_ligand_DiffSBDD_2026-06-23_prepared.sdf

>  <GenAI_Model>  (1) 
DiffSBDD

>  <Protein>  (1) 
generic_title2

$$$$
DiffSBDD_0
     RDKit          3D

  0  0  0  0  0  0  0  0  0  0999 V3000
M  V30 BEGIN CTAB
M  V30 COUNTS 70 74 0 0 1
M  V30 BEGIN ATOM
M  V30 1 C 10.819556 9.034587 -6.695376 0
M  V30 2 N 7.819423 4.578332 -13.607287 0
M  V30 3 C 6.952592 5.226624 -17.712736 0 CFG=1
M  V30 4 C 9.709088 5.262677 -12.175938 0
M  V30 5 F 9.998403 6.291624 -6.425409 0
M  V30 6 C 7.280387 5.913668 -13.909761 0
M  V30 7 C 11.675206 8.893912 -7.965332 0
M  V30 8 C 10.203675 7.374401 -11.290546 0
M  V30 9 C 10.289831 6.844440 -8.690880 0 CFG=1
M  V30 10 C 9.501975 4.675605 -18.216457 0
M  V30 11 C 7.229260 3.508464 -14.403011 0 CFG=1
M  V30 12 C 7.430484 -0.009808 -13.984668 0
M  V30 13 C 8.061444 4.702220 -18.633419 0 CFG=1
M  V30 14 O 9.456834 6.601407 -12.218671 0
M  V30 15 C 9.453615 7.014515 -7.401015 0 CFG=2
M  V30 16 C 6.985655 3.766007 -18.122526 0 CFG=1
M  V30 17 N 7.027933 5.113230 -16.231266 0 CFG=1 CHG=1
M  V30 18 C 9.515095 7.387006 -9.915231 0
M  V30 19 C 6.736801 1.313118 -13.740224 0
M  V30 20 C 7.636207 3.832615 -15.842409 0 CFG=2
M  V30 21 O 7.596483 -0.127718 -15.382157 0
M  V30 22 C 11.693445 7.445674 -8.460344 0
M  V30 23 N 10.205958 5.804384 -17.928745 0
M  V30 24 C 7.501995 6.246526 -15.405615 0
M  V30 25 N 10.176908 3.527563 -18.126338 0
M  V30 26 O 11.455993 3.919601 -17.696980 0
M  V30 27 C 11.373812 5.260895 -17.628118 0
M  V30 28 O 7.719986 2.256371 -14.110180 0
M  V30 29 N 12.546299 5.893336 -17.256249 0
M  V30 30 C 8.957013 4.345630 -12.813093 0
M  V30 31 C 9.402681 8.473545 -6.910607 0
M  V30 32 C 12.863133 7.299964 -17.099772 0
M  V30 33 C 7.197308 2.852691 -16.927352 0
M  V30 34 H 11.299057 8.497250 -5.876168 0
M  V30 35 H 10.776225 10.077082 -6.383128 0
M  V30 36 H 6.155572 5.863250 -18.091764 0
M  V30 37 H 10.573245 5.020831 -11.585040 0
M  V30 38 H 6.206399 5.862925 -13.724862 0
M  V30 39 H 7.600874 6.729451 -13.275736 0
M  V30 40 H 12.700151 9.190177 -7.747374 0
M  V30 41 H 11.319018 9.551814 -8.758055 0
M  V30 42 H 11.253991 7.087496 -11.259161 0
M  V30 43 H 10.175419 8.390047 -11.677867 0
M  V30 44 H 10.419141 5.774928 -8.857928 0
M  V30 45 H 6.148821 3.553788 -14.258778 0
M  V30 46 H 6.822972 -0.828980 -13.604759 0
M  V30 47 H 8.398857 -0.009888 -13.482800 0
M  V30 48 H 8.000395 4.988389 -19.681594 0
M  V30 49 H 8.449840 6.614872 -7.540335 0
M  V30 50 H 6.263367 3.417944 -18.858410 0
M  V30 51 H 9.187482 8.407456 -9.721880 0
M  V30 52 H 8.604264 6.790165 -10.002983 0
M  V30 53 H 5.828304 1.375932 -14.341166 0
M  V30 54 H 6.468066 1.439755 -12.690519 0
M  V30 55 H 8.723626 3.916817 -15.855937 0
M  V30 56 H 8.152640 0.581698 -15.663418 0
M  V30 57 H 12.175404 6.853708 -7.681299 0
M  V30 58 H 12.319192 7.359775 -9.346891 0
M  V30 59 H 6.975405 7.162484 -15.675661 0
M  V30 60 H 8.565873 6.390127 -15.585015 0
M  V30 61 H 13.319909 5.273007 -17.067691 0
M  V30 62 H 9.215223 3.299837 -12.742054 0
M  V30 63 H 8.832655 8.526035 -5.985064 0
M  V30 64 H 8.860784 9.094805 -7.622350 0
M  V30 65 H 13.885801 7.428474 -16.744470 0
M  V30 66 H 12.758725 7.821434 -18.051907 0
M  V30 67 H 12.183094 7.760148 -16.384899 0
M  V30 68 H 6.276654 2.328893 -16.675301 0
M  V30 69 H 7.956787 2.100387 -17.139692 0
M  V30 70 H 6.059818 5.012448 -15.963302 0
M  V30 END ATOM
M  V30 BEGIN BOND
M  V30 1 1 6 2
M  V30 2 1 7 1
M  V30 3 1 11 2
M  V30 4 1 13 3
M  V30 5 1 13 10
M  V30 6 1 14 4
M  V30 7 1 14 8
M  V30 8 1 15 5
M  V30 9 1 15 9
M  V30 10 1 16 3
M  V30 11 1 16 13
M  V30 12 1 17 3
M  V30 13 1 18 8
M  V30 14 1 18 9
M  V30 15 1 19 12
M  V30 16 1 20 11
M  V30 17 1 20 17
M  V30 18 1 21 12
M  V30 19 1 22 7
M  V30 20 1 22 9
M  V30 21 1 23 10
M  V30 22 1 24 6
M  V30 23 1 24 17
M  V30 24 2 25 10
M  V30 25 1 26 25
M  V30 26 2 27 23
M  V30 27 1 27 26
M  V30 28 1 28 11
M  V30 29 1 28 19
M  V30 30 1 29 27
M  V30 31 1 30 2
M  V30 32 2 30 4
M  V30 33 1 31 1
M  V30 34 1 31 15
M  V30 35 1 32 29
M  V30 36 1 33 16
M  V30 37 1 33 20
M  V30 38 1 34 1
M  V30 39 1 35 1
M  V30 40 1 3 36 CFG=1
M  V30 41 1 37 4
M  V30 42 1 38 6
M  V30 43 1 39 6
M  V30 44 1 40 7
M  V30 45 1 41 7
M  V30 46 1 42 8
M  V30 47 1 43 8
M  V30 48 1 9 44 CFG=3
M  V30 49 1 11 45 CFG=3
M  V30 50 1 46 12
M  V30 51 1 47 12
M  V30 52 1 13 48 CFG=3
M  V30 53 1 15 49 CFG=3
M  V30 54 1 16 50 CFG=3
M  V30 55 1 51 18
M  V30 56 1 52 18
M  V30 57 1 53 19
M  V30 58 1 54 19
M  V30 59 1 20 55 CFG=1
M  V30 60 1 56 21
M  V30 61 1 57 22
M  V30 62 1 58 22
M  V30 63 1 59 24
M  V30 64 1 60 24
M  V30 65 1 61 29
M  V30 66 1 62 30
M  V30 67 1 63 31
M  V30 68 1 64 31
M  V30 69 1 65 32
M  V30 70 1 66 32
M  V30 71 1 67 32
M  V30 72 1 68 33
M  V30 73 1 69 33
M  V30 74 1 17 70 CFG=1
M  V30 END BOND
M  V30 END CTAB
M  END
>  <i_epik_Tot_Q>  (1) 
1

>  <i_epik_Tot_abs_Q>  (1) 
1

>  <i_i_glide_confnum>  (1) 
132

>  <i_i_glide_lignum>  (1) 
8

>  <i_i_glide_posenum>  (1) 
364

>  <i_i_glide_rotatable_bonds>  (1) 
11

>  <i_lp_mmshare_version>  (1) 
72125

>  <i_m_source_file_index>  (1) 
1

>  <i_f3d_flags>  (1) 
0

>  <num_sample>  (1) 
50

>  <b_lp_Chiralities_Consistent>  (1) 
1

>  <r_epik_Charging_Adjusted_Penalty>  (1) 
0.41344222577729461

>  <r_epik_Ionization_Penalty>  (1) 
0.0027644559619576371

>  <r_epik_Ionization_Penalty_Charging>  (1) 
0.0027623868246906495

>  <r_epik_Ionization_Penalty_Neutral>  (1) 
2.0691372669875143e-06

>  <r_epik_State_Penalty>  (1) 
0.41067983895260396

>  <r_glide_ring_energy>  (1) 
1.2880141380397463

>  <r_i_docking_score>  (1) 
-3.4361515208958062

>  <r_i_glide_ecoul>  (1) 
0.45090027111628217

>  <r_i_glide_eff_state_penalty>  (1) 
0.41067983895260396

>  <r_i_glide_einternal>  (1) 
12.192545835310458

>  <r_i_glide_emodel>  (1) 
-30.850260701716742

>  <r_i_glide_emodel_strain>  (1) 
0.50355644003347777

>  <r_i_glide_energy>  (1) 
-29.036065107130561

>  <r_i_glide_erotb>  (1) 
0.74142510397790429

>  <r_i_glide_esite>  (1) 
0

>  <r_i_glide_evdw>  (1) 
-29.486965378246843

>  <r_i_glide_gscore>  (1) 
-3.8468313598484101

>  <r_i_glide_gscore_strain>  (1) 
0

>  <r_i_glide_hbond>  (1) 
0

>  <r_i_glide_ligand_efficiency>  (1) 
-0.10412580366350928

>  <r_i_glide_ligand_efficiency_ln>  (1) 
-0.76418230680682953

>  <r_i_glide_ligand_efficiency_sa>  (1) 
-0.33398708988911124

>  <r_i_glide_lipo>  (1) 
-1.7897793022655619

>  <r_i_glide_metal>  (1) 
-0

>  <r_i_glide_rewards>  (1) 
-1.3917639333158529

>  <r_lp_Energy>  (1) 
51.448637999999995

>  <r_lp_tautomer_probability>  (1) 
0.5

>  <s_epik_Chemistry_Notes>  (1) 
This compound has an imine and may undergo hydrolysis. This compound contains an acetal/aminal-like group ( X-CH(R)-Y where X, Y are N, S, or O) that may be acid/base labile, releasing an aldehyde.

>  <s_epik_cmdline>  (1) 
J2VwaWtfcHl0aG9uJywgJy1waHQnLCAnMS4wJywgJy1waCcsICc3LjQnLCAnLXRuJywgJzgnLCAnLW1hJywgJzUwMCcsICctaW1hZScsICc8aW5maWxlLm1hZT4nLCAnLW9tYWUnLCAnPG91dGZpbGUubWFlPic=

>  <s_epik_input>  (1) 
W0NIMl0xW0NIMl1bQ0gyXVtDSDJdW0NASF0oRilbQ0BIXTFbQ0gyXVtDSDJdTy9bQ0hdPVtDSF1cTihbQ0BIXTJPW0NIMl1bQ0gyXVtPSF0pW0NIMl1bQ0gyXU4zW0NAQEhdMltDSDJdW0NAQEhdKFtDQEBIXTM0KVtDQEBIXTRjNW5jKG9uNSlbTkhdW0NIM10=

>  <s_glide_docking_method>  (1) 
confgen

>  <s_i_glide_gridfile>  (1) 
gpcr_drd2_6luq_protein_autoprepared_prepared

>  <s_lp_Force_Field>  (1) 
S-OPLS

>  <s_lp_Variant>  (1) 
DiffSBDD_0-8

>  <s_m_source_file>  (1) 
generated_generic_title2_ligand_DiffSBDD_2026-06-23_prepared.sdf

>  <GenAI_Model>  (1) 
DiffSBDD

>  <Protein>  (1) 
generic_title2

$$$$
DiffSBDD_5
     RDKit          3D

  0  0  0  0  0  0  0  0  0  0999 V3000
M  V30 BEGIN CTAB
M  V30 COUNTS 65 68 0 0 1
M  V30 BEGIN ATOM
M  V30 1 C 8.565351 0.771735 -18.276676 0 CFG=1
M  V30 2 N 9.780239 5.483975 -18.869655 0
M  V30 3 C 12.584237 3.457160 -19.340657 0
M  V30 4 C 7.601277 0.441434 -17.143376 0
M  V30 5 C 7.313921 5.562609 -18.289405 0 CFG=2
M  V30 6 N 9.357686 1.960359 -17.976256 0
M  V30 7 C 10.299105 4.208832 -18.293706 0 CFG=1
M  V30 8 O 10.212158 -0.809627 -17.584708 0 CHG=-1
M  V30 9 C 6.505557 -0.317668 -17.201314 0
M  V30 10 C 9.663717 2.917384 -18.862605 0
M  V30 11 C 8.571563 3.984937 -13.204055 0
M  V30 12 O 10.534825 5.794998 -20.066653 0
M  V30 13 C 6.488110 -0.011628 -14.812589 0 CFG=1
M  V30 14 C 9.524675 -0.389949 -18.542711 0
M  V30 15 C 7.067373 6.744504 -13.550229 0
M  V30 16 C 6.810070 6.077228 -15.954592 0
M  V30 17 C 5.646105 -0.558210 -15.987429 0
M  V30 18 O 9.375393 4.020542 -11.013889 0
M  V30 19 C 10.179812 6.734365 -12.384962 0
M  V30 20 O 8.975234 6.390517 -10.451721 0
M  V30 21 O 6.103626 7.059310 -16.199404 0
M  V30 22 C 7.688000 6.897148 -12.365694 0
M  V30 23 C 7.363841 5.750486 -14.606291 0
M  V30 24 O 9.581274 -0.809753 -19.718046 0
M  V30 25 S 7.775356 1.068061 -15.510502 0
M  V30 26 C 8.868237 6.129391 -11.855191 0 CFG=1
M  V30 27 C 11.860364 4.171892 -18.177782 0
M  V30 28 C 7.593357 6.804457 -19.038166 0
M  V30 29 Cl 5.489026 0.790532 -13.585031 0
M  V30 30 C 6.201721 4.797143 -18.017783 0
M  V30 31 C 12.316187 3.560845 -16.844681 0
M  V30 32 C 8.028083 4.549480 -14.441898 0
M  V30 33 N 7.154768 5.185185 -16.911130 0
M  V30 34 O 9.445550 2.798386 -20.068865 0
M  V30 35 C 8.389142 5.484647 -19.299582 0 CFG=1
M  V30 36 C 8.899345 4.647912 -12.091497 0
M  V30 37 H 7.957652 0.935969 -19.169188 0
M  V30 38 H 12.395283 2.382516 -19.337413 0
M  V30 39 H 12.270487 3.842163 -20.310911 0
M  V30 40 H 13.663167 3.594864 -19.271835 0
M  V30 41 H 9.643732 2.075506 -17.016556 0
M  V30 42 H 9.927086 4.244156 -17.268368 0
M  V30 43 H 6.205039 -0.781823 -18.128567 0
M  V30 44 H 8.726156 2.915030 -13.188960 0
M  V30 45 H 10.942374 6.615084 -19.830964 0
M  V30 46 H 7.014062 -0.810124 -14.301280 0
M  V30 47 H 6.266073 7.439898 -13.755192 0
M  V30 48 H 4.710338 -0.011761 -16.104691 0
M  V30 49 H 5.413073 -1.614196 -15.865305 0
M  V30 50 H 9.464280 4.709596 -10.363116 0
M  V30 51 H 10.393751 6.389757 -13.394308 0
M  V30 52 H 10.152196 7.824182 -12.385137 0
M  V30 53 H 11.036558 6.429168 -11.785219 0
M  V30 54 H 8.208510 6.877245 -10.141082 0
M  V30 55 H 7.337345 7.684167 -11.712512 0
M  V30 56 H 12.219654 5.201043 -18.161992 0
M  V30 57 H 6.876978 7.122454 -19.792223 0
M  V30 58 H 8.170281 7.590173 -18.568333 0
M  V30 59 H 6.216517 3.760517 -18.350458 0
M  V30 60 H 5.229596 5.285888 -18.045536 0
M  V30 61 H 12.043807 2.506548 -16.785011 0
M  V30 62 H 13.398001 3.626944 -16.728847 0
M  V30 63 H 11.868993 4.078722 -15.994750 0
M  V30 64 H 8.115815 3.909131 -15.301215 0
M  V30 65 H 8.116194 4.965327 -20.217543 0
M  V30 END ATOM
M  V30 BEGIN BOND
M  V30 1 1 4 1
M  V30 2 1 6 1
M  V30 3 1 7 2
M  V30 4 2 9 4
M  V30 5 1 10 6
M  V30 6 1 10 7
M  V30 7 1 12 2
M  V30 8 1 14 1
M  V30 9 1 14 8
M  V30 10 1 17 9
M  V30 11 1 17 13
M  V30 12 2 21 16
M  V30 13 2 22 15
M  V30 14 1 23 15
M  V30 15 1 23 16
M  V30 16 2 24 14
M  V30 17 1 25 4
M  V30 18 1 25 13
M  V30 19 1 26 19
M  V30 20 1 26 20 CFG=1
M  V30 21 1 26 22
M  V30 22 1 27 3
M  V30 23 1 27 7
M  V30 24 1 28 5
M  V30 25 1 29 13
M  V30 26 1 30 5
M  V30 27 1 31 27
M  V30 28 1 32 11
M  V30 29 2 32 23
M  V30 30 1 5 33 CFG=1
M  V30 31 1 33 16
M  V30 32 1 33 30
M  V30 33 2 34 10
M  V30 34 1 35 2
M  V30 35 1 35 5
M  V30 36 1 35 28
M  V30 37 2 36 11
M  V30 38 1 36 18
M  V30 39 1 36 26
M  V30 40 1 1 37 CFG=3
M  V30 41 1 38 3
M  V30 42 1 39 3
M  V30 43 1 40 3
M  V30 44 1 41 6
M  V30 45 1 7 42 CFG=1
M  V30 46 1 43 9
M  V30 47 1 44 11
M  V30 48 1 45 12
M  V30 49 1 13 46 CFG=1
M  V30 50 1 47 15
M  V30 51 1 48 17
M  V30 52 1 49 17
M  V30 53 1 50 18
M  V30 54 1 51 19
M  V30 55 1 52 19
M  V30 56 1 53 19
M  V30 57 1 54 20
M  V30 58 1 55 22
M  V30 59 1 56 27
M  V30 60 1 57 28
M  V30 61 1 58 28
M  V30 62 1 59 30
M  V30 63 1 60 30
M  V30 64 1 61 31
M  V30 65 1 62 31
M  V30 66 1 63 31
M  V30 67 1 64 32
M  V30 68 1 35 65 CFG=3
M  V30 END BOND
M  V30 END CTAB
M  END
>  <i_epik_Tot_Q>  (1) 
-1

>  <i_epik_Tot_abs_Q>  (1) 
1

>  <i_i_glide_confnum>  (1) 
559

>  <i_i_glide_lignum>  (1) 
28

>  <i_i_glide_posenum>  (1) 
331

>  <i_i_glide_rotatable_bonds>  (1) 
13

>  <i_lp_mmshare_version>  (1) 
72125

>  <i_m_source_file_index>  (1) 
6

>  <i_f3d_flags>  (1) 
0

>  <num_sample>  (1) 
50

>  <b_lp_Chiralities_Consistent>  (1) 
1

>  <r_epik_Charging_Adjusted_Penalty>  (1) 
0.077690704590845053

>  <r_epik_Ionization_Penalty>  (1) 
0.082549720368024937

>  <r_epik_Ionization_Penalty_Charging>  (1) 
8.0199661793119585e-06

>  <r_epik_Ionization_Penalty_Neutral>  (1) 
0.082541700401845622

>  <r_epik_State_Penalty>  (1) 
0.077682684624665738

>  <r_glide_ring_energy>  (1) 
1.4769951276530608

>  <r_i_docking_score>  (1) 
-3.4298058865653891

>  <r_i_glide_ecoul>  (1) 
-3.7907228503696744

>  <r_i_glide_eff_state_penalty>  (1) 
0.077682684624665738

>  <r_i_glide_einternal>  (1) 
14.324822193334477

>  <r_i_glide_emodel>  (1) 
-34.450392560076409

>  <r_i_glide_emodel_strain>  (1) 
1.4324531939844292

>  <r_i_glide_energy>  (1) 
-36.824160366233563

>  <r_i_glide_erotb>  (1) 
0.49788325422123908

>  <r_i_glide_esite>  (1) 
0

>  <r_i_glide_evdw>  (1) 
-33.033437515863888

>  <r_i_glide_gscore>  (1) 
-3.5074885711900547

>  <r_i_glide_gscore_strain>  (1) 
0

>  <r_i_glide_hbond>  (1) 
-0.16

>  <r_i_glide_ligand_efficiency>  (1) 
-0.09527238573792747

>  <r_i_glide_ligand_efficiency_ln>  (1) 
-0.74829098180200126

>  <r_i_glide_ligand_efficiency_sa>  (1) 
-0.31458248653526261

>  <r_i_glide_lipo>  (1) 
-1.4609774012759091

>  <r_i_glide_metal>  (1) 
-0

>  <r_i_glide_rewards>  (1) 
-0.16411412078673926

>  <r_lp_Energy>  (1) 
46.399811

>  <s_epik_Chemistry_Notes>  (1) 
This compound has a N-S or N-O group and may undergo hydrolysis at high or low pH.

>  <s_epik_cmdline>  (1) 
J2VwaWtfcHl0aG9uJywgJy1waHQnLCAnMS4wJywgJy1waCcsICc3LjQnLCAnLXRuJywgJzgnLCAnLW1hJywgJzUwMCcsICctaW1hZScsICc8aW5maWxlLm1hZT4nLCAnLW9tYWUnLCAnPG91dGZpbGUubWFlPic=

>  <s_epik_input>  (1) 
UzFbQ0BASF0oQ2wpW0NIMl1bQ0hdPUMxW0NASF0oQyg9TylbT0hdKVtOSF1DKD1PKVtDQEBIXShbQ0hdKFtDSDNdKVtDSDNdKU4oW09IXSlbQ0hdMltDSDJdQzIzW0NIMl1OM0MoPU8pQyhbQ0hdPVtDSF1bQ0BAXTQoW0NIM10pW09IXSk9W0NIXVtDSF09QzRbT0hd

>  <s_glide_docking_method>  (1) 
confgen

>  <s_i_glide_gridfile>  (1) 
gpcr_drd2_6luq_protein_autoprepared_prepared

>  <s_lp_Force_Field>  (1) 
S-OPLS

>  <s_lp_Variant>  (1) 
DiffSBDD_5-1

>  <s_m_source_file>  (1) 
generated_generic_title2_ligand_DiffSBDD_2026-06-23_prepared.sdf

>  <GenAI_Model>  (1) 
DiffSBDD

>  <Protein>  (1) 
generic_title2

$$$$
DiffSBDD_43
     RDKit          3D

  0  0  0  0  0  0  0  0  0  0999 V3000
M  V30 BEGIN CTAB
M  V30 COUNTS 78 82 0 0 1
M  V30 BEGIN ATOM
M  V30 1 N 9.875443 6.390318 -9.737800 0
M  V30 2 C 10.039637 7.818547 -9.330051 0 CFG=1
M  V30 3 C 7.172154 4.490914 -18.526618 0
M  V30 4 C 11.351770 8.708342 -6.694159 0 CFG=1
M  V30 5 C 7.419057 6.026869 -13.982269 0 CFG=2
M  V30 6 Cl 6.975408 3.394202 -15.586264 0
M  V30 7 C 11.718859 9.990220 -4.467540 0
M  V30 8 C 5.425642 5.975834 -17.309475 0
M  V30 9 N 10.204065 7.884737 -6.841117 0
M  V30 10 C 7.453463 5.010149 -12.781827 0
M  V30 11 C 11.879798 8.734567 -5.298439 0
M  V30 12 O 8.575412 5.938607 -9.298017 0
M  V30 13 C 8.252922 4.798691 -17.453720 0 CFG=1
M  V30 14 C 8.608362 2.808232 -12.822234 0
M  V30 15 C 11.692382 7.467182 -4.525520 0
M  V30 16 C 9.195377 5.922805 -17.916058 0
M  V30 17 C 6.457267 6.066575 -16.166672 0 CFG=1
M  V30 18 O 5.054651 5.370102 -14.244113 0
M  V30 19 C 5.416917 7.636846 -14.541334 0
M  V30 20 C 9.911172 6.070125 -11.181476 0
M  V30 21 C 6.038241 6.250110 -14.710211 0 CFG=1
M  V30 22 C 6.097708 5.598266 -18.646301 0
M  V30 23 C 9.373150 8.194198 -7.972053 0
M  V30 24 C 7.549580 5.008575 -16.088780 0 CFG=1
M  V30 25 C 9.965159 6.776782 -6.102026 0
M  V30 26 N 8.756835 4.283543 -12.676144 0 CFG=2 CHG=1
M  V30 27 O 8.300212 5.537994 -14.987531 0
M  V30 28 C 11.560676 8.235992 -9.251933 0
M  V30 29 C 13.079433 9.590218 -4.974269 0
M  V30 30 O 7.834077 7.274974 -13.499559 0
M  V30 31 N 10.762551 6.599036 -4.998320 0
M  V30 32 C 12.267310 8.203993 -7.841711 0
M  V30 33 O 12.335150 7.228813 -3.504592 0
M  V30 34 C 9.318617 8.662182 -10.404775 0
M  V30 35 C 9.632728 4.581710 -11.508127 0
M  V30 36 O 9.071569 5.990279 -6.385096 0
M  V30 37 H 7.643654 4.331297 -19.497880 0
M  V30 38 H 6.673110 3.549896 -18.295551 0
M  V30 39 H 11.079285 9.733425 -6.922445 0
M  V30 40 H 11.223185 10.840638 -4.931024 0
M  V30 41 H 11.544288 9.892855 -3.395112 0
M  V30 42 H 4.940894 6.946755 -17.429293 0
M  V30 43 H 4.607063 5.306848 -17.097499 0
M  V30 44 H 6.681266 4.258873 -12.929292 0
M  V30 45 H 7.174075 5.514842 -11.854948 0
M  V30 46 H 7.989647 6.682952 -9.485813 0
M  V30 47 H 8.883333 3.914733 -17.352417 0
M  V30 48 H 7.691932 2.423574 -12.385021 0
M  V30 49 H 8.575457 2.510889 -13.863359 0
M  V30 50 H 9.446478 2.265765 -12.385016 0
M  V30 51 H 8.660998 6.790192 -18.304728 0
M  V30 52 H 9.857257 6.237623 -17.109351 0
M  V30 53 H 9.831258 5.568010 -18.726439 0
M  V30 54 H 6.975424 6.984494 -16.429797 0
M  V30 55 H 4.793702 5.654114 -13.380741 0
M  V30 56 H 6.131489 8.390226 -14.847180 0
M  V30 57 H 4.575416 7.796513 -15.210690 0
M  V30 58 H 5.098460 7.833091 -13.514551 0
M  V30 59 H 9.159715 6.630940 -11.701362 0
M  V30 60 H 10.859000 6.389871 -11.616061 0
M  V30 61 H 6.555057 6.487697 -19.077776 0
M  V30 62 H 5.329957 5.292009 -19.358169 0
M  V30 63 H 9.138645 9.247808 -7.911177 0
M  V30 64 H 8.417916 7.750312 -7.795263 0
M  V30 65 H 12.153207 7.669275 -9.971819 0
M  V30 66 H 11.630851 9.273138 -9.583954 0
M  V30 67 H 13.775381 9.238831 -4.226892 0
M  V30 68 H 13.524663 10.133011 -5.806416 0
M  V30 69 H 8.751706 7.224815 -13.285652 0
M  V30 70 H 10.609652 5.758705 -4.460379 0
M  V30 71 H 13.186177 8.789115 -7.883260 0
M  V30 72 H 12.575305 7.190193 -7.611156 0
M  V30 73 H 8.977013 9.605258 -10.002885 0
M  V30 74 H 9.940435 8.790228 -11.286620 0
M  V30 75 H 8.396885 8.242249 -10.785069 0
M  V30 76 H 10.575350 4.150973 -11.809281 0
M  V30 77 H 9.290255 4.013543 -10.642322 0
M  V30 78 H 9.275161 4.583266 -13.491959 0
M  V30 END ATOM
M  V30 BEGIN BOND
M  V30 1 1 2 1 CFG=3
M  V30 2 1 9 4
M  V30 3 1 10 5
M  V30 4 1 11 4
M  V30 5 1 11 7
M  V30 6 1 12 1
M  V30 7 1 13 3
M  V30 8 1 15 11
M  V30 9 1 16 13
M  V30 10 1 17 8
M  V30 11 1 20 1
M  V30 12 1 21 5
M  V30 13 1 21 17
M  V30 14 1 21 18 CFG=1
M  V30 15 1 21 19
M  V30 16 1 22 3
M  V30 17 1 22 8
M  V30 18 1 23 2
M  V30 19 1 23 9
M  V30 20 1 24 6 CFG=1
M  V30 21 1 24 13
M  V30 22 1 24 17
M  V30 23 1 25 9
M  V30 24 1 26 10
M  V30 25 1 26 14
M  V30 26 1 27 5
M  V30 27 1 27 24
M  V30 28 1 28 2
M  V30 29 1 29 7
M  V30 30 1 29 11
M  V30 31 1 5 30 CFG=1
M  V30 32 1 31 15
M  V30 33 1 31 25
M  V30 34 1 32 4
M  V30 35 1 32 28
M  V30 36 2 33 15
M  V30 37 1 34 2
M  V30 38 1 35 20
M  V30 39 1 35 26
M  V30 40 2 36 25
M  V30 41 1 37 3
M  V30 42 1 38 3
M  V30 43 1 4 39 CFG=3
M  V30 44 1 40 7
M  V30 45 1 41 7
M  V30 46 1 42 8
M  V30 47 1 43 8
M  V30 48 1 44 10
M  V30 49 1 45 10
M  V30 50 1 46 12
M  V30 51 1 13 47 CFG=1
M  V30 52 1 48 14
M  V30 53 1 49 14
M  V30 54 1 50 14
M  V30 55 1 51 16
M  V30 56 1 52 16
M  V30 57 1 53 16
M  V30 58 1 17 54 CFG=3
M  V30 59 1 55 18
M  V30 60 1 56 19
M  V30 61 1 57 19
M  V30 62 1 58 19
M  V30 63 1 59 20
M  V30 64 1 60 20
M  V30 65 1 61 22
M  V30 66 1 62 22
M  V30 67 1 63 23
M  V30 68 1 64 23
M  V30 69 1 65 28
M  V30 70 1 66 28
M  V30 71 1 67 29
M  V30 72 1 68 29
M  V30 73 1 69 30
M  V30 74 1 70 31
M  V30 75 1 71 32
M  V30 76 1 72 32
M  V30 77 1 73 34
M  V30 78 1 74 34
M  V30 79 1 75 34
M  V30 80 1 76 35
M  V30 81 1 77 35
M  V30 82 1 26 78 CFG=3
M  V30 END BOND
M  V30 END CTAB
M  END
>  <i_epik_Tot_Q>  (1) 
1

>  <i_epik_Tot_abs_Q>  (1) 
1

>  <i_i_glide_confnum>  (1) 
14

>  <i_i_glide_lignum>  (1) 
118

>  <i_i_glide_posenum>  (1) 
133

>  <i_i_glide_rotatable_bonds>  (1) 
9

>  <i_lp_mmshare_version>  (1) 
72125

>  <i_m_source_file_index>  (1) 
44

>  <i_f3d_flags>  (1) 
0

>  <num_sample>  (1) 
50

>  <b_lp_Chiralities_Consistent>  (1) 
1

>  <r_epik_Charging_Adjusted_Penalty>  (1) 
0.34224393187987273

>  <r_epik_Ionization_Penalty>  (1) 
0.17191807241559104

>  <r_epik_Ionization_Penalty_Charging>  (1) 
0.17112196593993639

>  <r_epik_Ionization_Penalty_Neutral>  (1) 
0.00079610647565464391

>  <r_epik_State_Penalty>  (1) 
0.17112196593993634

>  <r_glide_ring_energy>  (1) 
0

>  <r_i_docking_score>  (1) 
-3.4225841435062305

>  <r_i_glide_ecoul>  (1) 
-8.5657475154798473

>  <r_i_glide_eff_state_penalty>  (1) 
0.17112196593993634

>  <r_i_glide_einternal>  (1) 
7.4175407087107121

>  <r_i_glide_emodel>  (1) 
-5.1461769163500826

>  <r_i_glide_emodel_strain>  (1) 
11.820836208100701

>  <r_i_glide_energy>  (1) 
-15.024984212233731

>  <r_i_glide_erotb>  (1) 
0.44011442581216542

>  <r_i_glide_esite>  (1) 
-0.1553373182149132

>  <r_i_glide_evdw>  (1) 
-6.4592366967538837

>  <r_i_glide_gscore>  (1) 
-3.5937061094461669

>  <r_i_glide_gscore_strain>  (1) 
1.9552090520251753

>  <r_i_glide_hbond>  (1) 
-0.16

>  <r_i_glide_ligand_efficiency>  (1) 
-0.095071781764061961

>  <r_i_glide_ligand_efficiency_ln>  (1) 
-0.74671539257544273

>  <r_i_glide_ligand_efficiency_sa>  (1) 
-0.31392010680771948

>  <r_i_glide_lipo>  (1) 
-2.8276022172249502

>  <r_i_glide_metal>  (1) 
-0

>  <r_i_glide_rewards>  (1) 
-1.2382660896839728

>  <r_lp_Energy>  (1) 
41.055799999999998

>  <r_lp_tautomer_probability>  (1) 
0.99999999996150013

>  <s_epik_Chemistry_Notes>  (1) 
This compound has a N-S or N-O group and may undergo hydrolysis at high or low pH.

>  <s_epik_cmdline>  (1) 
J2VwaWtfcHl0aG9uJywgJy1waHQnLCAnMS4wJywgJy1waCcsICc3LjQnLCAnLXRuJywgJzgnLCAnLW1hJywgJzUwMCcsICctaW1hZScsICc8aW5maWxlLm1hZT4nLCAnLW9tYWUnLCAnPG91dGZpbGUubWFlPic=

>  <s_epik_input>  (1) 
W0NIMl0xW0NIMl1DMTJbQ0BASF0zTihDKD1PKVtOSF1DMj1PKVtDSDJdW0NAQF0oW0NIM10pKFtDSDJdW0NIMl0zKU4oW09IXSlbQ0gyXVtDSDJdTihbQ0gzXSlbQ0gyXVtDQF0oTzQpKFtPSF0pW0NAQF0oW09IXSkoW0NIM10pW0NAQEhdKFtDQF00NUNsKVtDSDJdW0NIMl1bQ0gyXVtDQEhdNVtDSDNd

>  <s_glide_docking_method>  (1) 
confgen

>  <s_i_glide_gridfile>  (1) 
gpcr_drd2_6luq_protein_autoprepared_prepared

>  <s_lp_Force_Field>  (1) 
S-OPLS

>  <s_lp_Variant>  (1) 
DiffSBDD_43-2

>  <s_m_source_file>  (1) 
generated_generic_title2_ligand_DiffSBDD_2026-06-23_prepared.sdf

>  <GenAI_Model>  (1) 
DiffSBDD

>  <Protein>  (1) 
generic_title2

$$$$
DiffSBDD_1
     RDKit          3D

  0  0  0  0  0  0  0  0  0  0999 V3000
M  V30 BEGIN CTAB
M  V30 COUNTS 89 91 0 0 1
M  V30 BEGIN ATOM
M  V30 1 O 6.969792 7.312759 -14.811120 0
M  V30 2 O 8.152612 5.855848 -11.184980 0
M  V30 3 C 6.338070 4.351979 -19.063719 0 CFG=2
M  V30 4 C 7.968194 3.922261 -21.041520 0
M  V30 5 C 10.289183 -0.279064 -19.779635 0
M  V30 6 C 12.159747 7.854555 -9.533373 0
M  V30 7 C 7.743079 -0.335893 -17.359619 0
M  V30 8 C 8.602364 6.844862 -12.088693 0 CFG=1
M  V30 9 C 5.974805 5.814271 -19.480749 0 CFG=1
M  V30 10 C 6.242719 1.281850 -18.756505 0 CFG=2
M  V30 11 C 8.894224 2.722470 -21.241080 0
M  V30 12 O 4.175418 8.509337 -20.500926 0 CHG=-1
M  V30 13 C 9.038076 0.292017 -20.478390 0
M  V30 14 C 7.405395 4.419487 -17.934679 0
M  V30 15 C 7.414286 7.761345 -12.475997 0
M  V30 16 C 8.864314 -1.291300 -17.828616 0
M  V30 17 C 6.750084 3.407295 -20.246210 0 CFG=1
M  V30 18 C 10.157190 -0.578982 -18.268839 0
M  V30 19 C 9.829976 7.552045 -11.448854 0
M  V30 20 C 6.530086 6.664721 -17.130574 0 CFG=2
M  V30 21 C 10.605468 8.692298 -7.744189 0
M  V30 22 F 5.474369 -0.563776 -17.582253 0
M  V30 23 C 10.870630 8.634740 -9.258532 0
M  V30 24 C 6.989086 5.263781 -16.730297 0
M  V30 25 C 5.941268 5.744030 -13.251478 0
M  V30 26 F 4.978533 1.312361 -19.184914 0
M  V30 27 O 6.347210 8.033188 -21.689357 0 CHG=-1
M  V30 28 O 4.152265 7.383891 -22.744710 0
M  V30 29 P 4.916426 7.594543 -21.453707 0
M  V30 30 C 9.640315 8.047207 -9.992086 0
M  V30 31 C 6.400772 7.191896 -13.509366 0 CFG=2
M  V30 32 C 7.047201 1.902366 -19.946251 0 CFG=1
M  V30 33 O 9.258912 2.209805 -18.959378 0
M  V30 34 C 6.028951 7.425875 -15.883924 0
M  V30 35 C 4.995612 5.927785 -20.679689 0
M  V30 36 C 8.582849 1.731904 -20.101424 0 CFG=2
M  V30 37 C 5.470834 6.598754 -18.241636 0
M  V30 38 C 6.526353 -0.173411 -18.307049 0 CFG=2
M  V30 39 H 7.762673 6.309175 -10.442423 0
M  V30 40 H 5.423756 3.927185 -18.654200 0
M  V30 41 H 7.665732 4.363030 -21.992608 0
M  V30 42 H 8.504958 4.700339 -20.501553 0
M  V30 43 H 10.556342 -1.201184 -20.299701 0
M  V30 44 H 11.136636 0.387414 -19.942018 0
M  V30 45 H 11.988154 6.794506 -9.358698 0
M  V30 46 H 12.488123 7.981180 -10.564379 0
M  V30 47 H 12.976191 8.185351 -8.890820 0
M  V30 48 H 7.379297 -0.731274 -16.408367 0
M  V30 49 H 8.150484 0.637067 -17.084888 0
M  V30 50 H 8.947339 6.339114 -12.992036 0
M  V30 51 H 6.898047 6.293107 -19.807618 0
M  V30 52 H 6.255909 1.904746 -17.868747 0
M  V30 53 H 8.645114 2.278643 -22.205817 0
M  V30 54 H 9.945234 3.011025 -21.287029 0
M  V30 55 H 8.222603 -0.413646 -20.368830 0
M  V30 56 H 9.232493 0.253245 -21.549711 0
M  V30 57 H 8.338096 4.827634 -18.322714 0
M  V30 58 H 7.654741 3.437675 -17.548249 0
M  V30 59 H 6.866282 8.056270 -11.585264 0
M  V30 60 H 7.809420 8.694091 -12.877171 0
M  V30 61 H 8.517246 -1.994356 -18.585235 0
M  V30 62 H 9.126778 -1.915856 -16.973574 0
M  V30 63 H 5.895778 3.362190 -20.919458 0
M  V30 64 H 10.999113 -1.205102 -17.981882 0
M  V30 65 H 10.302753 0.322814 -17.676644 0
M  V30 66 H 10.644154 6.827148 -11.468773 0
M  V30 67 H 10.156441 8.379405 -12.075266 0
M  V30 68 H 7.374816 7.173838 -17.584134 0
M  V30 69 H 10.569684 7.690547 -7.314048 0
M  V30 70 H 11.385225 9.249612 -7.225095 0
M  V30 71 H 9.649171 9.167188 -7.524187 0
M  V30 72 H 11.028790 9.660140 -9.584864 0
M  V30 73 H 7.840214 5.327774 -16.050802 0
M  V30 74 H 6.199832 4.789697 -16.158648 0
M  V30 75 H 5.550524 5.632858 -12.239490 0
M  V30 76 H 5.150340 5.444303 -13.937799 0
M  V30 77 H 6.760032 5.035513 -13.374802 0
M  V30 78 H 8.859116 8.805111 -9.985270 0
M  V30 79 H 9.275087 7.216683 -9.387882 0
M  V30 80 H 5.502952 7.811189 -13.456692 0
M  V30 81 H 6.661552 1.368473 -20.818907 0
M  V30 82 H 10.184573 2.227055 -19.145288 0
M  V30 83 H 5.057590 7.019853 -15.601234 0
M  V30 84 H 5.867847 8.480041 -16.112122 0
M  V30 85 H 5.315473 5.284223 -21.493627 0
M  V30 86 H 4.008875 5.570542 -20.394657 0
M  V30 87 H 4.551578 6.148422 -17.865887 0
M  V30 88 H 5.221649 7.622897 -18.508157 0
M  V30 89 H 6.537237 -0.865826 -19.145933 0
M  V30 END ATOM
M  V30 BEGIN BOND
M  V30 1 1 8 2
M  V30 2 1 9 3
M  V30 3 1 11 4
M  V30 4 1 13 5
M  V30 5 1 14 3
M  V30 6 1 15 8
M  V30 7 1 16 7
M  V30 8 1 17 3
M  V30 9 1 17 4
M  V30 10 1 18 5
M  V30 11 1 18 16
M  V30 12 1 19 8
M  V30 13 1 23 6
M  V30 14 1 23 21
M  V30 15 1 24 14
M  V30 16 1 24 20
M  V30 17 1 26 10
M  V30 18 1 29 12
M  V30 19 1 29 27
M  V30 20 2 29 28
M  V30 21 1 30 19
M  V30 22 1 30 23
M  V30 23 1 31 1
M  V30 24 1 31 15
M  V30 25 1 31 25
M  V30 26 1 32 10
M  V30 27 1 32 17
M  V30 28 1 34 1
M  V30 29 1 34 20
M  V30 30 1 35 9
M  V30 31 1 35 29
M  V30 32 1 36 11
M  V30 33 1 36 13
M  V30 34 1 36 32
M  V30 35 1 36 33 CFG=1
M  V30 36 1 37 9
M  V30 37 1 37 20
M  V30 38 1 38 7
M  V30 39 1 38 10
M  V30 40 1 38 22
M  V30 41 1 39 2
M  V30 42 1 3 40 CFG=1
M  V30 43 1 41 4
M  V30 44 1 42 4
M  V30 45 1 43 5
M  V30 46 1 44 5
M  V30 47 1 45 6
M  V30 48 1 46 6
M  V30 49 1 47 6
M  V30 50 1 48 7
M  V30 51 1 49 7
M  V30 52 1 8 50 CFG=3
M  V30 53 1 9 51 CFG=3
M  V30 54 1 10 52 CFG=1
M  V30 55 1 53 11
M  V30 56 1 54 11
M  V30 57 1 55 13
M  V30 58 1 56 13
M  V30 59 1 57 14
M  V30 60 1 58 14
M  V30 61 1 59 15
M  V30 62 1 60 15
M  V30 63 1 61 16
M  V30 64 1 62 16
M  V30 65 1 17 63 CFG=3
M  V30 66 1 64 18
M  V30 67 1 65 18
M  V30 68 1 66 19
M  V30 69 1 67 19
M  V30 70 1 20 68 CFG=3
M  V30 71 1 69 21
M  V30 72 1 70 21
M  V30 73 1 71 21
M  V30 74 1 72 23
M  V30 75 1 73 24
M  V30 76 1 74 24
M  V30 77 1 75 25
M  V30 78 1 76 25
M  V30 79 1 77 25
M  V30 80 1 78 30
M  V30 81 1 79 30
M  V30 82 1 31 80 CFG=3
M  V30 83 1 32 81 CFG=3
M  V30 84 1 82 33
M  V30 85 1 83 34
M  V30 86 1 84 34
M  V30 87 1 85 35
M  V30 88 1 86 35
M  V30 89 1 87 37
M  V30 90 1 88 37
M  V30 91 1 38 89 CFG=3
M  V30 END BOND
M  V30 END CTAB
M  END
>  <i_epik_Tot_Q>  (1) 
-2

>  <i_epik_Tot_abs_Q>  (1) 
2

>  <i_i_glide_confnum>  (1) 
670

>  <i_i_glide_lignum>  (1) 
20

>  <i_i_glide_posenum>  (1) 
152

>  <i_i_glide_rotatable_bonds>  (1) 
13

>  <i_lp_mmshare_version>  (1) 
72125

>  <i_m_source_file_index>  (1) 
2

>  <i_f3d_flags>  (1) 
0

>  <num_sample>  (1) 
50

>  <b_lp_Chiralities_Consistent>  (1) 
1

>  <r_epik_Charging_Adjusted_Penalty>  (1) 
1.8994269935217587

>  <r_epik_Ionization_Penalty>  (1) 
0.94971411018702601

>  <r_epik_Ionization_Penalty_Charging>  (1) 
0.94971349676087924

>  <r_epik_Ionization_Penalty_Neutral>  (1) 
6.1342614676121867e-07

>  <r_epik_State_Penalty>  (1) 
0.94971349676087935

>  <r_glide_ring_energy>  (1) 
0

>  <r_i_docking_score>  (1) 
-3.4016495258779624

>  <r_i_glide_ecoul>  (1) 
-2.5111829635744596

>  <r_i_glide_eff_state_penalty>  (1) 
0.94971349676087935

>  <r_i_glide_einternal>  (1) 
5.8883916280691331

>  <r_i_glide_emodel>  (1) 
-34.968675773333828

>  <r_i_glide_emodel_strain>  (1) 
1.7232026881959399

>  <r_i_glide_energy>  (1) 
-31.142156741246293

>  <r_i_glide_erotb>  (1) 
0.50299043937721266

>  <r_i_glide_esite>  (1) 
0

>  <r_i_glide_evdw>  (1) 
-28.630973777671834

>  <r_i_glide_gscore>  (1) 
-4.351363022638842

>  <r_i_glide_gscore_strain>  (1) 
0

>  <r_i_glide_hbond>  (1) 
-0.16

>  <r_i_glide_ligand_efficiency>  (1) 
-0.089517092786262173

>  <r_i_glide_ligand_efficiency_ln>  (1) 
-0.73349570417008869

>  <r_i_glide_ligand_efficiency_sa>  (1) 
-0.30095426443555434

>  <r_i_glide_lipo>  (1) 
-2.1485434417976417

>  <r_i_glide_metal>  (1) 
-0

>  <r_i_glide_rewards>  (1) 
-0.73758388679865161

>  <r_lp_Energy>  (1) 
44.677890999999995

>  <s_epik_cmdline>  (1) 
J2VwaWtfcHl0aG9uJywgJy1waHQnLCAnMS4wJywgJy1waCcsICc3LjQnLCAnLXRuJywgJzgnLCAnLW1hJywgJzUwMCcsICctaW1hZScsICc8aW5maWxlLm1hZT4nLCAnLW9tYWUnLCAnPG91dGZpbGUubWFlPic=

>  <s_epik_input>  (1) 
W0NIM11bQ0hdKFtDSDNdKVtDSDJdW0NIMl1bQ0BASF0oW09IXSlbQ0gyXVtDQEhdKFtDSDNdKU9bQ0gyXVtDQEBIXShbQ0gyXVtDSDJdMSlbQ0gyXVtDQEhdKFtDSDJdUCg9TykoW09IXSlbT0hdKVtDQEhdMVtDQEBIXShbQ0gyXVtDSDJdMilbQ0BASF0oW0NAXTIzW09IXSlbQ0BASF0oRilbQ0BIXShGKVtDSDJdW0NIMl1bQ0gyXVtDSDJdW0NIMl0z

>  <s_glide_docking_method>  (1) 
confgen

>  <s_i_glide_gridfile>  (1) 
gpcr_drd2_6luq_protein_autoprepared_prepared

>  <s_lp_Force_Field>  (1) 
S-OPLS

>  <s_lp_Variant>  (1) 
DiffSBDD_1-4

>  <s_m_source_file>  (1) 
generated_generic_title2_ligand_DiffSBDD_2026-06-23_prepared.sdf

>  <GenAI_Model>  (1) 
DiffSBDD

>  <Protein>  (1) 
generic_title2

$$$$
DiffSBDD_20
     RDKit          3D

  0  0  0  0  0  0  0  0  0  0999 V3000
M  V30 BEGIN CTAB
M  V30 COUNTS 72 74 0 0 1
M  V30 BEGIN ATOM
M  V30 1 C 14.450132 4.356054 -19.409584 0
M  V30 2 C 6.144801 5.441623 -18.469237 0
M  V30 3 C 10.037053 4.989099 -18.193228 0 CFG=1
M  V30 4 C 13.310510 4.173430 -20.085816 0
M  V30 5 C 14.555547 4.622531 -17.960464 0 CFG=1
M  V30 6 C 9.273065 4.413740 -10.238563 0
M  V30 7 C 7.552829 5.235769 -12.971378 0 CFG=1
M  V30 8 F 15.830620 4.827299 -17.627370 0
M  V30 9 C 6.277327 5.232386 -15.233873 0
M  V30 10 O 10.173979 5.757279 -11.984962 0
M  V30 11 C 9.756006 4.689518 -16.704506 0
M  V30 12 C 6.352589 5.785650 -13.792163 0 CFG=2
M  V30 13 C 9.600435 8.314477 -10.502485 0
M  V30 14 C 11.943501 4.274109 -19.547177 0
M  V30 15 C 11.531847 5.009112 -18.477642 0
M  V30 16 C 12.401202 5.867550 -17.644767 0
M  V30 17 C 7.800161 5.985980 -11.626323 0 CFG=2
M  V30 18 C 8.095407 4.371978 -19.870076 0
M  V30 19 N 8.327002 4.450114 -16.405983 0 CHG=1
M  V30 20 C 6.789970 4.168516 -19.064696 0
M  V30 21 C 9.231422 6.739205 -8.506044 0
M  V30 22 C 7.455016 5.624947 -16.168638 0 CFG=1
M  V30 23 O 6.391127 7.190081 -13.909825 0
M  V30 24 C 9.207393 5.769896 -10.950962 0 CFG=1
M  V30 25 S 10.668887 3.454644 -20.391703 0
M  V30 26 C 13.717663 5.725697 -17.444576 0
M  V30 27 C 9.719376 6.878675 -9.967122 0
M  V30 28 C 6.975382 6.287720 -17.485993 0
M  V30 29 C 9.403306 3.931666 -19.167973 0 CFG=1
M  V30 30 O 6.730227 5.590219 -10.784524 0
M  V30 31 N 7.346148 3.802442 -12.686888 0 CHG=1
M  V30 32 H 15.387640 4.246476 -19.935401 0
M  V30 33 H 5.196411 5.190202 -17.996895 0
M  V30 34 H 5.868159 6.090071 -19.301659 0
M  V30 35 H 9.698282 5.987112 -18.460541 0
M  V30 36 H 13.403011 3.912754 -21.131068 0
M  V30 37 H 14.274094 3.713265 -17.429313 0
M  V30 38 H 8.462078 4.381206 -9.513173 0
M  V30 39 H 10.175152 4.290957 -9.652029 0
M  V30 40 H 9.209054 3.564066 -10.912094 0
M  V30 41 H 8.433119 5.324138 -13.604473 0
M  V30 42 H 6.175114 4.148953 -15.185554 0
M  V30 43 H 5.343809 5.591361 -15.667802 0
M  V30 44 H 10.354516 6.651325 -12.233472 0
M  V30 45 H 10.296232 3.781073 -16.433149 0
M  V30 46 H 10.142924 5.478627 -16.057607 0
M  V30 47 H 5.422707 5.546764 -13.272692 0
M  V30 48 H 8.575954 8.676562 -10.562045 0
M  V30 49 H 10.034058 8.393650 -11.497965 0
M  V30 50 H 10.140113 8.995498 -9.845954 0
M  V30 51 H 11.923355 6.689815 -17.134187 0
M  V30 52 H 7.689805 7.051622 -11.807771 0
M  V30 53 H 7.994235 3.752759 -20.762742 0
M  V30 54 H 8.175210 5.391106 -20.249461 0
M  V30 55 H 7.926834 3.902624 -17.154019 0
M  V30 56 H 6.900245 3.378134 -18.323835 0
M  V30 57 H 6.051112 3.762755 -19.758466 0
M  V30 58 H 8.199678 6.390364 -8.436445 0
M  V30 59 H 9.301796 7.684505 -7.965682 0
M  V30 60 H 9.837963 6.011083 -7.965072 0
M  V30 61 H 8.050257 6.376462 -15.647060 0
M  V30 62 H 6.160856 7.578817 -13.075871 0
M  V30 63 H 14.221952 6.435111 -16.803764 0
M  V30 64 H 10.798835 6.747236 -9.874632 0
M  V30 65 H 7.802785 6.736514 -18.023762 0
M  V30 66 H 6.367477 7.148534 -17.208281 0
M  V30 67 H 9.218998 3.002141 -18.628546 0
M  V30 68 H 6.674706 6.251874 -10.090065 0
M  V30 69 H 6.653974 3.768098 -11.947684 0
M  V30 70 H 8.205700 3.406942 -12.332425 0
M  V30 71 H 8.315572 3.892986 -15.566326 0
M  V30 72 H 7.022535 3.288588 -13.490480 0
M  V30 END ATOM
M  V30 BEGIN BOND
M  V30 1 2 4 1
M  V30 2 1 5 1
M  V30 3 1 8 5
M  V30 4 1 11 3
M  V30 5 1 12 7
M  V30 6 1 12 9
M  V30 7 1 14 4
M  V30 8 1 15 3
M  V30 9 2 15 14
M  V30 10 1 16 15
M  V30 11 1 17 7
M  V30 12 1 19 11
M  V30 13 1 20 2
M  V30 14 1 20 18
M  V30 15 1 22 9
M  V30 16 1 22 19
M  V30 17 1 23 12
M  V30 18 1 24 6
M  V30 19 1 24 10 CFG=3
M  V30 20 1 24 17
M  V30 21 1 25 14
M  V30 22 1 26 5
M  V30 23 2 26 16
M  V30 24 1 27 13
M  V30 25 1 27 21
M  V30 26 1 27 24
M  V30 27 1 28 2
M  V30 28 1 28 22
M  V30 29 1 29 3
M  V30 30 1 29 18
M  V30 31 1 29 25
M  V30 32 1 30 17
M  V30 33 1 31 7
M  V30 34 1 32 1
M  V30 35 1 33 2
M  V30 36 1 34 2
M  V30 37 1 3 35 CFG=3
M  V30 38 1 36 4
M  V30 39 1 5 37 CFG=1
M  V30 40 1 38 6
M  V30 41 1 39 6
M  V30 42 1 40 6
M  V30 43 1 7 41 CFG=3
M  V30 44 1 42 9
M  V30 45 1 43 9
M  V30 46 1 44 10
M  V30 47 1 45 11
M  V30 48 1 46 11
M  V30 49 1 12 47 CFG=1
M  V30 50 1 48 13
M  V30 51 1 49 13
M  V30 52 1 50 13
M  V30 53 1 51 16
M  V30 54 1 17 52 CFG=3
M  V30 55 1 53 18
M  V30 56 1 54 18
M  V30 57 1 55 19
M  V30 58 1 56 20
M  V30 59 1 57 20
M  V30 60 1 58 21
M  V30 61 1 59 21
M  V30 62 1 60 21
M  V30 63 1 22 61 CFG=1
M  V30 64 1 62 23
M  V30 65 1 63 26
M  V30 66 1 64 27
M  V30 67 1 65 28
M  V30 68 1 66 28
M  V30 69 1 29 67 CFG=1
M  V30 70 1 68 30
M  V30 71 1 69 31
M  V30 72 1 70 31
M  V30 73 1 71 19
M  V30 74 1 72 31
M  V30 END BOND
M  V30 END CTAB
M  END
>  <i_epik_Tot_Q>  (1) 
2

>  <i_epik_Tot_abs_Q>  (1) 
2

>  <i_i_glide_confnum>  (1) 
1

>  <i_i_glide_lignum>  (1) 
64

>  <i_i_glide_posenum>  (1) 
288

>  <i_i_glide_rotatable_bonds>  (1) 
9

>  <i_lp_mmshare_version>  (1) 
72125

>  <i_m_source_file_index>  (1) 
21

>  <i_f3d_flags>  (1) 
0

>  <num_sample>  (1) 
50

>  <b_lp_Chiralities_Consistent>  (1) 
1

>  <r_epik_Charging_Adjusted_Penalty>  (1) 
0.28425092081310654

>  <r_epik_Ionization_Penalty>  (1) 
0.14293687999153612

>  <r_epik_Ionization_Penalty_Charging>  (1) 
0.14293530953308087

>  <r_epik_Ionization_Penalty_Neutral>  (1) 
1.5704584552406844e-06

>  <r_epik_State_Penalty>  (1) 
0.14131561128002565

>  <r_glide_ring_energy>  (1) 
0

>  <r_i_docking_score>  (1) 
-3.3926730371740206

>  <r_i_glide_ecoul>  (1) 
-7.3701895834017588

>  <r_i_glide_eff_state_penalty>  (1) 
0.14131561128002565

>  <r_i_glide_einternal>  (1) 
11.481824873551634

>  <r_i_glide_emodel>  (1) 
-32.091932372549657

>  <r_i_glide_emodel_strain>  (1) 
1.6794762718008656

>  <r_i_glide_energy>  (1) 
-28.397467873416716

>  <r_i_glide_erotb>  (1) 
0.38550374204318533

>  <r_i_glide_esite>  (1) 
-0.019313150134785188

>  <r_i_glide_evdw>  (1) 
-21.027278290014955

>  <r_i_glide_gscore>  (1) 
-3.5339886484540464

>  <r_i_glide_gscore_strain>  (1) 
0

>  <r_i_glide_hbond>  (1) 
-0.16

>  <r_i_glide_ligand_efficiency>  (1) 
-0.10944106571529098

>  <r_i_glide_ligand_efficiency_ln>  (1) 
-0.76515174282465293

>  <r_i_glide_ligand_efficiency_sa>  (1) 
-0.34379604641511019

>  <r_i_glide_lipo>  (1) 
-1.1245894555762497

>  <r_i_glide_metal>  (1) 
-0

>  <r_i_glide_rewards>  (1) 
-0.4586974327751851

>  <r_lp_Energy>  (1) 
51.405214999999998

>  <s_epik_cmdline>  (1) 
J2VwaWtfcHl0aG9uJywgJy1waHQnLCAnMS4wJywgJy1waCcsICc3LjQnLCAnLXRuJywgJzgnLCAnLW1hJywgJzUwMCcsICctaW1hZScsICc8aW5maWxlLm1hZT4nLCAnLW9tYWUnLCAnPG91dGZpbGUubWFlPic=

>  <s_epik_input>  (1) 
W0NIXTE9W0NIXVtDQEhdKEYpW0NIXT1bQ0hdQyg9QzFbQ0BIXTIzKVNbQ0BASF0zW0NIMl1bQ0gyXVtDSDJdW0NIMl1bQ0BIXShbTkhdW0NIMl0yKVtDSDJdW0NASF0oW09IXSlbQ0BIXShbTkgyXSlbQ0BASF0oW09IXSlbQ0BAXShbQ0gzXSkoW09IXSlbQ0hdKFtDSDNdKVtDSDNd

>  <s_glide_docking_method>  (1) 
confgen

>  <s_i_glide_gridfile>  (1) 
gpcr_drd2_6luq_protein_autoprepared_prepared

>  <s_lp_Force_Field>  (1) 
S-OPLS

>  <s_lp_Variant>  (1) 
DiffSBDD_20-1

>  <s_m_source_file>  (1) 
generated_generic_title2_ligand_DiffSBDD_2026-06-23_prepared.sdf

>  <GenAI_Model>  (1) 
DiffSBDD

>  <Protein>  (1) 
generic_title2

$$$$
DiffSBDD_13
     RDKit          3D

  0  0  0  0  0  0  0  0  0  0999 V3000
M  V30 BEGIN CTAB
M  V30 COUNTS 48 50 0 0 1
M  V30 BEGIN ATOM
M  V30 1 O 15.375451 10.390178 -19.531195 0
M  V30 2 C 14.721037 9.425331 -19.689366 0
M  V30 3 C 6.324120 5.444658 -14.812663 0
M  V30 4 F 13.012542 5.770732 -22.482986 0
M  V30 5 C 9.146425 5.191506 -15.467524 0
M  V30 6 F 6.737966 3.160848 -12.494543 0
M  V30 7 C 14.006833 8.333551 -19.864560 0
M  V30 8 C 8.401280 5.499909 -11.726073 0
M  V30 9 C 6.172636 4.293313 -12.081860 0
M  V30 10 C 10.460866 5.515860 -15.643315 0
M  V30 11 C 16.079948 6.484475 -21.102511 0
M  V30 12 F 5.987565 4.216111 -10.768467 0
M  V30 13 C 13.205882 7.755153 -18.796115 0
M  V30 14 C 14.030594 7.662300 -21.255651 0 CFG=1
M  V30 15 C 11.690485 6.135339 -17.893244 0
M  V30 16 C 6.818186 5.808604 -16.220409 0
M  V30 17 C 9.417148 5.336718 -12.852209 0
M  V30 18 C 8.424213 5.319329 -18.098871 0
M  V30 19 N 15.379765 7.342573 -21.727285 0
M  V30 20 C 12.452613 6.654193 -18.979590 0
M  V30 21 C 12.403512 5.993613 -20.267416 0
M  V30 22 C 11.064958 5.781698 -16.905605 0
M  V30 23 C 8.577200 4.936456 -14.070302 0 CFG=1
M  V30 24 C 13.110652 6.437103 -21.320071 0
M  V30 25 F 4.975413 4.390157 -12.641126 0
M  V30 26 C 7.025792 5.543628 -12.413904 0 CFG=2
M  V30 27 C 8.101770 5.042514 -16.614342 0 CFG=1
M  V30 28 N 7.369792 5.715426 -13.833046 0
M  V30 29 H 5.433928 6.026574 -14.570920 0
M  V30 30 H 6.048693 4.390295 -14.785529 0
M  V30 31 H 8.586305 6.415932 -11.163200 0
M  V30 32 H 8.469680 4.671104 -11.020437 0
M  V30 33 H 11.105968 5.590865 -14.785132 0
M  V30 34 H 17.088336 6.237452 -21.443919 0
M  V30 35 H 15.686783 5.980336 -20.214820 0
M  V30 36 H 13.215611 8.228424 -17.822264 0
M  V30 37 H 13.598092 8.383290 -21.951271 0
M  V30 38 H 6.975402 6.884727 -16.275388 0
M  V30 39 H 6.023228 5.590343 -16.934061 0
M  V30 40 H 9.916738 6.292736 -13.011936 0
M  V30 41 H 10.175407 4.592055 -12.612003 0
M  V30 42 H 9.191663 4.647300 -18.482334 0
M  V30 43 H 7.544009 5.147297 -18.718666 0
M  V30 44 H 8.726775 6.352881 -18.268983 0
M  V30 45 H 11.779186 5.119540 -20.386979 0
M  V30 46 H 8.345904 3.873257 -14.015000 0
M  V30 47 H 6.477271 6.427756 -12.085521 0
M  V30 48 H 7.840829 3.983775 -16.580787 0
M  V30 END ATOM
M  V30 BEGIN BOND
M  V30 1 2 2 1
M  V30 2 2 7 2
M  V30 3 1 9 6
M  V30 4 2 10 5
M  V30 5 1 12 9
M  V30 6 1 13 7
M  V30 7 1 14 7
M  V30 8 1 16 3
M  V30 9 1 17 8
M  V30 10 2 19 11
M  V30 11 1 19 14
M  V30 12 2 20 13
M  V30 13 1 20 15
M  V30 14 1 21 20
M  V30 15 1 22 10
M  V30 16 3 22 15
M  V30 17 1 23 5
M  V30 18 1 23 17
M  V30 19 1 24 4
M  V30 20 1 24 14
M  V30 21 2 24 21
M  V30 22 1 25 9
M  V30 23 1 26 8
M  V30 24 1 26 9
M  V30 25 1 27 5
M  V30 26 1 27 16
M  V30 27 1 27 18
M  V30 28 1 28 3
M  V30 29 1 28 23
M  V30 30 1 28 26
M  V30 31 1 29 3
M  V30 32 1 30 3
M  V30 33 1 31 8
M  V30 34 1 32 8
M  V30 35 1 33 10
M  V30 36 1 34 11
M  V30 37 1 35 11
M  V30 38 1 36 13
M  V30 39 1 14 37 CFG=3
M  V30 40 1 38 16
M  V30 41 1 39 16
M  V30 42 1 40 17
M  V30 43 1 41 17
M  V30 44 1 42 18
M  V30 45 1 43 18
M  V30 46 1 44 18
M  V30 47 1 45 21
M  V30 48 1 23 46 CFG=1
M  V30 49 1 26 47 CFG=1
M  V30 50 1 27 48 CFG=3
M  V30 END BOND
M  V30 END CTAB
M  END
>  <i_epik_Tot_Q>  (1) 
0

>  <i_epik_Tot_abs_Q>  (1) 
0

>  <i_i_glide_confnum>  (1) 
3

>  <i_i_glide_lignum>  (1) 
50

>  <i_i_glide_posenum>  (1) 
75

>  <i_i_glide_rotatable_bonds>  (1) 
4

>  <i_lp_mmshare_version>  (1) 
72125

>  <i_m_source_file_index>  (1) 
14

>  <i_f3d_flags>  (1) 
0

>  <num_sample>  (1) 
50

>  <b_lp_Chiralities_Consistent>  (1) 
1

>  <r_epik_Charging_Adjusted_Penalty>  (1) 
0

>  <r_epik_Ionization_Penalty>  (1) 
0.00020645461892998548

>  <r_epik_Ionization_Penalty_Charging>  (1) 
0

>  <r_epik_Ionization_Penalty_Neutral>  (1) 
0.00020645461892998548

>  <r_epik_State_Penalty>  (1) 
-0

>  <r_glide_ring_energy>  (1) 
0

>  <r_i_docking_score>  (1) 
-3.3874214277303407

>  <r_i_glide_ecoul>  (1) 
-1.6013276249227315

>  <r_i_glide_eff_state_penalty>  (1) 
-0

>  <r_i_glide_einternal>  (1) 
3.8960319945445736

>  <r_i_glide_emodel>  (1) 
-29.453286210194367

>  <r_i_glide_emodel_strain>  (1) 
0

>  <r_i_glide_energy>  (1) 
-26.096321591153767

>  <r_i_glide_erotb>  (1) 
0.38039990127662543

>  <r_i_glide_esite>  (1) 
-0.023065343322986542

>  <r_i_glide_evdw>  (1) 
-24.494993966231036

>  <r_i_glide_gscore>  (1) 
-3.3874214277303407

>  <r_i_glide_gscore_strain>  (1) 
0

>  <r_i_glide_hbond>  (1) 
0

>  <r_i_glide_ligand_efficiency>  (1) 
-0.12097933670465502

>  <r_i_glide_ligand_efficiency_ln>  (1) 
-0.781916324535045

>  <r_i_glide_ligand_efficiency_sa>  (1) 
-0.36736451966218808

>  <r_i_glide_lipo>  (1) 
-1.0750076591855633

>  <r_i_glide_metal>  (1) 
-0

>  <r_i_glide_rewards>  (1) 
-1.2047994844484551

>  <r_lp_Energy>  (1) 
26.927206999999999

>  <r_lp_tautomer_probability>  (1) 
1

>  <s_epik_Chemistry_Notes>  (1) 
This compound has an imine and may undergo hydrolysis.

>  <s_epik_cmdline>  (1) 
J2VwaWtfcHl0aG9uJywgJy1waHQnLCAnMS4wJywgJy1waCcsICc3LjQnLCAnLXRuJywgJzgnLCAnLW1hJywgJzUwMCcsICctaW1hZScsICc8aW5maWxlLm1hZT4nLCAnLW9tYWUnLCAnPG91dGZpbGUubWFlPic=

>  <s_epik_input>  (1) 
W0NIMl09TltDQEhdMUMoRik9W0NIXUMoPVtDSF1DMT1DPU8pQyNDXFtDSF09Q1wyW0NASF0oW0NIM10pW0NIMl1bQ0gyXU4oW0NAQEhdMjMpW0NAQEhdKEMoRikoRilGKVtDSDJdW0NIMl0z

>  <s_glide_docking_method>  (1) 
confgen

>  <s_i_glide_gridfile>  (1) 
gpcr_drd2_6luq_protein_autoprepared_prepared

>  <s_lp_Force_Field>  (1) 
S-OPLS

>  <s_lp_Variant>  (1) 
DiffSBDD_13-1

>  <s_m_source_file>  (1) 
generated_generic_title2_ligand_DiffSBDD_2026-06-23_prepared.sdf

>  <GenAI_Model>  (1) 
DiffSBDD

>  <Protein>  (1) 
generic_title2

$$$$
DiffSBDD_39
     RDKit          3D

  0  0  0  0  0  0  0  0  0  0999 V3000
M  V30 BEGIN CTAB
M  V30 COUNTS 69 72 0 0 1
M  V30 BEGIN ATOM
M  V30 1 C 9.400101 4.962929 -15.526499 0
M  V30 2 F 12.425393 0.059921 -19.096396 0
M  V30 3 F 10.284086 -0.139222 -18.911920 0
M  V30 4 C 11.242682 8.513903 -9.109770 0
M  V30 5 C 9.202166 5.385720 -13.009079 0
M  V30 6 C 6.973063 5.913468 -11.953385 0 CFG=1
M  V30 7 O 12.010288 8.699308 -7.939692 0
M  V30 8 C 10.156350 3.010012 -19.066754 0 CFG=2
M  V30 9 C 6.505939 5.201361 -15.762451 0
M  V30 10 C 9.072589 5.532573 -10.513333 0 CFG=2
M  V30 11 O 11.250732 3.734096 -21.108042 0
M  V30 12 C 7.428044 5.273250 -16.993833 0
M  V30 13 N 8.710543 4.550453 -16.777790 0 CFG=2 CHG=1
M  V30 14 C 11.104926 0.892722 -20.846691 0
M  V30 15 C 8.491858 4.873561 -14.277229 0 CFG=1
M  V30 16 C 8.613052 3.081457 -16.991683 0
M  V30 17 O 9.998718 1.752696 -21.123786 0
M  V30 18 C 6.282627 5.498670 -13.261796 0
M  V30 19 N 8.334899 5.294399 -11.798153 0 CFG=2 CHG=1
M  V30 20 C 10.580007 7.123968 -9.116656 0 CFG=1
M  V30 21 C 9.618717 6.923612 -7.930027 0
M  V30 22 C 8.746790 2.731221 -18.489522 0
M  V30 23 C 7.197075 5.676673 -14.486738 0 CFG=2
M  V30 24 C 10.120067 3.049177 -20.613537 0 CFG=1
M  V30 25 C 11.191380 1.992683 -18.580093 0
M  V30 26 C 8.977116 5.531953 -7.973783 0
M  V30 27 C 11.260590 0.663853 -19.333512 0
M  V30 28 O 11.922849 2.231389 -17.619064 0
M  V30 29 C 8.197475 5.303055 -9.268541 0
M  V30 30 O 7.219133 7.303485 -11.985114 0
M  V30 31 C 9.834132 6.891537 -10.446371 0
M  V30 32 H 9.725406 5.989670 -15.669290 0
M  V30 33 H 10.319008 4.390840 -15.390988 0
M  V30 34 H 10.485057 9.293746 -9.182480 0
M  V30 35 H 11.900487 8.629676 -9.971976 0
M  V30 36 H 9.508585 6.418000 -13.160976 0
M  V30 37 H 10.114362 4.809512 -12.840966 0
M  V30 38 H 6.313656 5.668410 -11.121604 0
M  V30 39 H 11.426088 8.663521 -7.197128 0
M  V30 40 H 10.480266 3.999856 -18.745157 0
M  V30 41 H 5.606235 5.790000 -15.943318 0
M  V30 42 H 6.180633 4.181838 -15.584665 0
M  V30 43 H 9.815155 4.737080 -10.482732 0
M  V30 44 H 11.119022 3.886807 -22.033021 0
M  V30 45 H 7.646695 6.313300 -17.229990 0
M  V30 46 H 6.909448 4.875509 -17.865547 0
M  V30 47 H 12.021684 1.299606 -21.274546 0
M  V30 48 H 10.936025 -0.058118 -21.352390 0
M  V30 49 H 8.237179 3.822692 -14.121610 0
M  V30 50 H 9.378348 2.554570 -16.422367 0
M  V30 51 H 7.662525 2.713006 -16.605987 0
M  V30 52 H 5.369412 6.081868 -13.390291 0
M  V30 53 H 5.962783 4.457861 -13.184983 0
M  V30 54 H 11.375394 6.390221 -9.028496 0
M  V30 55 H 10.147596 7.033046 -6.983048 0
M  V30 56 H 8.846868 7.693881 -7.938864 0
M  V30 57 H 8.491262 1.679886 -18.631159 0
M  V30 58 H 7.995043 3.277539 -19.059515 0
M  V30 59 H 7.439005 6.736055 -14.599965 0
M  V30 60 H 9.252008 3.611032 -20.964901 0
M  V30 61 H 9.762795 4.790005 -7.880354 0
M  V30 62 H 8.302904 5.415081 -7.127915 0
M  V30 63 H 7.752547 4.312040 -9.278386 0
M  V30 64 H 7.367779 5.990227 -9.257458 0
M  V30 65 H 7.047901 7.625302 -11.090105 0
M  V30 66 H 9.146482 7.724591 -10.571642 0
M  V30 67 H 10.556529 6.963885 -11.260045 0
M  V30 68 H 9.331989 4.861493 -17.511257 0
M  V30 69 H 8.116506 4.309576 -11.744678 0
M  V30 END ATOM
M  V30 BEGIN BOND
M  V30 1 1 7 4
M  V30 2 1 12 9
M  V30 3 1 13 1
M  V30 4 1 13 12
M  V30 5 1 15 1
M  V30 6 1 15 5
M  V30 7 1 16 13
M  V30 8 1 17 14
M  V30 9 1 18 6
M  V30 10 1 19 5
M  V30 11 1 19 6
M  V30 12 1 19 10
M  V30 13 1 20 4
M  V30 14 1 21 20
M  V30 15 1 22 8
M  V30 16 1 22 16
M  V30 17 1 23 9
M  V30 18 1 23 15
M  V30 19 1 23 18
M  V30 20 1 24 8
M  V30 21 1 24 11
M  V30 22 1 24 17
M  V30 23 1 25 8
M  V30 24 1 26 21
M  V30 25 1 27 2
M  V30 26 1 27 3
M  V30 27 1 27 14
M  V30 28 1 27 25
M  V30 29 2 28 25
M  V30 30 1 29 10
M  V30 31 1 29 26
M  V30 32 1 30 6
M  V30 33 1 31 10
M  V30 34 1 31 20
M  V30 35 1 32 1
M  V30 36 1 33 1
M  V30 37 1 34 4
M  V30 38 1 35 4
M  V30 39 1 36 5
M  V30 40 1 37 5
M  V30 41 1 6 38 CFG=1
M  V30 42 1 39 7
M  V30 43 1 8 40 CFG=1
M  V30 44 1 41 9
M  V30 45 1 42 9
M  V30 46 1 10 43 CFG=1
M  V30 47 1 44 11
M  V30 48 1 45 12
M  V30 49 1 46 12
M  V30 50 1 47 14
M  V30 51 1 48 14
M  V30 52 1 15 49 CFG=1
M  V30 53 1 50 16
M  V30 54 1 51 16
M  V30 55 1 52 18
M  V30 56 1 53 18
M  V30 57 1 20 54 CFG=1
M  V30 58 1 55 21
M  V30 59 1 56 21
M  V30 60 1 57 22
M  V30 61 1 58 22
M  V30 62 1 23 59 CFG=3
M  V30 63 1 24 60 CFG=1
M  V30 64 1 61 26
M  V30 65 1 62 26
M  V30 66 1 63 29
M  V30 67 1 64 29
M  V30 68 1 65 30
M  V30 69 1 66 31
M  V30 70 1 67 31
M  V30 71 1 13 68 CFG=3
M  V30 72 1 19 69 CFG=1
M  V30 END BOND
M  V30 END CTAB
M  END
>  <i_epik_Tot_Q>  (1) 
2

>  <i_epik_Tot_abs_Q>  (1) 
2

>  <i_i_glide_confnum>  (1) 
62

>  <i_i_glide_lignum>  (1) 
114

>  <i_i_glide_posenum>  (1) 
399

>  <i_i_glide_rotatable_bonds>  (1) 
8

>  <i_lp_mmshare_version>  (1) 
72125

>  <i_m_source_file_index>  (1) 
40

>  <i_f3d_flags>  (1) 
0

>  <num_sample>  (1) 
50

>  <b_lp_Chiralities_Consistent>  (1) 
1

>  <r_epik_Charging_Adjusted_Penalty>  (1) 
1.743801429740254

>  <r_epik_Ionization_Penalty>  (1) 
1.6051069046209219

>  <r_epik_Ionization_Penalty_Charging>  (1) 
0.6098477401054202

>  <r_epik_Ionization_Penalty_Neutral>  (1) 
0.99525916451550167

>  <r_epik_State_Penalty>  (1) 
1.1339536896348337

>  <r_glide_ring_energy>  (1) 
1.2534239858201268

>  <r_i_docking_score>  (1) 
-3.3793834605813551

>  <r_i_glide_ecoul>  (1) 
-9.1779248748937015

>  <r_i_glide_eff_state_penalty>  (1) 
1.1339536896348337

>  <r_i_glide_einternal>  (1) 
5.8425134167974644

>  <r_i_glide_emodel>  (1) 
-38.040347324133286

>  <r_i_glide_emodel_strain>  (1) 
0.54304200274738434

>  <r_i_glide_energy>  (1) 
-30.533208856994921

>  <r_i_glide_erotb>  (1) 
0.49785121930328097

>  <r_i_glide_esite>  (1) 
-0.067470428590753126

>  <r_i_glide_evdw>  (1) 
-21.35528398210122

>  <r_i_glide_gscore>  (1) 
-4.5133371502161888

>  <r_i_glide_gscore_strain>  (1) 
0

>  <r_i_glide_hbond>  (1) 
-0.16

>  <r_i_glide_ligand_efficiency>  (1) 
-0.10901236969617274

>  <r_i_glide_ligand_efficiency_ln>  (1) 
-0.76215453602639638

>  <r_i_glide_ligand_efficiency_sa>  (1) 
-0.34244934903489493

>  <r_i_glide_lipo>  (1) 
-1.0607750778181406

>  <r_i_glide_metal>  (1) 
-0

>  <r_i_glide_rewards>  (1) 
-1.2784899327714592

>  <r_lp_Energy>  (1) 
49.071247

>  <r_lp_tautomer_probability>  (1) 
0.99995000000000001

>  <s_epik_Chemistry_Notes>  (1) 
This compound contains an acetal/aminal-like group ( X-CH(R)-Y where X, Y are N, S, or O) that may be acid/base labile, releasing an aldehyde.

>  <s_epik_cmdline>  (1) 
J2VwaWtfcHl0aG9uJywgJy1waHQnLCAnMS4wJywgJy1waCcsICc3LjQnLCAnLXRuJywgJzgnLCAnLW1hJywgJzUwMCcsICctaW1hZScsICc8aW5maWxlLm1hZT4nLCAnLW9tYWUnLCAnPG91dGZpbGUubWFlPic=

>  <s_epik_input>  (1) 
RkMxKEYpW0NIMl1PW0NASF0oW09IXSlbQ0BIXShDMT1PKVtDSDJdW0NIMl1OKFtDSDJdMilbQ0gyXVtDSDJdW0NASF0oW0NAQEhdMjMpW0NIMl1bQ0BIXShbT0hdKU4oW0NIMl0zKVtDQEBIXTRbQ0gyXVtDSDJdW0NIMl1bQ0BASF0oW0NIMl00KVtDSDJdW09IXQ==

>  <s_glide_docking_method>  (1) 
confgen

>  <s_i_glide_gridfile>  (1) 
gpcr_drd2_6luq_protein_autoprepared_prepared

>  <s_lp_Force_Field>  (1) 
S-OPLS

>  <s_lp_Variant>  (1) 
DiffSBDD_39-10

>  <s_m_source_file>  (1) 
generated_generic_title2_ligand_DiffSBDD_2026-06-23_prepared.sdf

>  <GenAI_Model>  (1) 
DiffSBDD

>  <Protein>  (1) 
generic_title2

$$$$
DiffSBDD_48
     RDKit          3D

  0  0  0  0  0  0  0  0  0  0999 V3000
M  V30 BEGIN CTAB
M  V30 COUNTS 43 43 0 0 1
M  V30 BEGIN ATOM
M  V30 1 C 7.459710 4.136768 -13.958399 0 CFG=2
M  V30 2 C 9.775492 7.070868 -8.423035 0
M  V30 3 C 7.691980 4.842877 -12.599045 0 CFG=1
M  V30 4 C 9.374987 5.778968 -10.898679 0
M  V30 5 O 9.707154 4.991158 -17.201398 0 CHG=-1
M  V30 6 O 6.175414 2.046197 -12.440471 0
M  V30 7 F 10.495241 7.589655 -11.983549 0
M  V30 8 C 7.539422 4.753380 -16.254443 0
M  V30 9 C 8.902705 5.190340 -9.708063 0
M  V30 10 C 7.904202 2.654289 -13.998199 0
M  V30 11 C 6.905315 1.687123 -13.355725 0
M  V30 12 C 9.172273 5.069880 -12.235333 0
M  V30 13 C 8.484127 5.189928 -17.374409 0
M  V30 14 C 5.375466 7.632856 -11.820883 0
M  V30 15 C 10.241301 7.665078 -9.611223 0
M  V30 16 C 6.851628 0.250960 -13.890708 0
M  V30 17 O 7.961930 5.711435 -18.384605 0
M  V30 18 O 8.174387 4.821164 -14.979095 0
M  V30 19 O 7.834106 -0.009827 -14.872987 0
M  V30 20 C 5.930687 6.209805 -11.749667 0
M  V30 21 O 7.031153 6.103413 -12.639171 0
M  V30 22 F 9.971693 7.689807 -7.233934 0
M  V30 23 C 9.105091 5.834032 -8.471321 0
M  V30 24 C 10.041481 7.020577 -10.847861 0
M  V30 25 H 6.389217 4.195532 -14.169577 0
M  V30 26 H 7.256525 4.224563 -11.814557 0
M  V30 27 H 7.208168 3.740821 -16.484389 0
M  V30 28 H 6.654117 5.391088 -16.251795 0
M  V30 29 H 8.385228 4.249537 -9.744428 0
M  V30 30 H 8.862506 2.530261 -13.498498 0
M  V30 31 H 8.059524 2.360982 -15.034280 0
M  V30 32 H 9.693837 4.114468 -12.179823 0
M  V30 33 H 9.661487 5.627356 -13.034018 0
M  V30 34 H 4.573679 7.767978 -11.097158 0
M  V30 35 H 6.150064 8.363649 -11.585599 0
M  V30 36 H 4.976230 7.857535 -12.809793 0
M  V30 37 H 10.753526 8.614327 -9.574660 0
M  V30 38 H 5.863450 0.063952 -14.311234 0
M  V30 39 H 6.976805 -0.434547 -13.053933 0
M  V30 40 H 7.775506 -0.927694 -15.113848 0
M  V30 41 H 5.161547 5.483990 -12.016122 0
M  V30 42 H 6.247125 5.990275 -10.729525 0
M  V30 43 H 8.742563 5.381395 -7.561042 0
M  V30 END ATOM
M  V30 BEGIN BOND
M  V30 1 1 3 1
M  V30 2 1 9 4
M  V30 3 1 10 1
M  V30 4 2 11 6
M  V30 5 1 11 10
M  V30 6 1 12 3
M  V30 7 1 12 4
M  V30 8 1 13 5
M  V30 9 1 13 8
M  V30 10 2 15 2
M  V30 11 1 16 11
M  V30 12 2 17 13
M  V30 13 1 18 1
M  V30 14 1 18 8
M  V30 15 1 19 16
M  V30 16 1 20 14
M  V30 17 1 21 3
M  V30 18 1 21 20
M  V30 19 1 22 2
M  V30 20 1 23 2
M  V30 21 2 23 9
M  V30 22 2 24 4
M  V30 23 1 24 7
M  V30 24 1 24 15
M  V30 25 1 1 25 CFG=3
M  V30 26 1 3 26 CFG=1
M  V30 27 1 27 8
M  V30 28 1 28 8
M  V30 29 1 29 9
M  V30 30 1 30 10
M  V30 31 1 31 10
M  V30 32 1 32 12
M  V30 33 1 33 12
M  V30 34 1 34 14
M  V30 35 1 35 14
M  V30 36 1 36 14
M  V30 37 1 37 15
M  V30 38 1 38 16
M  V30 39 1 39 16
M  V30 40 1 40 19
M  V30 41 1 41 20
M  V30 42 1 42 20
M  V30 43 1 43 23
M  V30 END BOND
M  V30 END CTAB
M  END
>  <i_epik_Tot_Q>  (1) 
-1

>  <i_epik_Tot_abs_Q>  (1) 
1

>  <i_i_glide_confnum>  (1) 
445

>  <i_i_glide_lignum>  (1) 
126

>  <i_i_glide_posenum>  (1) 
263

>  <i_i_glide_rotatable_bonds>  (1) 
12

>  <i_lp_mmshare_version>  (1) 
72125

>  <i_m_source_file_index>  (1) 
49

>  <i_f3d_flags>  (1) 
0

>  <num_sample>  (1) 
50

>  <b_lp_Chiralities_Consistent>  (1) 
1

>  <r_epik_Charging_Adjusted_Penalty>  (1) 
7.9156217055703786e-05

>  <r_epik_Ionization_Penalty>  (1) 
8.8264238192330274e-05

>  <r_epik_Ionization_Penalty_Charging>  (1) 
7.9156217055703786e-05

>  <r_epik_Ionization_Penalty_Neutral>  (1) 
9.1080211366264862e-06

>  <r_epik_State_Penalty>  (1) 
-0

>  <r_glide_ring_energy>  (1) 
0

>  <r_i_docking_score>  (1) 
-3.3497741179398384

>  <r_i_glide_ecoul>  (1) 
-2.6285255092527291

>  <r_i_glide_eff_state_penalty>  (1) 
-0

>  <r_i_glide_einternal>  (1) 
5.7916667976099721

>  <r_i_glide_emodel>  (1) 
-32.46532266458734

>  <r_i_glide_emodel_strain>  (1) 
0.86226128031021254

>  <r_i_glide_energy>  (1) 
-29.777842230398225

>  <r_i_glide_erotb>  (1) 
1.2745455854061123

>  <r_i_glide_esite>  (1) 
-0.052966060211770041

>  <r_i_glide_evdw>  (1) 
-27.149316721145496

>  <r_i_glide_gscore>  (1) 
-3.3497741179398384

>  <r_i_glide_gscore_strain>  (1) 
0

>  <r_i_glide_hbond>  (1) 
-0.27183372966482161

>  <r_i_glide_ligand_efficiency>  (1) 
-0.1395739215808266

>  <r_i_glide_ligand_efficiency_ln>  (1) 
-0.80175465754132502

>  <r_i_glide_ligand_efficiency_sa>  (1) 
-0.40260085685213415

>  <r_i_glide_lipo>  (1) 
-0.68033221373308583

>  <r_i_glide_metal>  (1) 
-0

>  <r_i_glide_rewards>  (1) 
-1.8674430372910891

>  <r_lp_Energy>  (1) 
21.997854

>  <r_lp_tautomer_probability>  (1) 
1

>  <s_epik_cmdline>  (1) 
J2VwaWtfcHl0aG9uJywgJy1waHQnLCAnMS4wJywgJy1waCcsICc3LjQnLCAnLXRuJywgJzgnLCAnLW1hJywgJzUwMCcsICctaW1hZScsICc8aW5maWxlLm1hZT4nLCAnLW9tYWUnLCAnPG91dGZpbGUubWFlPic=

>  <s_epik_input>  (1) 
W09IXUMoPU8pW0NIMl1PW0NAQEhdKFtDSDJdQyg9TylbQ0gyXVtPSF0pW0NASF0oT1tDSDJdW0NIM10pW0NIMl1jKFtjSF1bY0hdMSljKEYpW2NIXWMxRg==

>  <s_glide_docking_method>  (1) 
confgen

>  <s_i_glide_gridfile>  (1) 
gpcr_drd2_6luq_protein_autoprepared_prepared

>  <s_lp_Force_Field>  (1) 
S-OPLS

>  <s_lp_Variant>  (1) 
DiffSBDD_48-1

>  <s_m_source_file>  (1) 
generated_generic_title2_ligand_DiffSBDD_2026-06-23_prepared.sdf

>  <GenAI_Model>  (1) 
DiffSBDD

>  <Protein>  (1) 
generic_title2

$$$$
DiffSBDD_28
     RDKit          3D

  0  0  0  0  0  0  0  0  0  0999 V3000
M  V30 BEGIN CTAB
M  V30 COUNTS 79 86 0 0 1
M  V30 BEGIN ATOM
M  V30 1 F 7.400389 -6.250101 -17.389045 0
M  V30 2 C 8.315634 5.712167 -12.978289 0 CFG=1
M  V30 3 C 6.486847 2.594655 -14.065294 0 CFG=2
M  V30 4 C 9.181349 5.789990 -10.361146 0 CFG=2
M  V30 5 C 7.037380 -0.901071 -17.664405 0 CFG=1
M  V30 6 C 9.707713 5.543346 -13.573322 0
M  V30 7 C 6.432076 1.170718 -16.125195 0 CFG=2
M  V30 8 C 5.657533 -3.875117 -18.434107 0 CFG=1
M  V30 9 C 7.142667 2.123036 -12.785179 0
M  V30 10 C 5.827538 -1.679310 -17.150750 0 CFG=1
M  V30 11 C 7.710774 7.561842 -12.015215 0 CFG=1
M  V30 12 C 7.706629 3.245627 -15.975017 0
M  V30 13 C 8.454427 6.307870 -11.593267 0 CFG=1
M  V30 14 O 8.506156 8.715781 -11.963808 0
M  V30 15 C 7.715244 -5.405058 -18.436924 0 CFG=1
M  V30 16 C 7.348959 0.478712 -17.133554 0 CFG=1
M  V30 17 O 8.062193 -0.670296 -16.681296 0
M  V30 18 N 7.183323 2.082864 -15.253053 0
M  V30 19 O 10.187025 7.880872 -9.540994 0
M  V30 20 C 7.896260 -6.113691 -19.719828 0
M  V30 21 O 7.779554 5.588836 -10.548555 0
M  V30 22 C 4.834326 -0.757017 -16.447779 0
M  V30 23 C 7.467304 6.938906 -13.378701 0
M  V30 24 N 7.516371 4.450199 -12.923734 0 CFG=2 CHG=1
M  V30 25 C 9.625035 6.627999 -9.171226 0
M  V30 26 N 5.075552 -4.195925 -19.757588 0 CHG=1
M  V30 27 C 5.545943 0.113923 -15.409039 0
M  V30 28 C 4.970617 -2.935806 -20.511440 0
M  V30 29 C 4.799395 -1.848832 -19.450877 0
M  V30 30 O 7.259265 -5.765438 -20.713156 0
M  V30 31 C 7.046209 4.512160 -15.440860 0
M  V30 32 C 7.206466 -3.976426 -18.447700 0
M  V30 33 O 8.975674 -5.613534 -19.162206 0
M  V30 34 N 5.134254 -2.507616 -18.167399 0 CFG=1 CHG=1
M  V30 35 C 8.192043 3.191483 -12.541311 0
M  V30 36 C 11.457693 7.759228 -10.162012 0
M  V30 37 C 6.579027 4.128630 -14.031349 0 CFG=1
M  V30 38 H 5.452702 2.280721 -13.984955 0
M  V30 39 H 9.770969 4.891049 -10.512757 0
M  V30 40 H 7.444454 -1.184870 -18.631827 0
M  V30 41 H 10.360916 6.388669 -13.356810 0
M  V30 42 H 10.175887 4.697360 -13.097757 0
M  V30 43 H 9.707623 5.359255 -14.646985 0
M  V30 44 H 5.773813 1.775411 -16.742310 0
M  V30 45 H 5.259979 -4.556141 -17.678841 0
M  V30 46 H 7.553835 1.113628 -12.841365 0
M  V30 47 H 6.392884 2.140486 -11.992401 0
M  V30 48 H 6.174874 -2.368606 -16.386452 0
M  V30 49 H 6.732455 7.752307 -11.585571 0
M  V30 50 H 8.773637 3.315100 -15.791893 0
M  V30 51 H 7.585656 3.174478 -17.056166 0
M  V30 52 H 8.398961 9.046138 -11.077145 0
M  V30 53 H 7.921332 1.128856 -17.790408 0
M  V30 54 H 4.045908 -1.346520 -15.989855 0
M  V30 55 H 4.338410 -0.114668 -17.173208 0
M  V30 56 H 6.406443 6.737503 -13.526230 0
M  V30 57 H 7.849325 7.527930 -14.208290 0
M  V30 58 H 8.783158 6.797446 -8.505161 0
M  V30 59 H 10.344200 6.054362 -8.582838 0
M  V30 60 H 4.144247 -4.569786 -19.626269 0
M  V30 61 H 6.137294 -0.499936 -14.726793 0
M  V30 62 H 4.767299 0.564171 -14.798382 0
M  V30 63 H 4.174452 -2.959473 -21.254014 0
M  V30 64 H 5.905215 -2.778777 -21.050847 0
M  V30 65 H 3.776166 -1.480909 -19.386089 0
M  V30 66 H 5.425988 -0.988900 -19.688657 0
M  V30 67 H 7.704683 5.373159 -15.504077 0
M  V30 68 H 6.187478 4.790981 -16.047235 0
M  V30 69 H 7.619646 -3.437719 -19.302482 0
M  V30 70 H 7.652409 -3.516742 -17.567895 0
M  V30 71 H 9.026974 2.962388 -13.192322 0
M  V30 72 H 8.575485 3.202731 -11.528009 0
M  V30 73 H 11.880329 8.747503 -10.345826 0
M  V30 74 H 12.157602 7.206425 -9.533759 0
M  V30 75 H 11.375111 7.248498 -11.121158 0
M  V30 76 H 5.610764 4.576692 -13.806265 0
M  V30 77 H 6.911432 4.620853 -12.130431 0
M  V30 78 H 5.637662 -4.874302 -20.263031 0
M  V30 79 H 4.240426 -2.699882 -17.733639 0
M  V30 END ATOM
M  V30 BEGIN BOND
M  V30 1 1 2 6 CFG=3
M  V30 2 1 9 3
M  V30 3 1 10 5
M  V30 4 1 13 2
M  V30 5 1 13 4
M  V30 6 1 13 11
M  V30 7 1 14 11
M  V30 8 1 15 1 CFG=1
M  V30 9 1 16 5
M  V30 10 1 16 7
M  V30 11 1 17 5
M  V30 12 1 17 16
M  V30 13 1 18 3
M  V30 14 1 18 7
M  V30 15 1 18 12
M  V30 16 1 20 15
M  V30 17 1 21 4
M  V30 18 1 13 21 CFG=1
M  V30 19 1 22 10
M  V30 20 1 23 2
M  V30 21 1 23 11
M  V30 22 1 24 2
M  V30 23 1 25 4
M  V30 24 1 25 19
M  V30 25 1 26 8
M  V30 26 1 27 7
M  V30 27 1 27 22
M  V30 28 1 28 26
M  V30 29 1 29 28
M  V30 30 2 30 20
M  V30 31 1 31 12
M  V30 32 1 32 8
M  V30 33 1 32 15
M  V30 34 1 33 15
M  V30 35 1 33 20
M  V30 36 1 34 8
M  V30 37 1 34 10
M  V30 38 1 34 29
M  V30 39 1 35 9
M  V30 40 1 35 24
M  V30 41 1 36 19
M  V30 42 1 37 3
M  V30 43 1 37 24
M  V30 44 1 37 31
M  V30 45 1 3 38 CFG=1
M  V30 46 1 4 39 CFG=3
M  V30 47 1 5 40 CFG=3
M  V30 48 1 41 6
M  V30 49 1 42 6
M  V30 50 1 43 6
M  V30 51 1 7 44 CFG=3
M  V30 52 1 8 45 CFG=1
M  V30 53 1 46 9
M  V30 54 1 47 9
M  V30 55 1 10 48 CFG=1
M  V30 56 1 11 49 CFG=1
M  V30 57 1 50 12
M  V30 58 1 51 12
M  V30 59 1 52 14
M  V30 60 1 16 53 CFG=3
M  V30 61 1 54 22
M  V30 62 1 55 22
M  V30 63 1 56 23
M  V30 64 1 57 23
M  V30 65 1 58 25
M  V30 66 1 59 25
M  V30 67 1 60 26
M  V30 68 1 61 27
M  V30 69 1 62 27
M  V30 70 1 63 28
M  V30 71 1 64 28
M  V30 72 1 65 29
M  V30 73 1 66 29
M  V30 74 1 67 31
M  V30 75 1 68 31
M  V30 76 1 69 32
M  V30 77 1 70 32
M  V30 78 1 71 35
M  V30 79 1 72 35
M  V30 80 1 73 36
M  V30 81 1 74 36
M  V30 82 1 75 36
M  V30 83 1 37 76 CFG=1
M  V30 84 1 24 77 CFG=1
M  V30 85 1 78 26
M  V30 86 1 34 79 CFG=1
M  V30 END BOND
M  V30 END CTAB
M  END
>  <i_epik_Tot_Q>  (1) 
3

>  <i_epik_Tot_abs_Q>  (1) 
3

>  <i_i_glide_confnum>  (1) 
214

>  <i_i_glide_lignum>  (1) 
83

>  <i_i_glide_posenum>  (1) 
314

>  <i_i_glide_rotatable_bonds>  (1) 
8

>  <i_lp_mmshare_version>  (1) 
72125

>  <i_m_source_file_index>  (1) 
29

>  <i_f3d_flags>  (1) 
0

>  <num_sample>  (1) 
50

>  <b_lp_Chiralities_Consistent>  (1) 
1

>  <r_epik_Charging_Adjusted_Penalty>  (1) 
2.5479580004866769

>  <r_epik_Ionization_Penalty>  (1) 
1.853674345886815

>  <r_epik_Ionization_Penalty_Charging>  (1) 
1.8530809818743854

>  <r_epik_Ionization_Penalty_Neutral>  (1) 
0.00059336401242958479

>  <r_epik_State_Penalty>  (1) 
0.69487701861229134

>  <r_glide_ring_energy>  (1) 
0.81914574756082947

>  <r_i_docking_score>  (1) 
-3.346621001584043

>  <r_i_glide_ecoul>  (1) 
-7.8498926944256464

>  <r_i_glide_eff_state_penalty>  (1) 
0.69487701861229134

>  <r_i_glide_einternal>  (1) 
21.895204650933159

>  <r_i_glide_emodel>  (1) 
-24.199693794770806

>  <r_i_glide_emodel_strain>  (1) 
1.6432006184883221

>  <r_i_glide_energy>  (1) 
-36.509353430837123

>  <r_i_glide_erotb>  (1) 
0.44698704239028575

>  <r_i_glide_esite>  (1) 
-0.038387933318381161

>  <r_i_glide_evdw>  (1) 
-28.659460736411475

>  <r_i_glide_gscore>  (1) 
-4.0414980201963342

>  <r_i_glide_gscore_strain>  (1) 
0

>  <r_i_glide_hbond>  (1) 
0

>  <r_i_glide_ligand_efficiency>  (1) 
-0.090449216259028187

>  <r_i_glide_ligand_efficiency_ln>  (1) 
-0.72580363931589831

>  <r_i_glide_ligand_efficiency_sa>  (1) 
-0.30139685488258422

>  <r_i_glide_lipo>  (1) 
-1.350647215847713

>  <r_i_glide_metal>  (1) 
-0

>  <r_i_glide_rewards>  (1) 
-0.48899297243610557

>  <r_lp_Energy>  (1) 
76.82741

>  <s_epik_Chemistry_Notes>  (1) 
This compound has an ester and may undergo hydrolysis at high or low pH. This compound contains an acetal/aminal-like group ( X-CH(R)-Y where X, Y are N, S, or O) that may be acid/base labile, releasing an aldehyde.

>  <s_epik_cmdline>  (1) 
J2VwaWtfcHl0aG9uJywgJy1waHQnLCAnMS4wJywgJy1waCcsICc3LjQnLCAnLXRuJywgJzgnLCAnLW1hJywgJzUwMCcsICctaW1hZScsICc8aW5maWxlLm1hZT4nLCAnLW9tYWUnLCAnPG91dGZpbGUubWFlPic=

>  <s_epik_input>  (1) 
Tz1DKE8xKUMxKEYpW0NIMl1bQ0BASF0yW05IXVtDSDJdW0NIMl1OMltDQEBIXTNbQ0gyXVtDSDJdW0NASF0oW0NAQEhdKE80KVtDQEhdMzQpTjVbQ0gyXVtDSDJdW0NAQEhdKFtDQEhdNTYpTihbQ0gyXVtDSDJdNilbQ0BAXShbQ0gzXSkoW0NIMl1bQ0BASF03W09IXSlbQ0BAXTc4W0NASF0oTzgpW0NIMl1PW0NIM10=

>  <s_glide_docking_method>  (1) 
confgen

>  <s_i_glide_gridfile>  (1) 
gpcr_drd2_6luq_protein_autoprepared_prepared

>  <s_lp_Force_Field>  (1) 
S-OPLS

>  <s_lp_Variant>  (1) 
DiffSBDD_28-6

>  <s_m_source_file>  (1) 
generated_generic_title2_ligand_DiffSBDD_2026-06-23_prepared.sdf

>  <GenAI_Model>  (1) 
DiffSBDD

>  <Protein>  (1) 
generic_title2

$$$$
DiffSBDD_22
     RDKit          3D

  0  0  0  0  0  0  0  0  0  0999 V3000
M  V30 BEGIN CTAB
M  V30 COUNTS 59 63 0 0 1
M  V30 BEGIN ATOM
M  V30 1 C 5.396820 -2.200851 -16.901715 0
M  V30 2 C 6.416364 -1.282246 -17.618448 0 CFG=1
M  V30 3 C 4.828020 -3.342237 -17.790014 0 CFG=2
M  V30 4 C 8.108600 2.524529 -16.544255 0 CFG=1
M  V30 5 C 5.253963 -5.777685 -17.350806 0 CFG=2
M  V30 6 C 5.996116 -6.105505 -16.076289 0
M  V30 7 N 5.689036 -4.550969 -17.980120 0
M  V30 8 C 4.233885 -2.751275 -19.085395 0
M  V30 9 O 7.581211 -5.462283 -18.860770 0
M  V30 10 C 5.738096 -0.668441 -18.865913 0
M  V30 11 C 3.827849 -6.290176 -17.199815 0 CFG=1
M  V30 12 C 9.397937 -0.794420 -17.932784 0
M  V30 13 C 7.171884 -0.263930 -16.696349 0 CFG=2
M  V30 14 C 6.271403 0.859863 -16.144398 0
M  V30 15 Cl 5.461037 -7.633642 -13.856404 0
M  V30 16 C 6.768004 5.821172 -17.997466 0
M  V30 17 C 5.146339 -1.734537 -19.808741 0
M  V30 18 C 6.240207 5.394317 -19.231099 0
M  V30 19 C 7.375408 4.891822 -17.130376 0
M  V30 20 C 4.704317 -6.851340 -18.293709 0
M  V30 21 C 6.926326 3.105638 -18.736078 0
M  V30 22 C 6.830800 -4.498879 -18.700341 0
M  V30 23 F 10.674436 -0.409783 -17.985019 0
M  V30 24 C 4.936842 -6.935832 -15.424447 0
M  V30 25 N 8.867724 1.490162 -17.237576 0
M  V30 26 N 3.810671 -7.092921 -15.980198 0
M  V30 27 C 7.455199 3.529893 -17.495569 0
M  V30 28 C 6.319811 4.037639 -19.600319 0
M  V30 29 C 8.510222 0.262213 -17.292356 0
M  V30 30 C 7.130632 1.950828 -15.500959 0
M  V30 31 H 4.562962 -1.578288 -16.574419 0
M  V30 32 H 5.775410 -2.626606 -15.985028 0
M  V30 33 H 7.188583 -1.948238 -17.964105 0
M  V30 34 H 3.969845 -3.693119 -17.221451 0
M  V30 35 H 8.837991 3.110054 -15.985031 0
M  V30 36 H 6.907095 -6.672415 -16.268418 0
M  V30 37 H 6.199972 -5.209806 -15.489020 0
M  V30 38 H 3.917051 -3.543989 -19.764184 0
M  V30 39 H 3.325142 -2.225816 -18.785031 0
M  V30 40 H 6.451142 -0.065191 -19.425972 0
M  V30 41 H 4.933035 0.001104 -18.563451 0
M  V30 42 H 2.959220 -5.660760 -17.385067 0
M  V30 43 H 9.373233 -1.720802 -17.356972 0
M  V30 44 H 9.077370 -0.994031 -18.955200 0
M  V30 45 H 7.489349 -0.809786 -15.810170 0
M  V30 46 H 5.677734 1.306760 -16.938521 0
M  V30 47 H 5.564449 0.454533 -15.419607 0
M  V30 48 H 6.706407 6.861763 -17.715476 0
M  V30 49 H 5.945491 -2.244635 -20.342151 0
M  V30 50 H 4.575411 -1.233846 -20.589159 0
M  V30 51 H 5.774604 6.107907 -19.894862 0
M  V30 52 H 7.777789 5.222399 -16.183756 0
M  V30 53 H 4.467581 -6.555344 -19.313955 0
M  V30 54 H 5.089811 -7.864161 -18.189736 0
M  V30 55 H 6.984262 2.068555 -19.022354 0
M  V30 56 H 6.997061 -3.507369 -19.122876 0
M  V30 57 H 5.915268 3.711286 -20.547029 0
M  V30 58 H 7.694923 1.513392 -14.675341 0
M  V30 59 H 6.532885 2.748110 -15.063318 0
M  V30 END ATOM
M  V30 BEGIN BOND
M  V30 1 1 2 1
M  V30 2 1 3 1
M  V30 3 1 6 5
M  V30 4 1 7 3
M  V30 5 1 5 7 CFG=3
M  V30 6 1 8 3
M  V30 7 1 10 2
M  V30 8 1 11 5
M  V30 9 1 13 2
M  V30 10 1 14 13
M  V30 11 1 17 8
M  V30 12 1 17 10
M  V30 13 2 18 16
M  V30 14 1 19 16
M  V30 15 1 20 5
M  V30 16 1 20 11
M  V30 17 1 22 7
M  V30 18 2 22 9
M  V30 19 1 23 12
M  V30 20 1 24 6
M  V30 21 1 24 15
M  V30 22 1 25 4
M  V30 23 1 26 11
M  V30 24 2 26 24
M  V30 25 1 27 4
M  V30 26 2 27 19
M  V30 27 1 27 21
M  V30 28 1 28 18
M  V30 29 2 28 21
M  V30 30 1 29 12
M  V30 31 1 29 13
M  V30 32 2 29 25
M  V30 33 1 30 4
M  V30 34 1 30 14
M  V30 35 1 31 1
M  V30 36 1 32 1
M  V30 37 1 2 33 CFG=3
M  V30 38 1 3 34 CFG=1
M  V30 39 1 4 35 CFG=1
M  V30 40 1 36 6
M  V30 41 1 37 6
M  V30 42 1 38 8
M  V30 43 1 39 8
M  V30 44 1 40 10
M  V30 45 1 41 10
M  V30 46 1 11 42 CFG=3
M  V30 47 1 43 12
M  V30 48 1 44 12
M  V30 49 1 13 45 CFG=1
M  V30 50 1 46 14
M  V30 51 1 47 14
M  V30 52 1 48 16
M  V30 53 1 49 17
M  V30 54 1 50 17
M  V30 55 1 51 18
M  V30 56 1 52 19
M  V30 57 1 53 20
M  V30 58 1 54 20
M  V30 59 1 55 21
M  V30 60 1 56 22
M  V30 61 1 57 28
M  V30 62 1 58 30
M  V30 63 1 59 30
M  V30 END BOND
M  V30 END CTAB
M  END
>  <i_epik_Tot_Q>  (1) 
0

>  <i_epik_Tot_abs_Q>  (1) 
0

>  <i_i_glide_confnum>  (1) 
51

>  <i_i_glide_lignum>  (1) 
69

>  <i_i_glide_posenum>  (1) 
316

>  <i_i_glide_rotatable_bonds>  (1) 
6

>  <i_lp_mmshare_version>  (1) 
72125

>  <i_m_source_file_index>  (1) 
23

>  <i_f3d_flags>  (1) 
0

>  <num_sample>  (1) 
50

>  <b_lp_Chiralities_Consistent>  (1) 
1

>  <r_epik_Charging_Adjusted_Penalty>  (1) 
0

>  <r_epik_Ionization_Penalty>  (1) 
0.00052212265616106849

>  <r_epik_Ionization_Penalty_Charging>  (1) 
0

>  <r_epik_Ionization_Penalty_Neutral>  (1) 
0.00052212265616106849

>  <r_epik_State_Penalty>  (1) 
-0

>  <r_glide_ring_energy>  (1) 
1.5900850198009944

>  <r_i_docking_score>  (1) 
-3.3246271457366663

>  <r_i_glide_ecoul>  (1) 
-2.8096295140654002

>  <r_i_glide_eff_state_penalty>  (1) 
-0

>  <r_i_glide_einternal>  (1) 
16.559392155220536

>  <r_i_glide_emodel>  (1) 
-26.373308428446649

>  <r_i_glide_emodel_strain>  (1) 
0.014828118812800994

>  <r_i_glide_energy>  (1) 
-29.356659482729405

>  <r_i_glide_erotb>  (1) 
0.43006818046137463

>  <r_i_glide_esite>  (1) 
-0.15050824363934309

>  <r_i_glide_evdw>  (1) 
-26.547029968664006

>  <r_i_glide_gscore>  (1) 
-3.3246271457366663

>  <r_i_glide_gscore_strain>  (1) 
0

>  <r_i_glide_hbond>  (1) 
0

>  <r_i_glide_ligand_efficiency>  (1) 
-0.11082090485788888

>  <r_i_glide_ligand_efficiency_ln>  (1) 
-0.75539151222549528

>  <r_i_glide_ligand_efficiency_sa>  (1) 
-0.34434631791365228

>  <r_i_glide_lipo>  (1) 
-1.162859956850361

>  <r_i_glide_metal>  (1) 
-0

>  <r_i_glide_rewards>  (1) 
-0.69253120016532654

>  <r_lp_Energy>  (1) 
30.166556

>  <r_lp_tautomer_probability>  (1) 
1

>  <s_epik_Chemistry_Notes>  (1) 
This compound has an imine and may undergo hydrolysis.

>  <s_epik_cmdline>  (1) 
J2VwaWtfcHl0aG9uJywgJy1waHQnLCAnMS4wJywgJy1waCcsICc3LjQnLCAnLXRuJywgJzgnLCAnLW1hJywgJzUwMCcsICctaW1hZScsICc8aW5maWxlLm1hZT4nLCAnLW9tYWUnLCAnPG91dGZpbGUubWFlPic=

>  <s_epik_input>  (1) 
W0NIMl0xQyhDbCk9TltDQEhdKFtDSDJdMilbQ0BAXTEyTihbQ0hdPU8pW0NASF0oW0NIMl1bQ0gyXVtDSDJdMylbQ0gyXVtDQEBIXTNbQ0BIXShbQ0gyXVtDSDJdNClDKFtDSDJdRik9TltDQEhdNGM1W2NIXVtjSF1bY0hdW2NIXVtjSF01

>  <s_glide_docking_method>  (1) 
confgen

>  <s_i_glide_gridfile>  (1) 
gpcr_drd2_6luq_protein_autoprepared_prepared

>  <s_lp_Force_Field>  (1) 
S-OPLS

>  <s_lp_Variant>  (1) 
DiffSBDD_22-1

>  <s_m_source_file>  (1) 
generated_generic_title2_ligand_DiffSBDD_2026-06-23_prepared.sdf

>  <GenAI_Model>  (1) 
DiffSBDD

>  <Protein>  (1) 
generic_title2

$$$$
DiffSBDD_23
     RDKit          3D

  0  0  0  0  0  0  0  0  0  0999 V3000
M  V30 BEGIN CTAB
M  V30 COUNTS 57 60 0 0 1
M  V30 BEGIN ATOM
M  V30 1 C 5.662260 -0.575742 -19.213411 0
M  V30 2 C 4.432864 -4.545658 -17.983275 0
M  V30 3 F 11.013132 5.990080 -16.642737 0
M  V30 4 S 11.228856 3.193685 -17.985145 0 CHG=1
M  V30 5 C 12.089703 5.794363 -17.402137 0 CFG=1
M  V30 6 C 9.619421 3.466379 -17.177043 0
M  V30 7 C 12.364929 6.809493 -20.983930 0
M  V30 8 C 12.850071 4.769646 -19.601344 0
M  V30 9 C 9.845577 1.065146 -19.118042 0
M  V30 10 O 8.181566 0.042583 -17.664218 0
M  V30 11 O 5.138795 -0.009771 -15.586338 0
M  V30 12 C 5.375428 -1.555778 -20.182220 0
M  V30 13 C 8.841826 2.166251 -17.060207 0
M  V30 14 C 10.540711 2.397592 -19.471142 0
M  V30 15 C 5.555307 -0.886751 -17.839620 0
M  V30 16 C 13.761658 7.046456 -18.903869 0 CFG=2
M  V30 17 C 11.694614 4.863428 -18.576178 0 CFG=1
M  V30 18 F 6.042144 0.666288 -19.600917 0
M  V30 19 C 4.975997 -2.846307 -19.784537 0
M  V30 20 C 8.942496 1.149335 -17.895978 0
M  V30 21 S 7.753442 1.973881 -15.751903 0
M  V30 22 C 4.866300 -3.159789 -18.414489 0
M  V30 23 C 7.377200 0.307656 -16.474516 0 CFG=1
M  V30 24 C 15.081006 6.568391 -18.260542 0
M  V30 25 C 12.595356 7.170548 -17.892805 0 CFG=2
M  V30 26 C 5.866487 0.176989 -16.791449 0 CFG=2
M  V30 27 O 12.976077 7.990232 -16.805350 0
M  V30 28 C 13.346051 6.148671 -20.096973 0 CFG=2
M  V30 29 C 11.554146 7.376683 -21.699422 0
M  V30 30 C 5.158191 -2.182455 -17.443562 0
M  V30 31 H 4.257731 -5.198406 -18.838552 0
M  V30 32 H 5.197436 -5.000668 -17.352906 0
M  V30 33 H 3.509916 -4.486441 -17.404763 0
M  V30 34 H 12.837389 5.318150 -16.766484 0
M  V30 35 H 9.763722 3.917450 -16.195649 0
M  V30 36 H 9.027457 4.164391 -17.769484 0
M  V30 37 H 12.545607 4.171446 -20.460497 0
M  V30 38 H 13.683501 4.227555 -19.153504 0
M  V30 39 H 10.599849 0.304179 -18.915101 0
M  V30 40 H 9.264025 0.707512 -19.968444 0
M  V30 41 H 5.378323 -0.837477 -15.193589 0
M  V30 42 H 5.456902 -1.315540 -21.232228 0
M  V30 43 H 9.824915 3.076960 -19.935407 0
M  V30 44 H 11.331917 2.220850 -20.199143 0
M  V30 45 H 13.968855 8.046726 -19.291192 0
M  V30 46 H 10.822486 5.287203 -19.075334 0
M  V30 47 H 4.752746 -3.594718 -20.530728 0
M  V30 48 H 7.663073 -0.453115 -15.746971 0
M  V30 49 H 14.982403 5.595581 -17.780897 0
M  V30 50 H 15.872928 6.490716 -19.005807 0
M  V30 51 H 15.426635 7.271578 -17.502752 0
M  V30 52 H 11.775460 7.686087 -18.387446 0
M  V30 53 H 5.524445 1.124653 -17.208871 0
M  V30 54 H 12.853117 8.896850 -17.069244 0
M  V30 55 H 14.217788 5.989732 -20.733014 0
M  V30 56 H 10.854433 7.883090 -22.326778 0
M  V30 57 H 5.073704 -2.427314 -16.395201 0
M  V30 END ATOM
M  V30 BEGIN BOND
M  V30 1 1 5 3
M  V30 2 1 4 6 CFG=1
M  V30 3 1 12 1
M  V30 4 1 13 6
M  V30 5 1 14 4
M  V30 6 1 14 9
M  V30 7 2 15 1
M  V30 8 1 17 4
M  V30 9 1 17 5
M  V30 10 1 17 8
M  V30 11 1 18 1
M  V30 12 2 19 12
M  V30 13 1 20 9
M  V30 14 1 20 10
M  V30 15 2 20 13
M  V30 16 1 21 13
M  V30 17 1 22 2
M  V30 18 1 22 19
M  V30 19 1 23 10
M  V30 20 1 23 21
M  V30 21 1 24 16
M  V30 22 1 25 5
M  V30 23 1 25 16
M  V30 24 1 26 11
M  V30 25 1 26 15
M  V30 26 1 26 23
M  V30 27 1 27 25
M  V30 28 1 28 7
M  V30 29 1 28 8
M  V30 30 1 28 16
M  V30 31 3 29 7
M  V30 32 1 30 15
M  V30 33 2 30 22
M  V30 34 1 31 2
M  V30 35 1 32 2
M  V30 36 1 33 2
M  V30 37 1 5 34 CFG=1
M  V30 38 1 35 6
M  V30 39 1 36 6
M  V30 40 1 37 8
M  V30 41 1 38 8
M  V30 42 1 39 9
M  V30 43 1 40 9
M  V30 44 1 41 11
M  V30 45 1 42 12
M  V30 46 1 43 14
M  V30 47 1 44 14
M  V30 48 1 16 45 CFG=3
M  V30 49 1 17 46 CFG=3
M  V30 50 1 47 19
M  V30 51 1 23 48 CFG=1
M  V30 52 1 49 24
M  V30 53 1 50 24
M  V30 54 1 51 24
M  V30 55 1 25 52 CFG=3
M  V30 56 1 26 53 CFG=3
M  V30 57 1 54 27
M  V30 58 1 28 55 CFG=3
M  V30 59 1 56 29
M  V30 60 1 57 30
M  V30 END BOND
M  V30 END CTAB
M  END
>  <i_epik_Tot_Q>  (1) 
1

>  <i_epik_Tot_abs_Q>  (1) 
1

>  <i_i_glide_confnum>  (1) 
5

>  <i_i_glide_lignum>  (1) 
70

>  <i_i_glide_posenum>  (1) 
30

>  <i_i_glide_rotatable_bonds>  (1) 
6

>  <i_lp_mmshare_version>  (1) 
72125

>  <i_m_source_file_index>  (1) 
24

>  <i_f3d_flags>  (1) 
0

>  <num_sample>  (1) 
50

>  <b_lp_Chiralities_Consistent>  (1) 
1

>  <r_epik_Charging_Adjusted_Penalty>  (1) 
0

>  <r_epik_Ionization_Penalty>  (1) 
0.0001931723336569867

>  <r_epik_Ionization_Penalty_Charging>  (1) 
0

>  <r_epik_Ionization_Penalty_Neutral>  (1) 
0.0001931723336569867

>  <r_epik_State_Penalty>  (1) 
-0

>  <r_glide_ring_energy>  (1) 
1.5751490715595688

>  <r_i_docking_score>  (1) 
-3.3122263088269182

>  <r_i_glide_ecoul>  (1) 
-4.9632891934304348

>  <r_i_glide_eff_state_penalty>  (1) 
-0

>  <r_i_glide_einternal>  (1) 
3.822609755422703

>  <r_i_glide_emodel>  (1) 
-31.589155959330576

>  <r_i_glide_emodel_strain>  (1) 
0.19337996267962154

>  <r_i_glide_energy>  (1) 
-29.526841233287499

>  <r_i_glide_erotb>  (1) 
0.39027100354639338

>  <r_i_glide_esite>  (1) 
0

>  <r_i_glide_evdw>  (1) 
-24.563552039857065

>  <r_i_glide_gscore>  (1) 
-3.3122263088269182

>  <r_i_glide_gscore_strain>  (1) 
0

>  <r_i_glide_hbond>  (1) 
-0.32000000000000001

>  <r_i_glide_ligand_efficiency>  (1) 
-0.11040754362756394

>  <r_i_glide_ligand_efficiency_ln>  (1) 
-0.75257390696166027

>  <r_i_glide_ligand_efficiency_sa>  (1) 
-0.34306190846208556

>  <r_i_glide_lipo>  (1) 
-0.88574551459146378

>  <r_i_glide_metal>  (1) 
-0

>  <r_i_glide_rewards>  (1) 
-0.52408081677442908

>  <r_lp_Energy>  (1) 
9.4869079999999997

>  <r_lp_tautomer_probability>  (1) 
1

>  <s_epik_Chemistry_Notes>  (1) 
This compound contains an acetal/aminal-like group ( X-CH(R)-Y where X, Y are N, S, or O) that may be acid/base labile, releasing an aldehyde.

>  <s_epik_cmdline>  (1) 
J2VwaWtfcHl0aG9uJywgJy1waHQnLCAnMS4wJywgJy1waCcsICc3LjQnLCAnLXRuJywgJzgnLCAnLW1hJywgJzUwMCcsICctaW1hZScsICc8aW5maWxlLm1hZT4nLCAnLW9tYWUnLCAnPG91dGZpbGUubWFlPic=

>  <s_epik_input>  (1) 
RmMxW2NIXVtjSF1jKFtDSDNdKVtjSF1jMVtDQEBIXShbT0hdKVtDQEhdKFMyKU9DKD1DMjMpW0NIMl1bQ0gyXVtTK10oW0NIMl0zKVtDQEBIXShbQ0BASF00RilbQ0gyXVtDQEBIXShDI1tDSF0pW0NASF0oW0NIM10pW0NAQEhdNFtPSF0=

>  <s_glide_docking_method>  (1) 
confgen

>  <s_i_glide_gridfile>  (1) 
gpcr_drd2_6luq_protein_autoprepared_prepared

>  <s_lp_Force_Field>  (1) 
S-OPLS

>  <s_lp_Variant>  (1) 
DiffSBDD_23-1

>  <s_m_source_file>  (1) 
generated_generic_title2_ligand_DiffSBDD_2026-06-23_prepared.sdf

>  <GenAI_Model>  (1) 
DiffSBDD

>  <Protein>  (1) 
generic_title2

$$$$
DiffSBDD_8
     RDKit          3D

  0  0  0  0  0  0  0  0  0  0999 V3000
M  V30 BEGIN CTAB
M  V30 COUNTS 69 72 0 0 1
M  V30 BEGIN ATOM
M  V30 1 N 7.534924 4.221049 -15.705076 0
M  V30 2 C 7.103455 4.032971 -19.053893 0
M  V30 3 C 6.933740 6.149386 -12.009796 0 CFG=1
M  V30 4 N 8.963648 3.189932 -20.194389 0
M  V30 5 O 9.242987 4.553954 -13.383595 0
M  V30 6 C 9.523312 4.912745 -8.790953 0
M  V30 7 F 10.468687 3.056132 -18.466439 0
M  V30 8 C 10.367822 5.935414 -8.019664 0
M  V30 9 N 8.865792 5.510511 -9.950987 0
M  V30 10 C 8.729095 4.597414 -11.089076 0 CFG=1
M  V30 11 C 9.189427 2.871545 -18.793502 0 CFG=1
M  V30 12 C 11.840458 6.900836 -3.044834 0
M  V30 13 C 7.431988 4.718184 -11.874041 0 CFG=2
M  V30 14 O 10.126138 6.312424 -12.165023 0
M  V30 15 O 9.380205 2.034230 -20.939340 0
M  V30 16 C 9.532967 6.946412 -7.223441 0
M  V30 17 C 7.703231 2.737797 -13.587222 0
M  V30 18 C 7.675322 5.659872 -15.938545 0
M  V30 19 C 7.047684 3.846909 -14.407681 0 CFG=1
M  V30 20 C 8.256894 3.845626 -18.056300 0 CFG=2
M  V30 21 C 7.776567 3.311175 -16.686403 0
M  V30 22 C 5.625341 6.537014 -12.623909 0
M  V30 23 C 9.788861 4.940187 -12.159002 0 CFG=2
M  V30 24 C 7.885578 4.182898 -13.198393 0 CFG=2
M  V30 25 O 12.335998 7.685835 -1.983087 0
M  V30 26 O 7.618877 2.101249 -16.521550 0
M  V30 27 C 11.628729 7.808707 -4.265421 0
M  V30 28 C 10.201492 2.503026 -21.994049 0
M  V30 29 C 7.512005 3.216351 -20.281013 0
M  V30 30 O 10.928787 7.108229 -5.280382 0
M  V30 31 C 10.401987 7.802812 -6.303725 0
M  V30 32 N 5.775301 6.388707 -11.185320 0 CHG=1
M  V30 33 O 10.577062 9.003549 -6.505352 0
M  V30 34 H 6.133975 3.706500 -18.673615 0
M  V30 35 H 7.010852 5.086285 -19.319739 0
M  V30 36 H 7.656906 6.952686 -11.891578 0
M  V30 37 H 10.175228 4.100357 -9.105705 0
M  V30 38 H 8.783934 4.451944 -8.134975 0
M  V30 39 H 11.035121 6.459077 -8.703877 0
M  V30 40 H 11.017289 5.389942 -7.335125 0
M  V30 41 H 9.407862 6.310903 -10.273383 0
M  V30 42 H 8.880734 3.562516 -10.797010 0
M  V30 43 H 8.943445 1.826480 -18.596143 0
M  V30 44 H 12.562959 6.116748 -3.255456 0
M  V30 45 H 10.921392 6.393825 -2.741694 0
M  V30 46 H 6.651384 4.075426 -11.462938 0
M  V30 47 H 10.765001 6.433873 -12.851542 0
M  V30 48 H 8.791675 6.426393 -6.615787 0
M  V30 49 H 8.976984 7.591636 -7.904008 0
M  V30 50 H 8.570234 2.218382 -13.991025 0
M  V30 51 H 7.049796 2.123740 -12.971410 0
M  V30 52 H 8.728754 5.935188 -15.989287 0
M  V30 53 H 7.170787 5.985794 -16.848847 0
M  V30 54 H 7.240766 6.236304 -15.121597 0
M  V30 55 H 5.971126 3.933848 -14.283312 0
M  V30 56 H 8.807430 4.781049 -17.968890 0
M  V30 57 H 5.400825 7.576065 -12.856024 0
M  V30 58 H 4.975509 5.766851 -13.028089 0
M  V30 59 H 10.705807 4.390230 -11.984928 0
M  V30 60 H 11.682954 8.323133 -1.733757 0
M  V30 61 H 11.049815 8.689375 -3.984812 0
M  V30 62 H 12.575485 8.198390 -4.628869 0
M  V30 63 H 10.533886 1.660799 -22.600604 0
M  V30 64 H 9.658266 3.189951 -22.644962 0
M  V30 65 H 11.088351 3.010359 -21.611480 0
M  V30 66 H 7.115381 2.202047 -20.204668 0
M  V30 67 H 7.164314 3.651686 -21.217996 0
M  V30 68 H 5.506901 5.521777 -10.744009 0
M  V30 69 H 6.089114 7.145581 -10.563130 0
M  V30 END ATOM
M  V30 BEGIN BOND
M  V30 1 1 8 6
M  V30 2 1 9 6
M  V30 3 1 10 9
M  V30 4 1 11 4
M  V30 5 1 11 7
M  V30 6 1 13 3
M  V30 7 1 13 10
M  V30 8 1 15 4
M  V30 9 1 16 8
M  V30 10 1 18 1
M  V30 11 1 19 1
M  V30 12 1 19 17
M  V30 13 1 20 2
M  V30 14 1 20 11
M  V30 15 1 21 1
M  V30 16 1 21 20
M  V30 17 1 22 3
M  V30 18 1 23 5
M  V30 19 1 23 10
M  V30 20 1 23 14
M  V30 21 1 24 5 CFG=3
M  V30 22 1 24 13
M  V30 23 1 24 17
M  V30 24 1 24 19
M  V30 25 1 25 12
M  V30 26 2 26 21
M  V30 27 1 27 12
M  V30 28 1 28 15
M  V30 29 1 29 2
M  V30 30 1 29 4
M  V30 31 1 30 27
M  V30 32 1 31 16
M  V30 33 1 31 30
M  V30 34 1 32 3
M  V30 35 1 32 22
M  V30 36 2 33 31
M  V30 37 1 34 2
M  V30 38 1 35 2
M  V30 39 1 3 36 CFG=1
M  V30 40 1 37 6
M  V30 41 1 38 6
M  V30 42 1 39 8
M  V30 43 1 40 8
M  V30 44 1 41 9
M  V30 45 1 10 42 CFG=1
M  V30 46 1 11 43 CFG=3
M  V30 47 1 44 12
M  V30 48 1 45 12
M  V30 49 1 13 46 CFG=1
M  V30 50 1 47 14
M  V30 51 1 48 16
M  V30 52 1 49 16
M  V30 53 1 50 17
M  V30 54 1 51 17
M  V30 55 1 52 18
M  V30 56 1 53 18
M  V30 57 1 54 18
M  V30 58 1 19 55 CFG=1
M  V30 59 1 20 56 CFG=1
M  V30 60 1 57 22
M  V30 61 1 58 22
M  V30 62 1 23 59 CFG=1
M  V30 63 1 60 25
M  V30 64 1 61 27
M  V30 65 1 62 27
M  V30 66 1 63 28
M  V30 67 1 64 28
M  V30 68 1 65 28
M  V30 69 1 66 29
M  V30 70 1 67 29
M  V30 71 1 68 32
M  V30 72 1 69 32
M  V30 END BOND
M  V30 END CTAB
M  END
>  <i_epik_Tot_Q>  (1) 
1

>  <i_epik_Tot_abs_Q>  (1) 
1

>  <i_i_glide_confnum>  (1) 
1707

>  <i_i_glide_lignum>  (1) 
37

>  <i_i_glide_posenum>  (1) 
331

>  <i_i_glide_rotatable_bonds>  (1) 
15

>  <i_lp_mmshare_version>  (1) 
72125

>  <i_m_source_file_index>  (1) 
9

>  <i_f3d_flags>  (1) 
0

>  <num_sample>  (1) 
50

>  <b_lp_Chiralities_Consistent>  (1) 
1

>  <r_epik_Charging_Adjusted_Penalty>  (1) 
1.2103720943885907

>  <r_epik_Ionization_Penalty>  (1) 
0.55446808147534954

>  <r_epik_Ionization_Penalty_Charging>  (1) 
0.13553905892425583

>  <r_epik_Ionization_Penalty_Neutral>  (1) 
0.41892902255109377

>  <r_epik_State_Penalty>  (1) 
1.074833035464335

>  <r_glide_ring_energy>  (1) 
0

>  <r_i_docking_score>  (1) 
-3.3107099909832978

>  <r_i_glide_ecoul>  (1) 
-7.0488708825859945

>  <r_i_glide_eff_state_penalty>  (1) 
1.074833035464335

>  <r_i_glide_einternal>  (1) 
14.251521828145549

>  <r_i_glide_emodel>  (1) 
-44.486697673270641

>  <r_i_glide_emodel_strain>  (1) 
3.4056771677865356

>  <r_i_glide_energy>  (1) 
-41.522622221166728

>  <r_i_glide_erotb>  (1) 
1.0741905119875848

>  <r_i_glide_esite>  (1) 
-0.098416705893386802

>  <r_i_glide_evdw>  (1) 
-34.473751338580733

>  <r_i_glide_gscore>  (1) 
-4.3855430264476327

>  <r_i_glide_gscore_strain>  (1) 
0

>  <r_i_glide_hbond>  (1) 
-0.20000000000000001

>  <r_i_glide_ligand_efficiency>  (1) 
-0.10032454518131205

>  <r_i_glide_ligand_efficiency_ln>  (1) 
-0.73628476005576893

>  <r_i_glide_ligand_efficiency_sa>  (1) 
-0.32179442281027582

>  <r_i_glide_lipo>  (1) 
-1.2806423055354841

>  <r_i_glide_metal>  (1) 
-0

>  <r_i_glide_rewards>  (1) 
-1.0996563276894102

>  <r_lp_Energy>  (1) 
37.411439999999999

>  <s_epik_Chemistry_Notes>  (1) 
This compound has an ester and may undergo hydrolysis at high or low pH. This compound contains an acetal/aminal-like group ( X-CH(R)-Y where X, Y are N, S, or O) that may be acid/base labile, releasing an aldehyde. This compound has a N-S or N-O group and may undergo hydrolysis at high or low pH.

>  <s_epik_cmdline>  (1) 
J2VwaWtfcHl0aG9uJywgJy1waHQnLCAnMS4wJywgJy1waCcsICc3LjQnLCAnLXRuJywgJzgnLCAnLW1hJywgJzUwMCcsICctaW1hZScsICc8aW5maWxlLm1hZT4nLCAnLW9tYWUnLCAnPG91dGZpbGUubWFlPic=

>  <s_epik_input>  (1) 
W0NIM11PTjFbQ0BIXShGKVtDQEBIXShbQ0gyXVtDSDJdMSlDKD1PKU4oW0NIM10pW0NASF0yW0NIMl1DMjNPW0NAQEhdKFtPSF0pW0NASF0oW0NASF0zW0NASF00W0NIMl1bTkhdNClbTkhdW0NIMl1bQ0gyXVtDSDJdQyg9TylPW0NIMl1bQ0gyXVtPSF0=

>  <s_glide_docking_method>  (1) 
confgen

>  <s_i_glide_gridfile>  (1) 
gpcr_drd2_6luq_protein_autoprepared_prepared

>  <s_lp_Force_Field>  (1) 
S-OPLS

>  <s_lp_Variant>  (1) 
DiffSBDD_8-6

>  <s_m_source_file>  (1) 
generated_generic_title2_ligand_DiffSBDD_2026-06-23_prepared.sdf

>  <GenAI_Model>  (1) 
DiffSBDD

>  <Protein>  (1) 
generic_title2

$$$$
DiffSBDD_31
     RDKit          3D

  0  0  0  0  0  0  0  0  0  0999 V3000
M  V30 BEGIN CTAB
M  V30 COUNTS 59 61 0 0 1
M  V30 BEGIN ATOM
M  V30 1 C 24.887056 11.761647 -18.962513 0
M  V30 2 C 20.527322 9.037408 -19.322498 0
M  V30 3 C 19.597292 9.990259 -19.791666 0
M  V30 4 C 15.792365 7.264518 -19.789386 0
M  V30 5 C 20.850294 11.204106 -17.071931 0
M  V30 6 O 13.774966 4.660602 -15.985039 0
M  V30 7 C 23.027439 9.231468 -19.763986 0
M  V30 8 C 14.883942 5.422042 -18.476038 0
M  V30 9 C 13.257177 5.836410 -16.564017 0 CFG=2
M  V30 10 C 23.452371 10.413143 -20.674108 0
M  V30 11 C 22.008073 10.848113 -18.024331 0 CFG=1
M  V30 12 C 23.611042 11.721184 -19.830802 0 CFG=1
M  V30 13 C 14.140786 6.338845 -17.699039 0
M  V30 14 O 23.577791 8.132236 -19.839697 0
M  V30 15 F 13.165771 6.790149 -15.604204 0
M  V30 16 C 16.692795 7.761329 -20.901392 0
M  V30 17 C 21.885862 9.478369 -18.762624 0 CFG=1
M  V30 18 C 15.707033 5.884812 -19.517125 0
M  V30 19 C 24.779268 10.063318 -21.396680 0
M  V30 20 C 18.355513 9.575180 -20.304357 0
M  V30 21 C 22.370914 12.020736 -18.959861 0
M  V30 22 C 20.204651 7.663872 -19.375452 0
M  V30 23 C 14.220548 7.721006 -17.977627 0
M  V30 24 C 18.035161 8.206096 -20.354473 0
M  V30 25 C 15.045965 8.182694 -19.020660 0
M  V30 26 C 18.961744 7.249646 -19.890458 0
M  V30 27 C 22.400788 10.611529 -21.790274 0
M  V30 28 C 11.837511 5.527637 -17.053552 0
M  V30 29 H 24.981583 10.887663 -18.317626 0
M  V30 30 H 25.777024 11.810854 -19.585301 0
M  V30 31 H 24.904883 12.646836 -18.326588 0
M  V30 32 H 19.832726 11.038504 -19.758948 0
M  V30 33 H 19.924653 11.449678 -17.587217 0
M  V30 34 H 20.638304 10.390231 -16.382549 0
M  V30 35 H 21.108199 12.072638 -16.465749 0
M  V30 36 H 13.173439 4.390172 -15.302505 0
M  V30 37 H 14.823789 4.363533 -18.269395 0
M  V30 38 H 22.869116 10.733452 -17.365230 0
M  V30 39 H 23.702929 12.553280 -20.530768 0
M  V30 40 H 16.846671 6.973865 -21.640159 0
M  V30 41 H 16.204364 8.584516 -21.424618 0
M  V30 42 H 22.071372 8.739361 -17.985013 0
M  V30 43 H 16.277507 5.181230 -20.105419 0
M  V30 44 H 25.161056 10.914416 -21.961323 0
M  V30 45 H 25.561553 9.753386 -20.702383 0
M  V30 46 H 24.644377 9.242187 -22.102594 0
M  V30 47 H 17.646873 10.309488 -20.658838 0
M  V30 48 H 22.555492 12.914494 -18.362430 0
M  V30 49 H 21.530404 12.289376 -19.594726 0
M  V30 50 H 20.912638 6.927910 -19.021250 0
M  V30 51 H 13.651533 8.426404 -17.388819 0
M  V30 52 H 15.110001 9.241278 -19.229059 0
M  V30 53 H 18.717931 6.198337 -19.928061 0
M  V30 54 H 22.755929 11.317294 -22.541811 0
M  V30 55 H 22.182799 9.674783 -22.305816 0
M  V30 56 H 21.456273 11.002128 -21.422941 0
M  V30 57 H 11.842428 4.749129 -17.817094 0
M  V30 58 H 11.201120 5.190256 -16.234479 0
M  V30 59 H 11.372723 6.412311 -17.487651 0
M  V30 END ATOM
M  V30 BEGIN BOND
M  V30 1 1 3 2
M  V30 2 1 9 6
M  V30 3 1 10 7
M  V30 4 1 11 5
M  V30 5 1 12 1
M  V30 6 1 12 10
M  V30 7 1 13 8
M  V30 8 1 13 9
M  V30 9 2 14 7
M  V30 10 1 9 15 CFG=1
M  V30 11 1 16 4
M  V30 12 1 17 2
M  V30 13 1 17 7
M  V30 14 1 17 11
M  V30 15 1 18 4
M  V30 16 2 18 8
M  V30 17 1 19 10
M  V30 18 2 20 3
M  V30 19 1 21 11
M  V30 20 1 21 12
M  V30 21 2 22 2
M  V30 22 2 23 13
M  V30 23 1 24 16
M  V30 24 1 24 20
M  V30 25 2 25 4
M  V30 26 1 25 23
M  V30 27 1 26 22
M  V30 28 2 26 24
M  V30 29 1 27 10
M  V30 30 1 28 9
M  V30 31 1 29 1
M  V30 32 1 30 1
M  V30 33 1 31 1
M  V30 34 1 32 3
M  V30 35 1 33 5
M  V30 36 1 34 5
M  V30 37 1 35 5
M  V30 38 1 36 6
M  V30 39 1 37 8
M  V30 40 1 11 38 CFG=1
M  V30 41 1 12 39 CFG=3
M  V30 42 1 40 16
M  V30 43 1 41 16
M  V30 44 1 17 42 CFG=1
M  V30 45 1 43 18
M  V30 46 1 44 19
M  V30 47 1 45 19
M  V30 48 1 46 19
M  V30 49 1 47 20
M  V30 50 1 48 21
M  V30 51 1 49 21
M  V30 52 1 50 22
M  V30 53 1 51 23
M  V30 54 1 52 25
M  V30 55 1 53 26
M  V30 56 1 54 27
M  V30 57 1 55 27
M  V30 58 1 56 27
M  V30 59 1 57 28
M  V30 60 1 58 28
M  V30 61 1 59 28
M  V30 END BOND
M  V30 END CTAB
M  END
>  <i_epik_Tot_Q>  (1) 
0

>  <i_epik_Tot_abs_Q>  (1) 
0

>  <i_i_glide_confnum>  (1) 
98

>  <i_i_glide_lignum>  (1) 
93

>  <i_i_glide_posenum>  (1) 
215

>  <i_i_glide_rotatable_bonds>  (1) 
5

>  <i_lp_mmshare_version>  (1) 
72125

>  <i_m_source_file_index>  (1) 
32

>  <i_f3d_flags>  (1) 
0

>  <num_sample>  (1) 
50

>  <b_lp_Chiralities_Consistent>  (1) 
1

>  <r_epik_Charging_Adjusted_Penalty>  (1) 
0

>  <r_epik_Ionization_Penalty>  (1) 
1.3037473646551527e-05

>  <r_epik_Ionization_Penalty_Charging>  (1) 
0

>  <r_epik_Ionization_Penalty_Neutral>  (1) 
1.3037473646551527e-05

>  <r_epik_State_Penalty>  (1) 
-0

>  <r_glide_ring_energy>  (1) 
1.3203360407337346

>  <r_i_docking_score>  (1) 
-3.3089928394011339

>  <r_i_glide_ecoul>  (1) 
-2.2203144613368724

>  <r_i_glide_eff_state_penalty>  (1) 
-0

>  <r_i_glide_einternal>  (1) 
0.95941714923158194

>  <r_i_glide_emodel>  (1) 
-24.187299043675797

>  <r_i_glide_emodel_strain>  (1) 
0.10299639328840016

>  <r_i_glide_energy>  (1) 
-21.516614047128225

>  <r_i_glide_erotb>  (1) 
0.5309461335497756

>  <r_i_glide_esite>  (1) 
0

>  <r_i_glide_evdw>  (1) 
-19.296299585791353

>  <r_i_glide_gscore>  (1) 
-3.3089928394011339

>  <r_i_glide_gscore_strain>  (1) 
0

>  <r_i_glide_hbond>  (1) 
-0.32000000000000001

>  <r_i_glide_ligand_efficiency>  (1) 
-0.11817831569289763

>  <r_i_glide_ligand_efficiency_ln>  (1) 
-0.76381270358524944

>  <r_i_glide_ligand_efficiency_sa>  (1) 
-0.35885897014789359

>  <r_i_glide_lipo>  (1) 
-0.99244813968800949

>  <r_i_glide_metal>  (1) 
-0

>  <r_i_glide_rewards>  (1) 
-1.229628684772802

>  <r_lp_Energy>  (1) 
34.726877999999999

>  <r_lp_tautomer_probability>  (1) 
1

>  <s_epik_cmdline>  (1) 
J2VwaWtfcHl0aG9uJywgJy1waHQnLCAnMS4wJywgJy1waCcsICc3LjQnLCAnLXRuJywgJzgnLCAnLW1hJywgJzUwMCcsICctaW1hZScsICc8aW5maWxlLm1hZT4nLCAnLW9tYWUnLCAnPG91dGZpbGUubWFlPic=

>  <s_epik_input>  (1) 
W0NIM11bQ0BASF0xW0NIMl1bQ0BASF0oW0NIM10pW0NASF0oQyg9TylDMShbQ0gzXSlbQ0gzXSljMltjSF1bY0hdYyhbY0hdW2NIXTIpW0NIMl1jM1tjSF1bY0hdYyhbQ0BdKEYpKFtPSF0pW0NIM10pW2NIXVtjSF0z

>  <s_glide_docking_method>  (1) 
confgen

>  <s_i_glide_gridfile>  (1) 
gpcr_drd2_6luq_protein_autoprepared_prepared

>  <s_lp_Force_Field>  (1) 
S-OPLS

>  <s_lp_Variant>  (1) 
DiffSBDD_31-1

>  <s_m_source_file>  (1) 
generated_generic_title2_ligand_DiffSBDD_2026-06-23_prepared.sdf

>  <GenAI_Model>  (1) 
DiffSBDD

>  <Protein>  (1) 
generic_title2

$$$$
DiffSBDD_18
     RDKit          3D

  0  0  0  0  0  0  0  0  0  0999 V3000
M  V30 BEGIN CTAB
M  V30 COUNTS 61 65 0 0 1
M  V30 BEGIN ATOM
M  V30 1 C 10.335008 7.586692 -20.028070 0
M  V30 2 C 15.795425 4.957407 -19.179853 0
M  V30 3 C 10.391773 4.760244 -18.116209 0 CFG=2
M  V30 4 C 10.577244 5.026080 -19.636671 0 CFG=2
M  V30 5 C 13.286192 1.766541 -20.443697 0 CFG=2
M  V30 6 C 11.958296 1.123785 -19.999169 0
M  V30 7 C 14.251496 4.890108 -19.159744 0 CFG=1
M  V30 8 C 11.293751 6.401623 -19.828243 0 CFG=1
M  V30 9 C 7.994639 3.811863 -18.126570 0
M  V30 10 O 14.437677 1.207205 -18.378383 0
M  V30 11 O 13.974217 5.991284 -18.321746 0
M  V30 12 C 8.620193 3.529355 -20.474268 0
M  V30 13 O 14.575146 -1.209773 -18.175113 0
M  V30 14 S 13.667763 5.125970 -20.876072 0
M  V30 15 C 14.114589 0.780896 -21.284371 0
M  V30 16 C 12.400862 6.445559 -20.904419 0
M  V30 17 C 9.281582 4.916392 -20.483540 0
M  V30 18 O 11.671759 4.653556 -17.470860 0
M  V30 19 C 16.109850 -0.061247 -19.746352 0
M  V30 20 O 7.674256 3.332500 -19.428549 0
M  V30 21 C 9.458344 3.593023 -17.714488 0
M  V30 22 C 12.425251 3.464526 -17.711960 0 CFG=2
M  V30 23 C 14.849148 -0.048990 -18.926342 0 CFG=2
M  V30 24 C 13.736339 3.508169 -16.984069 0
M  V30 25 C 13.725105 3.562159 -18.516583 0 CFG=2
M  V30 26 C 14.187791 2.287793 -19.283818 0 CFG=2
M  V30 27 C 14.757381 -0.283474 -20.420649 0 CFG=1
M  V30 28 H 9.857358 7.568787 -21.007994 0
M  V30 29 H 9.554258 7.589903 -19.267824 0
M  V30 30 H 10.868151 8.534676 -19.946291 0
M  V30 31 H 16.219602 4.707948 -18.206920 0
M  V30 32 H 16.242828 4.296089 -19.920428 0
M  V30 33 H 16.141745 5.959823 -19.438778 0
M  V30 34 H 9.942856 5.658924 -17.690150 0
M  V30 35 H 11.228861 4.239172 -20.008100 0
M  V30 36 H 13.019171 2.576985 -21.114338 0
M  V30 37 H 12.101362 0.356903 -19.237897 0
M  V30 38 H 11.276187 1.866151 -19.601274 0
M  V30 39 H 11.448271 0.656930 -20.841533 0
M  V30 40 H 11.770412 6.655859 -18.888972 0
M  V30 41 H 7.343252 3.281235 -17.431590 0
M  V30 42 H 7.723032 4.864636 -18.044082 0
M  V30 43 H 13.202728 5.770421 -17.812754 0
M  V30 44 H 9.371517 2.742310 -20.451393 0
M  V30 45 H 8.077590 3.384435 -21.408963 0
M  V30 46 H 15.251590 -1.858795 -18.364767 0
M  V30 47 H 13.495875 0.305011 -22.045892 0
M  V30 48 H 14.900964 1.314042 -21.820264 0
M  V30 49 H 11.947617 6.428145 -21.895933 0
M  V30 50 H 12.925878 7.398797 -20.832007 0
M  V30 51 H 9.548862 5.141287 -21.516452 0
M  V30 52 H 8.540227 5.662988 -20.200668 0
M  V30 53 H 16.622804 0.879405 -19.930315 0
M  V30 54 H 16.769903 -0.920626 -19.654575 0
M  V30 55 H 9.793206 2.628643 -18.088431 0
M  V30 56 H 9.488995 3.515350 -16.627391 0
M  V30 57 H 11.896489 2.527922 -17.564226 0
M  V30 58 H 14.034985 2.592405 -16.479268 0
M  V30 59 H 13.953863 4.405672 -16.409669 0
M  V30 60 H 15.151609 2.517982 -19.722162 0
M  V30 61 H 14.560980 -1.301896 -20.753568 0
M  V30 END ATOM
M  V30 BEGIN BOND
M  V30 1 1 4 3
M  V30 2 1 6 5
M  V30 3 1 7 2
M  V30 4 1 8 1
M  V30 5 1 8 4
M  V30 6 1 7 11 CFG=1
M  V30 7 1 14 7
M  V30 8 1 15 5
M  V30 9 1 16 8
M  V30 10 1 16 14
M  V30 11 1 17 4
M  V30 12 1 17 12
M  V30 13 1 18 3
M  V30 14 1 20 9
M  V30 15 1 20 12
M  V30 16 1 21 3
M  V30 17 1 21 9
M  V30 18 1 22 18
M  V30 19 1 23 10
M  V30 20 1 23 13 CFG=1
M  V30 21 1 23 19
M  V30 22 1 24 22
M  V30 23 1 25 7
M  V30 24 1 25 22
M  V30 25 1 25 24 CFG=1
M  V30 26 1 26 5
M  V30 27 1 26 10
M  V30 28 1 26 25
M  V30 29 1 27 15
M  V30 30 1 27 19
M  V30 31 1 27 23
M  V30 32 1 28 1
M  V30 33 1 29 1
M  V30 34 1 30 1
M  V30 35 1 31 2
M  V30 36 1 32 2
M  V30 37 1 33 2
M  V30 38 1 3 34 CFG=1
M  V30 39 1 4 35 CFG=3
M  V30 40 1 5 36 CFG=3
M  V30 41 1 37 6
M  V30 42 1 38 6
M  V30 43 1 39 6
M  V30 44 1 8 40 CFG=1
M  V30 45 1 41 9
M  V30 46 1 42 9
M  V30 47 1 43 11
M  V30 48 1 44 12
M  V30 49 1 45 12
M  V30 50 1 46 13
M  V30 51 1 47 15
M  V30 52 1 48 15
M  V30 53 1 49 16
M  V30 54 1 50 16
M  V30 55 1 51 17
M  V30 56 1 52 17
M  V30 57 1 53 19
M  V30 58 1 54 19
M  V30 59 1 55 21
M  V30 60 1 56 21
M  V30 61 1 22 57 CFG=3
M  V30 62 1 58 24
M  V30 63 1 59 24
M  V30 64 1 26 60 CFG=3
M  V30 65 1 27 61 CFG=1
M  V30 END BOND
M  V30 END CTAB
M  END
>  <i_epik_Tot_Q>  (1) 
0

>  <i_epik_Tot_abs_Q>  (1) 
0

>  <i_i_glide_confnum>  (1) 
3

>  <i_i_glide_lignum>  (1) 
61

>  <i_i_glide_posenum>  (1) 
82

>  <i_i_glide_rotatable_bonds>  (1) 
3

>  <i_lp_mmshare_version>  (1) 
72125

>  <i_m_source_file_index>  (1) 
19

>  <i_f3d_flags>  (1) 
0

>  <num_sample>  (1) 
50

>  <b_lp_Chiralities_Consistent>  (1) 
1

>  <r_epik_Charging_Adjusted_Penalty>  (1) 
0

>  <r_epik_Ionization_Penalty>  (1) 
6.7783705848961877e-07

>  <r_epik_Ionization_Penalty_Charging>  (1) 
0

>  <r_epik_Ionization_Penalty_Neutral>  (1) 
6.7783705848961877e-07

>  <r_epik_State_Penalty>  (1) 
-0

>  <r_glide_ring_energy>  (1) 
0

>  <r_i_docking_score>  (1) 
-3.2950747347030034

>  <r_i_glide_ecoul>  (1) 
-6.3112966412146285

>  <r_i_glide_eff_state_penalty>  (1) 
-0

>  <r_i_glide_einternal>  (1) 
0.33640068459226491

>  <r_i_glide_emodel>  (1) 
-28.420067171892647

>  <r_i_glide_emodel_strain>  (1) 
1.550846350348877

>  <r_i_glide_energy>  (1) 
-24.867299613258027

>  <r_i_glide_erotb>  (1) 
0.12329427839652905

>  <r_i_glide_esite>  (1) 
0

>  <r_i_glide_evdw>  (1) 
-18.556002972043398

>  <r_i_glide_gscore>  (1) 
-3.2950747347030034

>  <r_i_glide_gscore_strain>  (1) 
0

>  <r_i_glide_hbond>  (1) 
-0.32000000000000001

>  <r_i_glide_ligand_efficiency>  (1) 
-0.12203980498900012

>  <r_i_glide_ligand_efficiency_ln>  (1) 
-0.76703907468624133

>  <r_i_glide_ligand_efficiency_sa>  (1) 
-0.36611941496700046

>  <r_i_glide_lipo>  (1) 
-0.48473601727836918

>  <r_i_glide_metal>  (1) 
-0

>  <r_i_glide_rewards>  (1) 
-0.73913835103679926

>  <r_lp_Energy>  (1) 
44.784799999999997

>  <r_lp_tautomer_probability>  (1) 
1

>  <s_epik_cmdline>  (1) 
J2VwaWtfcHl0aG9uJywgJy1waHQnLCAnMS4wJywgJy1waCcsICc3LjQnLCAnLXRuJywgJzgnLCAnLW1hJywgJzUwMCcsICctaW1hZScsICc8aW5maWxlLm1hZT4nLCAnLW9tYWUnLCAnPG91dGZpbGUubWFlPic=

>  <s_epik_input>  (1) 
W0NIM11bQ0BAXTEoW09IXSlTW0NIMl1bQ0BASF0oW0NIM10pW0NASF0oW0NIMl1bQ0gyXU9bQ0gyXVtDSDJdMilbQ0BASF0yT1tDQEhdKFtDSDJdMylDMTNbQ0BASF0oTzQpW0NASF0oW0NIM10pW0NIMl1bQ0BASF0oW0NIMl01KUM0NVtPSF0=

>  <s_glide_docking_method>  (1) 
confgen

>  <s_i_glide_gridfile>  (1) 
gpcr_drd2_6luq_protein_autoprepared_prepared

>  <s_lp_Force_Field>  (1) 
S-OPLS

>  <s_lp_Variant>  (1) 
DiffSBDD_18-1

>  <s_m_source_file>  (1) 
generated_generic_title2_ligand_DiffSBDD_2026-06-23_prepared.sdf

>  <GenAI_Model>  (1) 
DiffSBDD

>  <Protein>  (1) 
generic_title2

$$$$
DiffSBDD_13
     RDKit          3D

  0  0  0  0  0  0  0  0  0  0999 V3000
M  V30 BEGIN CTAB
M  V30 COUNTS 48 50 0 0 1
M  V30 BEGIN ATOM
M  V30 1 O 12.961532 7.190227 -13.826001 0
M  V30 2 C 12.575441 6.790222 -14.862637 0
M  V30 3 C 6.199162 -0.264741 -20.406169 0
M  V30 4 F 12.261555 6.995010 -19.750228 0
M  V30 5 C 7.696372 0.916410 -18.212749 0
M  V30 6 F 3.981780 -3.489945 -18.725786 0
M  V30 7 C 12.113347 6.358694 -16.015575 0
M  V30 8 C 4.711359 -1.189334 -17.125121 0
M  V30 9 C 4.919869 -2.679574 -19.214301 0
M  V30 10 C 8.009212 1.756783 -17.182595 0
M  V30 11 C 14.677950 7.898020 -17.985036 0
M  V30 12 F 4.818906 -2.721286 -20.543012 0
M  V30 13 C 11.139831 5.281573 -16.098328 0
M  V30 14 C 12.609939 7.048163 -17.301197 0 CFG=1
M  V30 15 C 9.686332 3.798540 -17.283806 0
M  V30 16 C 7.097280 0.961261 -20.642961 0
M  V30 17 C 5.863792 -0.262730 -16.752072 0
M  V30 18 C 9.271274 2.108145 -20.104215 0
M  V30 19 N 14.059386 6.943038 -17.421561 0
M  V30 20 C 10.635743 4.860044 -17.269410 0
M  V30 21 C 11.042744 5.473290 -18.515107 0
M  V30 22 C 8.916523 2.850384 -17.288300 0
M  V30 23 C 6.711754 -0.237173 -18.022547 0 CFG=1
M  V30 24 C 11.938809 6.473327 -18.554030 0
M  V30 25 F 6.114693 -3.155171 -18.860935 0
M  V30 26 C 4.680400 -1.243450 -18.666802 0 CFG=2
M  V30 27 C 8.278616 1.015674 -19.652951 0 CFG=1
M  V30 28 N 5.673130 -0.228706 -19.045296 0
M  V30 29 H 5.375410 -0.258773 -21.120004 0
M  V30 30 H 6.769711 -1.179588 -20.569747 0
M  V30 31 H 3.775434 -0.809900 -16.717017 0
M  V30 32 H 4.871630 -2.182292 -16.703182 0
M  V30 33 H 7.555555 1.606192 -16.215415 0
M  V30 34 H 15.764797 7.865721 -18.094897 0
M  V30 35 H 14.136187 8.767551 -18.369798 0
M  V30 36 H 10.809855 4.805330 -15.185046 0
M  V30 37 H 12.293024 8.090410 -17.228742 0
M  V30 38 H 6.503539 1.872979 -20.559794 0
M  V30 39 H 7.466431 0.929007 -21.668549 0
M  V30 40 H 5.465052 0.728198 -16.528939 0
M  V30 41 H 6.417453 -0.614314 -15.880552 0
M  V30 42 H 10.203161 2.072422 -19.540302 0
M  V30 43 H 9.551852 1.959375 -21.147196 0
M  V30 44 H 8.839035 3.106874 -20.038550 0
M  V30 45 H 10.612545 5.119370 -19.441209 0
M  V30 46 H 7.279644 -1.165333 -18.096462 0
M  V30 47 H 3.709676 -0.901763 -19.026679 0
M  V30 48 H 8.824733 0.079054 -19.774406 0
M  V30 END ATOM
M  V30 BEGIN BOND
M  V30 1 2 2 1
M  V30 2 2 7 2
M  V30 3 1 9 6
M  V30 4 2 10 5
M  V30 5 1 12 9
M  V30 6 1 13 7
M  V30 7 1 14 7
M  V30 8 1 16 3
M  V30 9 1 17 8
M  V30 10 2 19 11
M  V30 11 1 19 14
M  V30 12 2 20 13
M  V30 13 1 20 15
M  V30 14 1 21 20
M  V30 15 1 22 10
M  V30 16 3 22 15
M  V30 17 1 23 5
M  V30 18 1 23 17
M  V30 19 1 24 4
M  V30 20 1 24 14
M  V30 21 2 24 21
M  V30 22 1 25 9
M  V30 23 1 26 8
M  V30 24 1 26 9
M  V30 25 1 27 5
M  V30 26 1 27 16
M  V30 27 1 27 18
M  V30 28 1 28 3
M  V30 29 1 28 23
M  V30 30 1 28 26
M  V30 31 1 29 3
M  V30 32 1 30 3
M  V30 33 1 31 8
M  V30 34 1 32 8
M  V30 35 1 33 10
M  V30 36 1 34 11
M  V30 37 1 35 11
M  V30 38 1 36 13
M  V30 39 1 14 37 CFG=1
M  V30 40 1 38 16
M  V30 41 1 39 16
M  V30 42 1 40 17
M  V30 43 1 41 17
M  V30 44 1 42 18
M  V30 45 1 43 18
M  V30 46 1 44 18
M  V30 47 1 45 21
M  V30 48 1 23 46 CFG=3
M  V30 49 1 26 47 CFG=3
M  V30 50 1 27 48 CFG=3
M  V30 END BOND
M  V30 END CTAB
M  END
>  <i_epik_Tot_Q>  (1) 
0

>  <i_epik_Tot_abs_Q>  (1) 
0

>  <i_i_glide_confnum>  (1) 
3

>  <i_i_glide_lignum>  (1) 
50

>  <i_i_glide_posenum>  (1) 
53

>  <i_i_glide_rotatable_bonds>  (1) 
4

>  <i_lp_mmshare_version>  (1) 
72125

>  <i_m_source_file_index>  (1) 
14

>  <i_f3d_flags>  (1) 
0

>  <num_sample>  (1) 
50

>  <b_lp_Chiralities_Consistent>  (1) 
1

>  <r_epik_Charging_Adjusted_Penalty>  (1) 
0

>  <r_epik_Ionization_Penalty>  (1) 
0.00020645461892998548

>  <r_epik_Ionization_Penalty_Charging>  (1) 
0

>  <r_epik_Ionization_Penalty_Neutral>  (1) 
0.00020645461892998548

>  <r_epik_State_Penalty>  (1) 
-0

>  <r_glide_ring_energy>  (1) 
0

>  <r_i_docking_score>  (1) 
-3.2665352285917781

>  <r_i_glide_ecoul>  (1) 
-2.1901349357721784

>  <r_i_glide_eff_state_penalty>  (1) 
-0

>  <r_i_glide_einternal>  (1) 
0.075774254195829727

>  <r_i_glide_emodel>  (1) 
-32.54349772331306

>  <r_i_glide_emodel_strain>  (1) 
0.00079951434884861783

>  <r_i_glide_energy>  (1) 
-27.466521480796381

>  <r_i_glide_erotb>  (1) 
0.38039990127662543

>  <r_i_glide_esite>  (1) 
-0.021622667362304015

>  <r_i_glide_evdw>  (1) 
-25.276386545024202

>  <r_i_glide_gscore>  (1) 
-3.2665352285917781

>  <r_i_glide_gscore_strain>  (1) 
0

>  <r_i_glide_hbond>  (1) 
0

>  <r_i_glide_ligand_efficiency>  (1) 
-0.11666197244970636

>  <r_i_glide_ligand_efficiency_ln>  (1) 
-0.75401224040082815

>  <r_i_glide_ligand_efficiency_sa>  (1) 
-0.35425445897804075

>  <r_i_glide_lipo>  (1) 
-1.2036995481422614

>  <r_i_glide_metal>  (1) 
-0

>  <r_i_glide_rewards>  (1) 
-0.8292733467468012

>  <r_lp_Energy>  (1) 
26.927206999999999

>  <r_lp_tautomer_probability>  (1) 
1

>  <s_epik_Chemistry_Notes>  (1) 
This compound has an imine and may undergo hydrolysis.

>  <s_epik_cmdline>  (1) 
J2VwaWtfcHl0aG9uJywgJy1waHQnLCAnMS4wJywgJy1waCcsICc3LjQnLCAnLXRuJywgJzgnLCAnLW1hJywgJzUwMCcsICctaW1hZScsICc8aW5maWxlLm1hZT4nLCAnLW9tYWUnLCAnPG91dGZpbGUubWFlPic=

>  <s_epik_input>  (1) 
W0NIMl09TltDQEhdMUMoRik9W0NIXUMoPVtDSF1DMT1DPU8pQyNDXFtDSF09Q1wyW0NASF0oW0NIM10pW0NIMl1bQ0gyXU4oW0NAQEhdMjMpW0NAQEhdKEMoRikoRilGKVtDSDJdW0NIMl0z

>  <s_glide_docking_method>  (1) 
confgen

>  <s_i_glide_gridfile>  (1) 
gpcr_drd2_6luq_protein_autoprepared_prepared

>  <s_lp_Force_Field>  (1) 
S-OPLS

>  <s_lp_Variant>  (1) 
DiffSBDD_13-1

>  <s_m_source_file>  (1) 
generated_generic_title2_ligand_DiffSBDD_2026-06-23_prepared.sdf

>  <GenAI_Model>  (1) 
DiffSBDD

>  <Protein>  (1) 
generic_title2

$$$$
DiffSBDD_48
     RDKit          3D

  0  0  0  0  0  0  0  0  0  0999 V3000
M  V30 BEGIN CTAB
M  V30 COUNTS 43 43 0 0 1
M  V30 BEGIN ATOM
M  V30 1 C 7.019337 4.902435 -14.198371 0 CFG=2
M  V30 2 C 10.123769 7.326531 -8.799458 0
M  V30 3 C 7.453523 5.415206 -12.796686 0 CFG=1
M  V30 4 C 9.374981 6.155453 -11.255167 0
M  V30 5 O 5.741093 7.866098 -15.618356 0 CHG=-1
M  V30 6 O 6.175397 2.580493 -12.721064 0
M  V30 7 F 8.308721 4.390722 -10.043755 0
M  V30 8 C 6.844280 5.906083 -16.397929 0
M  V30 9 C 10.107428 7.360553 -11.240493 0
M  V30 10 C 7.489507 3.462574 -14.543723 0
M  V30 11 C 6.926232 2.338575 -13.658629 0
M  V30 12 C 8.978013 5.516326 -12.583755 0
M  V30 13 C 5.604522 6.798144 -16.253949 0
M  V30 14 C 5.042946 7.990253 -11.588140 0
M  V30 15 C 9.389116 6.126138 -8.811597 0
M  V30 16 C 7.329419 0.897236 -13.993499 0
M  V30 17 O 4.547862 6.392837 -16.786194 0
M  V30 18 O 7.577079 5.781530 -15.176506 0
M  V30 19 O 7.811927 0.761400 -15.316018 0
M  V30 20 C 5.675575 6.605188 -11.765087 0
M  V30 21 O 6.853775 6.685533 -12.554281 0
M  V30 22 F 10.485627 7.888081 -7.620870 0
M  V30 23 C 10.482050 7.944558 -10.011928 0
M  V30 24 C 9.013102 5.541510 -10.036657 0
M  V30 25 H 5.928969 4.930958 -14.240178 0
M  V30 26 H 7.090206 4.718740 -12.045652 0
M  V30 27 H 7.487892 6.367249 -17.144764 0
M  V30 28 H 6.574307 4.928990 -16.798236 0
M  V30 29 H 10.381183 7.836570 -12.169673 0
M  V30 30 H 8.575340 3.416015 -14.510178 0
M  V30 31 H 7.206044 3.232191 -15.569944 0
M  V30 32 H 9.422119 4.520856 -12.619451 0
M  V30 33 H 9.428727 6.069438 -13.403262 0
M  V30 34 H 4.210575 7.952184 -10.886070 0
M  V30 35 H 5.773721 8.694179 -11.191796 0
M  V30 36 H 4.660660 8.387767 -12.528153 0
M  V30 37 H 9.111211 5.654893 -7.881671 0
M  V30 38 H 6.464033 0.246297 -13.859653 0
M  V30 39 H 8.094915 0.568637 -13.290215 0
M  V30 40 H 7.945650 -0.159709 -15.491306 0
M  V30 41 H 4.975416 5.917467 -12.234466 0
M  V30 42 H 5.917474 6.191723 -10.785133 0
M  V30 43 H 11.044103 8.865959 -9.999527 0
M  V30 END ATOM
M  V30 BEGIN BOND
M  V30 1 1 3 1
M  V30 2 1 9 4
M  V30 3 1 10 1
M  V30 4 2 11 6
M  V30 5 1 11 10
M  V30 6 1 12 3
M  V30 7 1 12 4
M  V30 8 1 13 5
M  V30 9 1 13 8
M  V30 10 2 15 2
M  V30 11 1 16 11
M  V30 12 2 17 13
M  V30 13 1 18 1
M  V30 14 1 18 8
M  V30 15 1 19 16
M  V30 16 1 20 14
M  V30 17 1 21 3
M  V30 18 1 21 20
M  V30 19 1 22 2
M  V30 20 1 23 2
M  V30 21 2 23 9
M  V30 22 2 24 4
M  V30 23 1 24 7
M  V30 24 1 24 15
M  V30 25 1 1 25 CFG=1
M  V30 26 1 3 26 CFG=1
M  V30 27 1 27 8
M  V30 28 1 28 8
M  V30 29 1 29 9
M  V30 30 1 30 10
M  V30 31 1 31 10
M  V30 32 1 32 12
M  V30 33 1 33 12
M  V30 34 1 34 14
M  V30 35 1 35 14
M  V30 36 1 36 14
M  V30 37 1 37 15
M  V30 38 1 38 16
M  V30 39 1 39 16
M  V30 40 1 40 19
M  V30 41 1 41 20
M  V30 42 1 42 20
M  V30 43 1 43 23
M  V30 END BOND
M  V30 END CTAB
M  END
>  <i_epik_Tot_Q>  (1) 
-1

>  <i_epik_Tot_abs_Q>  (1) 
1

>  <i_i_glide_confnum>  (1) 
1237

>  <i_i_glide_lignum>  (1) 
126

>  <i_i_glide_posenum>  (1) 
250

>  <i_i_glide_rotatable_bonds>  (1) 
12

>  <i_lp_mmshare_version>  (1) 
72125

>  <i_m_source_file_index>  (1) 
49

>  <i_f3d_flags>  (1) 
0

>  <num_sample>  (1) 
50

>  <b_lp_Chiralities_Consistent>  (1) 
1

>  <r_epik_Charging_Adjusted_Penalty>  (1) 
7.9156217055703786e-05

>  <r_epik_Ionization_Penalty>  (1) 
8.8264238192330274e-05

>  <r_epik_Ionization_Penalty_Charging>  (1) 
7.9156217055703786e-05

>  <r_epik_Ionization_Penalty_Neutral>  (1) 
9.1080211366264862e-06

>  <r_epik_State_Penalty>  (1) 
-0

>  <r_glide_ring_energy>  (1) 
0

>  <r_i_docking_score>  (1) 
-3.2639808009771509

>  <r_i_glide_ecoul>  (1) 
-0.91651183355938604

>  <r_i_glide_eff_state_penalty>  (1) 
-0

>  <r_i_glide_einternal>  (1) 
5.9398844198863738

>  <r_i_glide_emodel>  (1) 
-33.229004145834764

>  <r_i_glide_emodel_strain>  (1) 
0.085137939551376718

>  <r_i_glide_energy>  (1) 
-30.003591139563873

>  <r_i_glide_erotb>  (1) 
1.2745455854061123

>  <r_i_glide_esite>  (1) 
-0.018686352668160596

>  <r_i_glide_evdw>  (1) 
-29.087079306004487

>  <r_i_glide_gscore>  (1) 
-3.2639808009771509

>  <r_i_glide_gscore_strain>  (1) 
0

>  <r_i_glide_hbond>  (1) 
0

>  <r_i_glide_ligand_efficiency>  (1) 
-0.13599920004071461

>  <r_i_glide_ligand_efficiency_ln>  (1) 
-0.7812203799933638

>  <r_i_glide_ligand_efficiency_sa>  (1) 
-0.39228957564174388

>  <r_i_glide_lipo>  (1) 
-0.71710801758229714

>  <r_i_glide_metal>  (1) 
-0

>  <r_i_glide_rewards>  (1) 
-2.2109012757986735

>  <r_lp_Energy>  (1) 
21.997854

>  <r_lp_tautomer_probability>  (1) 
1

>  <s_epik_cmdline>  (1) 
J2VwaWtfcHl0aG9uJywgJy1waHQnLCAnMS4wJywgJy1waCcsICc3LjQnLCAnLXRuJywgJzgnLCAnLW1hJywgJzUwMCcsICctaW1hZScsICc8aW5maWxlLm1hZT4nLCAnLW9tYWUnLCAnPG91dGZpbGUubWFlPic=

>  <s_epik_input>  (1) 
W09IXUMoPU8pW0NIMl1PW0NAQEhdKFtDSDJdQyg9TylbQ0gyXVtPSF0pW0NASF0oT1tDSDJdW0NIM10pW0NIMl1jKFtjSF1bY0hdMSljKEYpW2NIXWMxRg==

>  <s_glide_docking_method>  (1) 
confgen

>  <s_i_glide_gridfile>  (1) 
gpcr_drd2_6luq_protein_autoprepared_prepared

>  <s_lp_Force_Field>  (1) 
S-OPLS

>  <s_lp_Variant>  (1) 
DiffSBDD_48-1

>  <s_m_source_file>  (1) 
generated_generic_title2_ligand_DiffSBDD_2026-06-23_prepared.sdf

>  <GenAI_Model>  (1) 
DiffSBDD

>  <Protein>  (1) 
generic_title2

$$$$
DiffSBDD_33
     RDKit          3D

  0  0  0  0  0  0  0  0  0  0999 V3000
M  V30 BEGIN CTAB
M  V30 COUNTS 57 63 0 0 1
M  V30 BEGIN ATOM
M  V30 1 C 9.066610 5.308873 -21.728323 0
M  V30 2 C 8.977256 3.578376 -19.886751 0
M  V30 3 C 10.688554 6.336388 -19.375976 0 CFG=2
M  V30 4 C 15.731384 5.724599 -18.502601 0
M  V30 5 C 5.163064 0.354522 -18.902935 0
M  V30 6 C 10.547758 4.373623 -17.974994 0
M  V30 7 C 6.948927 2.180221 -19.670523 0
M  V30 8 S 8.793926 1.563027 -17.911910 0
M  V30 9 C 6.400919 2.921702 -20.770041 0
M  V30 10 C 6.400937 1.053317 -18.852709 0
M  V30 11 C 14.255035 9.099213 -19.466605 0
M  V30 12 C 8.280403 2.548692 -19.236368 0
M  V30 13 C 4.873319 -0.693626 -18.005440 0
M  V30 14 N 10.966798 5.133905 -20.158901 0
M  V30 15 C 7.038706 -0.415375 -16.947955 0
M  V30 16 O 16.120422 8.875234 -17.985026 0
M  V30 17 C 14.711732 8.837831 -18.060275 0 CFG=2
M  V30 18 N 7.116023 3.914562 -21.366403 0
M  V30 19 C 7.342798 0.630161 -17.837788 0
M  V30 20 C 5.806260 -1.074823 -17.032781 0
M  V30 21 N 12.682606 7.417245 -18.498086 0 CFG=2 CHG=1
M  V30 22 C 11.721536 7.449169 -19.626146 0
M  V30 23 C 10.932860 5.853271 -17.959048 0 CFG=1
M  V30 24 C 8.353441 4.220408 -20.954250 0
M  V30 25 C 14.102673 7.703927 -18.871569 0 CFG=1
M  V30 26 C 14.884078 6.541481 -19.495767 0
M  V30 27 C 10.590925 5.200611 -21.569658 0
M  V30 28 C 10.406487 3.968776 -19.460446 0 CFG=2
M  V30 29 C 12.414290 6.179935 -17.722103 0
M  V30 30 H 8.810281 5.223726 -22.785034 0
M  V30 31 H 8.696200 6.281525 -21.406337 0
M  V30 32 H 9.659547 6.675377 -19.494958 0
M  V30 33 H 16.180499 4.866548 -19.003236 0
M  V30 34 H 16.548928 6.314099 -18.089715 0
M  V30 35 H 15.151217 5.346232 -17.662897 0
M  V30 36 H 4.428299 0.632758 -19.644840 0
M  V30 37 H 11.293030 3.762062 -17.464756 0
M  V30 38 H 9.609317 4.244376 -17.435981 0
M  V30 39 H 5.414982 2.712719 -21.158126 0
M  V30 40 H 13.375419 9.719489 -19.585018 0
M  V30 41 H 15.016578 9.253417 -20.229353 0
M  V30 42 H 3.923467 -1.205744 -18.067355 0
M  V30 43 H 7.757904 -0.713226 -16.198431 0
M  V30 44 H 16.480224 8.576657 -18.806620 0
M  V30 45 H 14.180591 9.292230 -17.225371 0
M  V30 46 H 5.575354 -1.879368 -16.349102 0
M  V30 47 H 11.233777 8.424097 -19.640382 0
M  V30 48 H 12.226883 7.329127 -20.585080 0
M  V30 49 H 10.313226 6.390227 -17.244038 0
M  V30 50 H 14.195744 5.885453 -20.030281 0
M  V30 51 H 15.551393 6.940085 -20.260614 0
M  V30 52 H 10.946055 4.293271 -22.060185 0
M  V30 53 H 11.085963 6.035111 -22.065540 0
M  V30 54 H 11.044021 3.110056 -19.675768 0
M  V30 55 H 13.000054 5.347544 -18.106014 0
M  V30 56 H 12.656066 6.301251 -16.665722 0
M  V30 57 H 12.395408 8.185937 -17.905274 0
M  V30 END ATOM
M  V30 BEGIN BOND
M  V30 1 2 9 7
M  V30 2 2 10 5
M  V30 3 1 10 7
M  V30 4 2 12 2
M  V30 5 1 12 7
M  V30 6 1 12 8
M  V30 7 1 13 5
M  V30 8 1 14 3
M  V30 9 1 17 11
M  V30 10 1 17 16
M  V30 11 1 18 9
M  V30 12 1 19 8
M  V30 13 1 19 10
M  V30 14 2 19 15
M  V30 15 2 20 13
M  V30 16 1 20 15
M  V30 17 1 22 3
M  V30 18 1 22 21
M  V30 19 1 23 3
M  V30 20 1 23 6
M  V30 21 1 24 1
M  V30 22 1 24 2
M  V30 23 2 24 18
M  V30 24 1 25 11
M  V30 25 1 25 17
M  V30 26 1 25 21
M  V30 27 1 26 4
M  V30 28 1 25 26 CFG=3
M  V30 29 1 27 1
M  V30 30 1 27 14
M  V30 31 1 28 2
M  V30 32 1 28 6
M  V30 33 1 28 14
M  V30 34 1 29 21
M  V30 35 1 29 23
M  V30 36 1 30 1
M  V30 37 1 31 1
M  V30 38 1 3 32 CFG=1
M  V30 39 1 33 4
M  V30 40 1 34 4
M  V30 41 1 35 4
M  V30 42 1 36 5
M  V30 43 1 37 6
M  V30 44 1 38 6
M  V30 45 1 39 9
M  V30 46 1 40 11
M  V30 47 1 41 11
M  V30 48 1 42 13
M  V30 49 1 43 15
M  V30 50 1 44 16
M  V30 51 1 17 45 CFG=1
M  V30 52 1 46 20
M  V30 53 1 47 22
M  V30 54 1 48 22
M  V30 55 1 23 49 CFG=1
M  V30 56 1 50 26
M  V30 57 1 51 26
M  V30 58 1 52 27
M  V30 59 1 53 27
M  V30 60 1 28 54 CFG=1
M  V30 61 1 55 29
M  V30 62 1 56 29
M  V30 63 1 21 57 CFG=1
M  V30 END BOND
M  V30 END CTAB
M  END
>  <i_epik_Tot_Q>  (1) 
1

>  <i_epik_Tot_abs_Q>  (1) 
1

>  <i_i_glide_confnum>  (1) 
1

>  <i_i_glide_lignum>  (1) 
95

>  <i_i_glide_posenum>  (1) 
378

>  <i_i_glide_rotatable_bonds>  (1) 
3

>  <i_lp_mmshare_version>  (1) 
72125

>  <i_m_source_file_index>  (1) 
34

>  <i_f3d_flags>  (1) 
0

>  <num_sample>  (1) 
50

>  <b_lp_Chiralities_Consistent>  (1) 
1

>  <r_epik_Charging_Adjusted_Penalty>  (1) 
0.0056247907503774904

>  <r_epik_Ionization_Penalty>  (1) 
0.066233849197789949

>  <r_epik_Ionization_Penalty_Charging>  (1) 
0.0056247907503774904

>  <r_epik_Ionization_Penalty_Neutral>  (1) 
0.060609058447412462

>  <r_epik_State_Penalty>  (1) 
-0

>  <r_glide_ring_energy>  (1) 
0

>  <r_i_docking_score>  (1) 
-3.2617091771584685

>  <r_i_glide_ecoul>  (1) 
-4.6904240639948398

>  <r_i_glide_eff_state_penalty>  (1) 
-0

>  <r_i_glide_einternal>  (1) 
0.54886434826722841

>  <r_i_glide_emodel>  (1) 
-31.266027366804742

>  <r_i_glide_emodel_strain>  (1) 
0

>  <r_i_glide_energy>  (1) 
-26.232144189740275

>  <r_i_glide_erotb>  (1) 
0.11895510521466947

>  <r_i_glide_esite>  (1) 
-0.016244306083705834

>  <r_i_glide_evdw>  (1) 
-21.541720125745435

>  <r_i_glide_gscore>  (1) 
-3.2617091771584685

>  <r_i_glide_gscore_strain>  (1) 
0

>  <r_i_glide_hbond>  (1) 
0

>  <r_i_glide_ligand_efficiency>  (1) 
-0.11247273024684375

>  <r_i_glide_ligand_efficiency_ln>  (1) 
-0.74684869176095403

>  <r_i_glide_ligand_efficiency_sa>  (1) 
-0.34555186156820361

>  <r_i_glide_lipo>  (1) 
-0.94677667858475256

>  <r_i_glide_metal>  (1) 
-0

>  <r_i_glide_rewards>  (1) 
-0.63699368181818239

>  <r_lp_Energy>  (1) 
35.775191999999997

>  <r_lp_tautomer_probability>  (1) 
1

>  <s_epik_cmdline>  (1) 
J2VwaWtfcHl0aG9uJywgJy1waHQnLCAnMS4wJywgJy1waCcsICc3LjQnLCAnLXRuJywgJzgnLCAnLW1hJywgJzUwMCcsICctaW1hZScsICc8aW5maWxlLm1hZT4nLCAnLW9tYWUnLCAnPG91dGZpbGUubWFlPic=

>  <s_epik_input>  (1) 
W09IXVtDQEhdMVtDSDJdW0NAXTEoW0NIMl1bQ0gzXSlOKFtDSDJdMilbQ0gyXVtDQEhdKFtDSDJdW0NAQEhdMzQpW0NAQEhdMk40W0NIMl1bQ0gyXWM1bltjSF1jKGM2YzM1KWM3YyhzNilbY0hdW2NIXVtjSF1bY0hdNw==

>  <s_glide_docking_method>  (1) 
confgen

>  <s_i_glide_gridfile>  (1) 
gpcr_drd2_6luq_protein_autoprepared_prepared

>  <s_lp_Force_Field>  (1) 
S-OPLS

>  <s_lp_Variant>  (1) 
DiffSBDD_33-1

>  <s_m_source_file>  (1) 
generated_generic_title2_ligand_DiffSBDD_2026-06-23_prepared.sdf

>  <GenAI_Model>  (1) 
DiffSBDD

>  <Protein>  (1) 
generic_title2

$$$$
DiffSBDD_41
     RDKit          3D

  0  0  0  0  0  0  0  0  0  0999 V3000
M  V30 BEGIN CTAB
M  V30 COUNTS 77 81 0 0 1
M  V30 BEGIN ATOM
M  V30 1 C 5.301754 8.120317 -21.307449 0
M  V30 2 C 7.084159 4.012622 -21.592984 0
M  V30 3 C 8.498790 0.350165 -17.213534 0
M  V30 4 C 4.448628 8.436821 -20.089790 0
M  V30 5 C 16.165747 -1.021664 -21.848045 0
M  V30 6 C 14.868280 -1.550418 -21.781875 0
M  V30 7 C 14.344222 -0.069719 -19.895452 0
M  V30 8 C 15.667841 0.477552 -19.987468 0
M  V30 9 C 7.087553 4.648839 -20.173869 0 CFG=1
M  V30 10 C 11.467510 1.793432 -19.672942 0
M  V30 11 C 5.571197 9.414513 -22.065804 0
M  V30 12 C 16.562620 -0.009785 -20.957779 0
M  V30 13 C 13.957268 -1.079508 -20.819131 0
M  V30 14 C 8.395909 4.608820 -19.323321 0 CFG=2
M  V30 15 C 13.760858 0.863031 -17.655717 0
M  V30 16 N 13.375313 0.413312 -18.889345 0
M  V30 17 C 6.481549 6.078009 -20.020049 0 CFG=2
M  V30 18 C 10.086677 1.880898 -20.382633 0
M  V30 19 C 8.052115 5.616294 -18.205344 0
M  V30 20 C 7.688302 7.330737 -21.915844 0
M  V30 21 C 9.648657 5.140911 -20.062076 0
M  V30 22 C 11.911101 0.372039 -19.192067 0 CFG=1
M  V30 23 O 14.905162 0.803088 -17.210202 0
M  V30 24 C 6.345419 6.995314 -21.261570 0 CFG=2
M  V30 25 C 5.782666 3.261100 -21.909989 0
M  V30 26 C 11.043965 -0.289456 -18.050568 0
M  V30 27 C 9.933886 0.622586 -17.604816 0 CFG=1
M  V30 28 C 7.241376 6.732494 -18.857750 0
M  V30 29 C 5.093727 6.854336 -22.105083 0
M  V30 30 C 8.846020 0.670466 -18.648541 0 CFG=2
M  V30 31 F 16.061902 1.488513 -19.185051 0
M  V30 32 C 8.675211 3.240945 -18.621915 0
M  V30 33 C 8.834675 1.946257 -19.465537 0 CFG=1
M  V30 34 H 7.247890 4.742653 -22.379017 0
M  V30 35 H 7.909585 3.315008 -21.702425 0
M  V30 36 H 7.978385 1.107834 -16.632173 0
M  V30 37 H 8.241080 -0.678096 -16.966323 0
M  V30 38 H 4.175358 7.547097 -19.529868 0
M  V30 39 H 5.005098 9.095419 -19.424895 0
M  V30 40 H 3.526065 8.938280 -20.384621 0
M  V30 41 H 16.858053 -1.387936 -22.592013 0
M  V30 42 H 14.567721 -2.324619 -22.472475 0
M  V30 43 H 6.413301 4.011922 -19.597283 0
M  V30 44 H 11.534648 2.524137 -18.867260 0
M  V30 45 H 12.205147 2.126921 -20.404856 0
M  V30 46 H 5.941730 9.219548 -23.071995 0
M  V30 47 H 4.659084 10.003543 -22.164938 0
M  V30 48 H 6.314799 10.009885 -21.536721 0
M  V30 49 H 17.556882 0.405497 -21.025426 0
M  V30 50 H 12.975406 -1.509011 -20.785038 0
M  V30 51 H 12.901017 1.265888 -17.098865 0
M  V30 52 H 5.470805 5.884194 -19.664769 0
M  V30 53 H 10.095473 2.722906 -21.064509 0
M  V30 54 H 9.986294 1.021906 -21.047297 0
M  V30 55 H 7.422158 5.153548 -17.444124 0
M  V30 56 H 8.937224 5.990258 -17.689251 0
M  V30 57 H 8.365515 6.486030 -21.944354 0
M  V30 58 H 7.550967 7.647845 -22.948986 0
M  V30 59 H 8.183498 8.140340 -21.379785 0
M  V30 60 H 9.665063 6.228781 -20.113288 0
M  V30 61 H 10.565494 4.850790 -19.548643 0
M  V30 62 H 9.714821 4.789125 -21.088552 0
M  V30 63 H 11.692013 -0.226671 -20.064964 0
M  V30 64 H 5.806548 2.855852 -22.921708 0
M  V30 65 H 5.629751 2.426083 -21.225371 0
M  V30 66 H 4.914900 3.914760 -21.835415 0
M  V30 67 H 10.575420 -1.209722 -18.399448 0
M  V30 68 H 11.623844 -0.597390 -17.185022 0
M  V30 69 H 10.309642 1.539469 -17.160309 0
M  V30 70 H 6.560550 7.190220 -18.141326 0
M  V30 71 H 7.916026 7.509198 -19.211536 0
M  V30 72 H 5.210495 6.901573 -23.186005 0
M  V30 73 H 4.310138 6.182824 -21.761204 0
M  V30 74 H 8.734196 -0.200935 -19.292761 0
M  V30 75 H 7.847746 3.048449 -17.938778 0
M  V30 76 H 9.541655 3.377772 -17.977237 0
M  V30 77 H 7.948127 1.861396 -20.090542 0
M  V30 END ATOM
M  V30 BEGIN BOND
M  V30 1 1 4 1
M  V30 2 2 6 5
M  V30 3 1 8 7
M  V30 4 1 9 2
M  V30 5 1 11 1
M  V30 6 1 12 5
M  V30 7 2 12 8
M  V30 8 1 13 6
M  V30 9 2 13 7
M  V30 10 1 14 9
M  V30 11 1 16 7
M  V30 12 1 16 15
M  V30 13 1 17 9
M  V30 14 1 18 10
M  V30 15 1 19 14
M  V30 16 1 14 21 CFG=3
M  V30 17 1 22 10
M  V30 18 1 22 16
M  V30 19 2 23 15
M  V30 20 1 24 1
M  V30 21 1 24 17
M  V30 22 1 24 20 CFG=3
M  V30 23 1 25 2
M  V30 24 1 26 22
M  V30 25 1 27 3
M  V30 26 1 27 26
M  V30 27 1 28 17
M  V30 28 1 28 19
M  V30 29 1 29 1
M  V30 30 1 29 24
M  V30 31 1 30 3
M  V30 32 1 30 27
M  V30 33 1 31 8
M  V30 34 1 32 14
M  V30 35 1 33 18
M  V30 36 1 33 30
M  V30 37 1 33 32
M  V30 38 1 34 2
M  V30 39 1 35 2
M  V30 40 1 36 3
M  V30 41 1 37 3
M  V30 42 1 38 4
M  V30 43 1 39 4
M  V30 44 1 40 4
M  V30 45 1 41 5
M  V30 46 1 42 6
M  V30 47 1 9 43 CFG=1
M  V30 48 1 44 10
M  V30 49 1 45 10
M  V30 50 1 46 11
M  V30 51 1 47 11
M  V30 52 1 48 11
M  V30 53 1 49 12
M  V30 54 1 50 13
M  V30 55 1 51 15
M  V30 56 1 17 52 CFG=1
M  V30 57 1 53 18
M  V30 58 1 54 18
M  V30 59 1 55 19
M  V30 60 1 56 19
M  V30 61 1 57 20
M  V30 62 1 58 20
M  V30 63 1 59 20
M  V30 64 1 60 21
M  V30 65 1 61 21
M  V30 66 1 62 21
M  V30 67 1 22 63 CFG=3
M  V30 68 1 64 25
M  V30 69 1 65 25
M  V30 70 1 66 25
M  V30 71 1 67 26
M  V30 72 1 68 26
M  V30 73 1 27 69 CFG=1
M  V30 74 1 70 28
M  V30 75 1 71 28
M  V30 76 1 72 29
M  V30 77 1 73 29
M  V30 78 1 30 74 CFG=3
M  V30 79 1 75 32
M  V30 80 1 76 32
M  V30 81 1 33 77 CFG=3
M  V30 END BOND
M  V30 END CTAB
M  END
>  <i_epik_Tot_Q>  (1) 
0

>  <i_epik_Tot_abs_Q>  (1) 
0

>  <i_i_glide_confnum>  (1) 
118

>  <i_i_glide_lignum>  (1) 
116

>  <i_i_glide_posenum>  (1) 
62

>  <i_i_glide_rotatable_bonds>  (1) 
7

>  <i_lp_mmshare_version>  (1) 
72125

>  <i_m_source_file_index>  (1) 
42

>  <i_f3d_flags>  (1) 
0

>  <num_sample>  (1) 
50

>  <b_lp_Chiralities_Consistent>  (1) 
1

>  <r_epik_Charging_Adjusted_Penalty>  (1) 
0

>  <r_epik_Ionization_Penalty>  (1) 
1.2096700552292907e-05

>  <r_epik_Ionization_Penalty_Charging>  (1) 
0

>  <r_epik_Ionization_Penalty_Neutral>  (1) 
1.2096700552292907e-05

>  <r_epik_State_Penalty>  (1) 
-0

>  <r_glide_ring_energy>  (1) 
0.29128280038351462

>  <r_i_docking_score>  (1) 
-3.2573547703552368

>  <r_i_glide_ecoul>  (1) 
-1.3839263409499409

>  <r_i_glide_eff_state_penalty>  (1) 
-0

>  <r_i_glide_einternal>  (1) 
6.3708081382865061

>  <r_i_glide_emodel>  (1) 
-23.560530890150936

>  <r_i_glide_emodel_strain>  (1) 
1.2717442477624843

>  <r_i_glide_energy>  (1) 
-25.696599478269626

>  <r_i_glide_erotb>  (1) 
0.48765284155676775

>  <r_i_glide_esite>  (1) 
-0.0098449357183689155

>  <r_i_glide_evdw>  (1) 
-24.312673137319685

>  <r_i_glide_gscore>  (1) 
-3.2573547703552368

>  <r_i_glide_gscore_strain>  (1) 
0

>  <r_i_glide_hbond>  (1) 
0

>  <r_i_glide_ligand_efficiency>  (1) 
-0.098707720313795058

>  <r_i_glide_ligand_efficiency_ln>  (1) 
-0.72441883524663553

>  <r_i_glide_ligand_efficiency_sa>  (1) 
-0.31660840154212405

>  <r_i_glide_lipo>  (1) 
-1.7404535750104257

>  <r_i_glide_metal>  (1) 
-0

>  <r_i_glide_rewards>  (1) 
-0.57148649317473432

>  <r_lp_Energy>  (1) 
75.135584999999992

>  <r_lp_tautomer_probability>  (1) 
1

>  <s_epik_cmdline>  (1) 
J2VwaWtfcHl0aG9uJywgJy1waHQnLCAnMS4wJywgJy1waCcsICc3LjQnLCAnLXRuJywgJzgnLCAnLW1hJywgJzUwMCcsICctaW1hZScsICc8aW5maWxlLm1hZT4nLCAnLW9tYWUnLCAnPG91dGZpbGUubWFlPic=

>  <s_epik_input>  (1) 
W0NIM11DMShbQ0gzXSlbQ0BAXShbQ0gzXSkoW0NIMl0xKVtDQEhdKFtDSDJdW0NIMl0yKVtDQEBIXShbQ0gyXVtDSDNdKVtDQF0yKFtDSDNdKVtDSDJdW0NASF0oW0NASF0oW0NIMl0zKVtDQEBIXTM0KVtDSDJdW0NIMl1bQ0BIXShbQ0gyXTQpTihbQ0hdPU8pYzVjKEYpW2NIXVtjSF1bY0hdW2NIXTU=

>  <s_glide_docking_method>  (1) 
confgen

>  <s_i_glide_gridfile>  (1) 
gpcr_drd2_6luq_protein_autoprepared_prepared

>  <s_lp_Force_Field>  (1) 
S-OPLS

>  <s_lp_Variant>  (1) 
DiffSBDD_41-1

>  <s_m_source_file>  (1) 
generated_generic_title2_ligand_DiffSBDD_2026-06-23_prepared.sdf

>  <GenAI_Model>  (1) 
DiffSBDD

>  <Protein>  (1) 
generic_title2

$$$$
DiffSBDD_48
     RDKit          3D

  0  0  0  0  0  0  0  0  0  0999 V3000
M  V30 BEGIN CTAB
M  V30 COUNTS 43 43 0 0 1
M  V30 BEGIN ATOM
M  V30 1 C 7.158783 3.772596 -13.154014 0 CFG=2
M  V30 2 C 9.953082 7.486700 -8.365811 0
M  V30 3 C 7.504985 4.648154 -11.919932 0 CFG=1
M  V30 4 C 9.334953 5.695015 -10.456473 0
M  V30 5 O 9.562824 4.773833 -16.375607 0 CHG=-1
M  V30 6 O 6.975418 1.654144 -15.156679 0
M  V30 7 F 10.175370 7.298288 -12.027348 0
M  V30 8 C 7.618677 5.151855 -15.057319 0
M  V30 9 C 9.064114 5.342351 -9.116586 0
M  V30 10 C 7.238105 2.265428 -12.829714 0
M  V30 11 C 6.810996 1.335505 -13.980746 0
M  V30 12 C 9.009688 4.719978 -11.585987 0
M  V30 13 C 8.376944 5.171723 -16.386646 0
M  V30 14 C 5.375410 7.673033 -11.899138 0
M  V30 15 C 10.220512 7.843497 -9.701068 0
M  V30 16 C 6.174772 -0.009775 -13.613543 0
M  V30 17 O 7.753708 5.590224 -17.388276 0
M  V30 18 O 8.035660 4.060216 -14.239927 0
M  V30 19 O 6.175417 -0.286605 -12.226696 0
M  V30 20 C 5.750457 6.225170 -11.582131 0
M  V30 21 O 7.027737 5.968440 -12.139480 0
M  V30 22 F 10.251823 8.346586 -7.362009 0
M  V30 23 C 9.375409 6.237215 -8.073461 0
M  V30 24 C 9.911880 6.951331 -10.746438 0
M  V30 25 H 6.123395 3.963929 -13.441890 0
M  V30 26 H 7.004883 4.230211 -11.043656 0
M  V30 27 H 6.553125 5.083069 -15.282077 0
M  V30 28 H 7.787915 6.098763 -14.545050 0
M  V30 29 H 8.619062 4.390229 -8.889270 0
M  V30 30 H 6.575367 2.083712 -11.985066 0
M  V30 31 H 8.247441 1.992094 -12.521276 0
M  V30 32 H 9.375394 3.731019 -11.307842 0
M  V30 33 H 9.575730 5.001329 -12.474428 0
M  V30 34 H 4.465942 7.973232 -11.380392 0
M  V30 35 H 6.165715 8.355630 -11.585032 0
M  V30 36 H 5.214199 7.802125 -12.968022 0
M  V30 37 H 10.663552 8.800661 -9.924225 0
M  V30 38 H 6.707690 -0.806407 -14.133178 0
M  V30 39 H 5.146833 -0.023027 -13.976558 0
M  V30 40 H 5.775398 -1.141928 -12.130384 0
M  V30 41 H 5.007929 5.541302 -11.993131 0
M  V30 42 H 5.774660 6.066785 -10.502928 0
M  V30 43 H 9.167014 5.966244 -7.049268 0
M  V30 END ATOM
M  V30 BEGIN BOND
M  V30 1 1 3 1
M  V30 2 1 9 4
M  V30 3 1 10 1
M  V30 4 2 11 6
M  V30 5 1 11 10
M  V30 6 1 12 3
M  V30 7 1 12 4
M  V30 8 1 13 5
M  V30 9 1 13 8
M  V30 10 2 15 2
M  V30 11 1 16 11
M  V30 12 2 17 13
M  V30 13 1 18 1
M  V30 14 1 18 8
M  V30 15 1 19 16
M  V30 16 1 20 14
M  V30 17 1 21 3
M  V30 18 1 21 20
M  V30 19 1 22 2
M  V30 20 1 23 2
M  V30 21 2 23 9
M  V30 22 2 24 4
M  V30 23 1 24 7
M  V30 24 1 24 15
M  V30 25 1 1 25 CFG=3
M  V30 26 1 3 26 CFG=1
M  V30 27 1 27 8
M  V30 28 1 28 8
M  V30 29 1 29 9
M  V30 30 1 30 10
M  V30 31 1 31 10
M  V30 32 1 32 12
M  V30 33 1 33 12
M  V30 34 1 34 14
M  V30 35 1 35 14
M  V30 36 1 36 14
M  V30 37 1 37 15
M  V30 38 1 38 16
M  V30 39 1 39 16
M  V30 40 1 40 19
M  V30 41 1 41 20
M  V30 42 1 42 20
M  V30 43 1 43 23
M  V30 END BOND
M  V30 END CTAB
M  END
>  <i_epik_Tot_Q>  (1) 
-1

>  <i_epik_Tot_abs_Q>  (1) 
1

>  <i_i_glide_confnum>  (1) 
1003

>  <i_i_glide_lignum>  (1) 
126

>  <i_i_glide_posenum>  (1) 
229

>  <i_i_glide_rotatable_bonds>  (1) 
12

>  <i_lp_mmshare_version>  (1) 
72125

>  <i_m_source_file_index>  (1) 
49

>  <i_f3d_flags>  (1) 
0

>  <num_sample>  (1) 
50

>  <b_lp_Chiralities_Consistent>  (1) 
1

>  <r_epik_Charging_Adjusted_Penalty>  (1) 
7.9156217055703786e-05

>  <r_epik_Ionization_Penalty>  (1) 
8.8264238192330274e-05

>  <r_epik_Ionization_Penalty_Charging>  (1) 
7.9156217055703786e-05

>  <r_epik_Ionization_Penalty_Neutral>  (1) 
9.1080211366264862e-06

>  <r_epik_State_Penalty>  (1) 
-0

>  <r_glide_ring_energy>  (1) 
0

>  <r_i_docking_score>  (1) 
-3.2470920501524745

>  <r_i_glide_ecoul>  (1) 
-0.87171392861080399

>  <r_i_glide_eff_state_penalty>  (1) 
-0

>  <r_i_glide_einternal>  (1) 
6.4523027302654565

>  <r_i_glide_emodel>  (1) 
-35.262118156776836

>  <r_i_glide_emodel_strain>  (1) 
0.44334852486524845

>  <r_i_glide_energy>  (1) 
-32.683621921608328

>  <r_i_glide_erotb>  (1) 
1.2745455854061123

>  <r_i_glide_esite>  (1) 
-0.0064958917562708681

>  <r_i_glide_evdw>  (1) 
-31.811907992997522

>  <r_i_glide_gscore>  (1) 
-3.2470920501524745

>  <r_i_glide_gscore_strain>  (1) 
0

>  <r_i_glide_hbond>  (1) 
-0.099518898187411692

>  <r_i_glide_ligand_efficiency>  (1) 
-0.13529550208968644

>  <r_i_glide_ligand_efficiency_ln>  (1) 
-0.77717812694674138

>  <r_i_glide_ligand_efficiency_sa>  (1) 
-0.39025975950675068

>  <r_i_glide_lipo>  (1) 
-0.61841398515465562

>  <r_i_glide_metal>  (1) 
-0

>  <r_i_glide_rewards>  (1) 
-2.0758563715187517

>  <r_lp_Energy>  (1) 
21.997854

>  <r_lp_tautomer_probability>  (1) 
1

>  <s_epik_cmdline>  (1) 
J2VwaWtfcHl0aG9uJywgJy1waHQnLCAnMS4wJywgJy1waCcsICc3LjQnLCAnLXRuJywgJzgnLCAnLW1hJywgJzUwMCcsICctaW1hZScsICc8aW5maWxlLm1hZT4nLCAnLW9tYWUnLCAnPG91dGZpbGUubWFlPic=

>  <s_epik_input>  (1) 
W09IXUMoPU8pW0NIMl1PW0NAQEhdKFtDSDJdQyg9TylbQ0gyXVtPSF0pW0NASF0oT1tDSDJdW0NIM10pW0NIMl1jKFtjSF1bY0hdMSljKEYpW2NIXWMxRg==

>  <s_glide_docking_method>  (1) 
confgen

>  <s_i_glide_gridfile>  (1) 
gpcr_drd2_6luq_protein_autoprepared_prepared

>  <s_lp_Force_Field>  (1) 
S-OPLS

>  <s_lp_Variant>  (1) 
DiffSBDD_48-1

>  <s_m_source_file>  (1) 
generated_generic_title2_ligand_DiffSBDD_2026-06-23_prepared.sdf

>  <GenAI_Model>  (1) 
DiffSBDD

>  <Protein>  (1) 
generic_title2

$$$$
DiffSBDD_14
     RDKit          3D

  0  0  0  0  0  0  0  0  0  0999 V3000
M  V30 BEGIN CTAB
M  V30 COUNTS 71 74 0 0 1
M  V30 BEGIN ATOM
M  V30 1 C 7.495245 3.451212 -19.897870 0
M  V30 2 O 11.665642 6.350853 -18.201516 0
M  V30 3 C 13.329964 7.524821 -19.273363 0 CFG=2
M  V30 4 O 11.856416 5.993735 -21.254013 0
M  V30 5 C 5.448849 4.470421 -13.133832 0
M  V30 6 C 7.040733 4.679201 -15.071366 0
M  V30 7 N 7.363142 4.899333 -17.437425 0
M  V30 8 C 6.672457 5.210799 -13.697626 0 CFG=2
M  V30 9 C 9.585782 7.469902 -10.755128 0
M  V30 10 C 12.606106 6.612152 -17.163732 0
M  V30 11 C 10.534322 6.368700 -7.951687 0
M  V30 12 C 8.849390 6.392242 -10.677330 0
M  V30 13 C 8.018139 7.792376 -12.274396 0
M  V30 14 C 7.758270 6.343990 -11.679950 0 CFG=1
M  V30 15 C 9.653373 6.693060 -20.469081 0
M  V30 16 C 10.971453 7.482753 -8.547963 0
M  V30 17 C 13.230314 6.288658 -21.475359 0
M  V30 18 C 7.870855 5.180777 -12.700429 0 CFG=2
M  V30 19 C 11.816103 7.354142 -19.193580 0 CFG=1
M  V30 20 C 13.950554 6.404721 -20.125756 0
M  V30 21 O 6.885870 6.790227 -18.595696 0
M  V30 22 C 7.307475 5.633366 -18.564521 0
M  V30 23 O 9.238490 8.360412 -11.708245 0
M  V30 24 C 13.727384 7.440072 -17.806147 0
M  V30 25 C 9.024456 5.302288 -9.712726 0
M  V30 26 C 10.793438 7.851094 -9.972610 0
M  V30 27 C 9.268445 5.119836 -13.361719 0
M  V30 28 C 6.994074 5.412779 -16.194310 0
M  V30 29 C 9.321118 5.237342 -20.068976 0
M  V30 30 C 7.813940 4.959985 -19.852332 0 CFG=1
M  V30 31 C 9.738502 5.294374 -8.553492 0
M  V30 32 C 11.157960 7.021205 -20.553977 0 CFG=1
M  V30 33 H 6.445008 3.256227 -19.675686 0
M  V30 34 H 7.693776 3.046730 -20.890749 0
M  V30 35 H 8.102331 2.884716 -19.190536 0
M  V30 36 H 13.588246 8.494685 -19.700834 0
M  V30 37 H 4.576454 4.614920 -13.768825 0
M  V30 38 H 5.633019 3.398389 -13.053786 0
M  V30 39 H 5.187685 4.835393 -12.140399 0
M  V30 40 H 7.362805 3.648370 -15.119075 0
M  V30 41 H 7.705572 3.951263 -17.471423 0
M  V30 42 H 6.373744 6.249182 -13.846766 0
M  V30 43 H 12.973894 5.673381 -16.748688 0
M  V30 44 H 12.126237 7.171699 -16.360056 0
M  V30 45 H 10.804717 6.241417 -6.913441 0
M  V30 46 H 7.191066 8.444265 -11.990844 0
M  V30 47 H 8.071108 7.797340 -13.362316 0
M  V30 48 H 6.793192 6.317350 -11.174931 0
M  V30 49 H 9.201569 6.885051 -21.442832 0
M  V30 50 H 9.186845 7.399471 -19.783068 0
M  V30 51 H 11.555376 8.178580 -7.962757 0
M  V30 52 H 13.668242 5.482878 -22.063996 0
M  V30 53 H 13.336404 7.204779 -22.058194 0
M  V30 54 H 7.787061 4.248493 -12.140145 0
M  V30 55 H 11.375391 8.273184 -18.807959 0
M  V30 56 H 13.874196 5.449262 -19.604628 0
M  V30 57 H 15.013926 6.592009 -20.278052 0
M  V30 58 H 14.713332 6.997703 -17.660032 0
M  V30 59 H 13.743462 8.437352 -17.363694 0
M  V30 60 H 8.477094 4.396837 -9.926932 0
M  V30 61 H 11.673681 7.514074 -10.519804 0
M  V30 62 H 10.840393 8.939232 -9.985147 0
M  V30 63 H 9.456337 5.990145 -13.984654 0
M  V30 64 H 10.068832 5.060396 -12.624211 0
M  V30 65 H 9.375719 4.236076 -13.986095 0
M  V30 66 H 6.676401 6.446896 -16.214900 0
M  V30 67 H 9.868708 4.958222 -19.169136 0
M  V30 68 H 9.694935 4.576521 -20.851893 0
M  V30 69 H 7.266468 5.417840 -20.677567 0
M  V30 70 H 9.676279 4.390240 -7.984984 0
M  V30 71 H 11.239206 7.924594 -21.161471 0
M  V30 END ATOM
M  V30 BEGIN BOND
M  V30 1 1 8 5
M  V30 2 1 8 6
M  V30 3 1 10 2
M  V30 4 2 12 9
M  V30 5 1 14 12
M  V30 6 1 14 13
M  V30 7 2 16 11
M  V30 8 1 17 4
M  V30 9 1 18 8
M  V30 10 1 18 14
M  V30 11 1 19 2
M  V30 12 1 19 3
M  V30 13 1 20 3
M  V30 14 1 20 17
M  V30 15 1 22 7
M  V30 16 2 22 21
M  V30 17 1 23 9
M  V30 18 1 23 13
M  V30 19 1 24 3
M  V30 20 1 24 10
M  V30 21 1 25 12
M  V30 22 1 26 9
M  V30 23 1 26 16
M  V30 24 1 27 18
M  V30 25 2 28 6
M  V30 26 1 28 7
M  V30 27 1 29 15
M  V30 28 1 30 1
M  V30 29 1 30 22
M  V30 30 1 30 29
M  V30 31 1 31 11
M  V30 32 2 31 25
M  V30 33 1 32 4
M  V30 34 1 32 15
M  V30 35 1 32 19
M  V30 36 1 33 1
M  V30 37 1 34 1
M  V30 38 1 35 1
M  V30 39 1 3 36 CFG=3
M  V30 40 1 37 5
M  V30 41 1 38 5
M  V30 42 1 39 5
M  V30 43 1 40 6
M  V30 44 1 41 7
M  V30 45 1 8 42 CFG=3
M  V30 46 1 43 10
M  V30 47 1 44 10
M  V30 48 1 45 11
M  V30 49 1 46 13
M  V30 50 1 47 13
M  V30 51 1 14 48 CFG=1
M  V30 52 1 49 15
M  V30 53 1 50 15
M  V30 54 1 51 16
M  V30 55 1 52 17
M  V30 56 1 53 17
M  V30 57 1 18 54 CFG=1
M  V30 58 1 19 55 CFG=1
M  V30 59 1 56 20
M  V30 60 1 57 20
M  V30 61 1 58 24
M  V30 62 1 59 24
M  V30 63 1 60 25
M  V30 64 1 61 26
M  V30 65 1 62 26
M  V30 66 1 63 27
M  V30 67 1 64 27
M  V30 68 1 65 27
M  V30 69 1 66 28
M  V30 70 1 67 29
M  V30 71 1 68 29
M  V30 72 1 30 69 CFG=3
M  V30 73 1 70 31
M  V30 74 1 32 71 CFG=3
M  V30 END BOND
M  V30 END CTAB
M  END
>  <i_epik_Tot_Q>  (1) 
0

>  <i_epik_Tot_abs_Q>  (1) 
0

>  <i_i_glide_confnum>  (1) 
238

>  <i_i_glide_lignum>  (1) 
52

>  <i_i_glide_posenum>  (1) 
161

>  <i_i_glide_rotatable_bonds>  (1) 
9

>  <i_lp_mmshare_version>  (1) 
72125

>  <i_m_source_file_index>  (1) 
15

>  <i_f3d_flags>  (1) 
0

>  <num_sample>  (1) 
50

>  <b_lp_Chiralities_Consistent>  (1) 
1

>  <r_epik_Charging_Adjusted_Penalty>  (1) 
0

>  <r_epik_Ionization_Penalty>  (1) 
2.2973717276536928e-08

>  <r_epik_Ionization_Penalty_Charging>  (1) 
0

>  <r_epik_Ionization_Penalty_Neutral>  (1) 
2.2973717276536928e-08

>  <r_epik_State_Penalty>  (1) 
-0

>  <r_glide_ring_energy>  (1) 
0

>  <r_i_docking_score>  (1) 
-3.2276186444132788

>  <r_i_glide_ecoul>  (1) 
-0.72080225954065569

>  <r_i_glide_eff_state_penalty>  (1) 
-0

>  <r_i_glide_einternal>  (1) 
11.292245187271446

>  <r_i_glide_emodel>  (1) 
-28.21356883692328

>  <r_i_glide_emodel_strain>  (1) 
0

>  <r_i_glide_energy>  (1) 
-29.18360027530527

>  <r_i_glide_erotb>  (1) 
0.7170138056727231

>  <r_i_glide_esite>  (1) 
0

>  <r_i_glide_evdw>  (1) 
-28.462798015764616

>  <r_i_glide_gscore>  (1) 
-3.2276186444132788

>  <r_i_glide_gscore_strain>  (1) 
0

>  <r_i_glide_hbond>  (1) 
0

>  <r_i_glide_ligand_efficiency>  (1) 
-0.10086308263791496

>  <r_i_glide_ligand_efficiency_ln>  (1) 
-0.72275179604547846

>  <r_i_glide_ligand_efficiency_sa>  (1) 
-0.32022032696836333

>  <r_i_glide_lipo>  (1) 
-1.2037162182187504

>  <r_i_glide_metal>  (1) 
-0

>  <r_i_glide_rewards>  (1) 
-1.2096559921479224

>  <r_lp_Energy>  (1) 
21.48593

>  <r_lp_tautomer_probability>  (1) 
1

>  <s_epik_cmdline>  (1) 
J2VwaWtfcHl0aG9uJywgJy1waHQnLCAnMS4wJywgJy1waCcsICc3LjQnLCAnLXRuJywgJzgnLCAnLW1hJywgJzUwMCcsICctaW1hZScsICc8aW5maWxlLm1hZT4nLCAnLW9tYWUnLCAnPG91dGZpbGUubWFlPic=

>  <s_epik_input>  (1) 
W0NIMl0xW0NIMl1PW0NAQEhdKFtDQEBIXTEyKVtDQEBIXShPW0NIMl1bQ0gyXTIpW0NIMl1bQ0gyXVtDQEBIXShbQ0gzXSlDKD1PKVtOSF1cW0NIXT1bQ0hdXFtDQEBIXShbQ0gzXSlbQ0BASF0oW0NIM10pW0NASF0oW0NIMl1PMylDKD1DMzQpW0NIXT1bQ0hdW0NIXT1bQ0hdW0NIMl00

>  <s_glide_docking_method>  (1) 
confgen

>  <s_i_glide_gridfile>  (1) 
gpcr_drd2_6luq_protein_autoprepared_prepared

>  <s_lp_Force_Field>  (1) 
S-OPLS

>  <s_lp_Variant>  (1) 
DiffSBDD_14-1

>  <s_m_source_file>  (1) 
generated_generic_title2_ligand_DiffSBDD_2026-06-23_prepared.sdf

>  <GenAI_Model>  (1) 
DiffSBDD

>  <Protein>  (1) 
generic_title2

$$$$
DiffSBDD_20
     RDKit          3D

  0  0  0  0  0  0  0  0  0  0999 V3000
M  V30 BEGIN CTAB
M  V30 COUNTS 71 73 0 0 1
M  V30 BEGIN ATOM
M  V30 1 C 11.749312 6.354233 -22.654911 0
M  V30 2 C 4.778974 6.772853 -18.721742 0
M  V30 3 C 8.093090 6.067546 -19.839512 0 CFG=1
M  V30 4 C 10.460467 6.092080 -22.897672 0
M  V30 5 C 12.379711 6.416533 -21.321404 0 CFG=1
M  V30 6 C 9.291213 4.494864 -10.892016 0
M  V30 7 C 7.577041 4.803913 -13.504233 0 CFG=1
M  V30 8 F 13.647968 6.806303 -21.443591 0
M  V30 9 C 7.103464 6.350199 -15.539896 0
M  V30 10 O 10.231665 5.990219 -12.527593 0
M  V30 11 C 8.408541 5.351910 -18.504928 0
M  V30 12 C 6.595467 5.204490 -14.634756 0 CFG=2
M  V30 13 C 10.647474 7.140257 -9.866593 0
M  V30 14 C 9.397458 5.889118 -21.899413 0
M  V30 15 C 9.360743 6.366553 -20.625841 0
M  V30 16 C 10.401899 7.205413 -19.995854 0
M  V30 17 C 7.825851 5.918520 -12.441832 0 CFG=2
M  V30 18 C 5.725132 5.737940 -20.925816 0
M  V30 19 N 7.191264 5.114939 -17.699608 0 CHG=1
M  V30 20 C 4.806607 5.569732 -19.696173 0
M  V30 21 C 8.941492 8.409725 -11.185029 0
M  V30 22 C 6.644046 6.309140 -17.018095 0 CFG=1
M  V30 23 O 5.375410 5.590224 -14.050829 0
M  V30 24 C 9.157747 5.850361 -11.617646 0 CFG=1
M  V30 25 S 7.972316 5.027014 -22.388600 0
M  V30 26 C 11.701051 7.256739 -20.313964 0
M  V30 27 C 9.292214 7.026181 -10.597828 0
M  V30 28 C 5.131325 6.453512 -17.251887 0
M  V30 29 C 7.164985 5.202718 -20.763650 0 CFG=1
M  V30 30 O 6.693925 5.990229 -11.585027 0
M  V30 31 N 7.150613 3.529063 -12.901769 0
M  V30 32 H 12.418538 6.476358 -23.494510 0
M  V30 33 H 3.775025 7.192077 -18.731739 0
M  V30 34 H 5.405175 7.586748 -19.088216 0
M  V30 35 H 7.629823 7.036818 -19.657234 0
M  V30 36 H 10.172214 6.007988 -23.934109 0
M  V30 37 H 12.442762 5.400832 -20.929391 0
M  V30 38 H 8.401894 4.300988 -10.293174 0
M  V30 39 H 10.131914 4.453390 -10.208969 0
M  V30 40 H 9.410906 3.663352 -11.585658 0
M  V30 41 H 8.527964 4.618473 -14.004190 0
M  V30 42 H 6.843553 7.316396 -15.103351 0
M  V30 43 H 8.192848 6.325699 -15.535315 0
M  V30 44 H 10.464576 5.136674 -12.868919 0
M  V30 45 H 8.875725 4.388247 -18.710729 0
M  V30 46 H 9.126305 5.916397 -17.907736 0
M  V30 47 H 6.408490 4.323069 -15.246656 0
M  V30 48 H 11.485351 7.196825 -10.561493 0
M  V30 49 H 10.814610 6.308583 -9.185013 0
M  V30 50 H 10.680370 8.037696 -9.248232 0
M  V30 51 H 10.084267 7.838630 -19.185027 0
M  V30 52 H 7.850574 6.853039 -12.998575 0
M  V30 53 H 5.265297 5.175478 -21.740054 0
M  V30 54 H 5.733718 6.773482 -21.268621 0
M  V30 55 H 6.478908 4.758719 -18.320471 0
M  V30 56 H 5.015009 4.630437 -19.185318 0
M  V30 57 H 3.793633 5.428061 -20.073576 0
M  V30 58 H 9.627469 8.690080 -11.983513 0
M  V30 59 H 8.975409 9.173510 -10.407201 0
M  V30 60 H 7.929853 8.464773 -11.584870 0
M  V30 61 H 7.051032 7.190228 -17.504090 0
M  V30 62 H 5.566643 5.867088 -13.158040 0
M  V30 63 H 12.342149 7.925522 -19.756453 0
M  V30 64 H 8.575412 6.790226 -9.814338 0
M  V30 65 H 4.779589 7.287623 -16.642759 0
M  V30 66 H 4.575766 5.590228 -16.896658 0
M  V30 67 H 7.111213 4.182944 -20.380927 0
M  V30 68 H 6.864898 6.634306 -10.897638 0
M  V30 69 H 6.511452 3.732940 -12.132045 0
M  V30 70 H 6.635118 2.960667 -13.571142 0
M  V30 71 H 7.388177 4.409254 -17.004570 0
M  V30 END ATOM
M  V30 BEGIN BOND
M  V30 1 2 4 1
M  V30 2 1 5 1
M  V30 3 1 8 5
M  V30 4 1 11 3
M  V30 5 1 12 7
M  V30 6 1 12 9
M  V30 7 1 14 4
M  V30 8 1 15 3
M  V30 9 2 15 14
M  V30 10 1 16 15
M  V30 11 1 17 7
M  V30 12 1 19 11
M  V30 13 1 20 2
M  V30 14 1 20 18
M  V30 15 1 22 9
M  V30 16 1 22 19
M  V30 17 1 23 12
M  V30 18 1 24 6
M  V30 19 1 24 10 CFG=3
M  V30 20 1 24 17
M  V30 21 1 25 14
M  V30 22 1 26 5
M  V30 23 2 26 16
M  V30 24 1 27 13
M  V30 25 1 27 21
M  V30 26 1 27 24
M  V30 27 1 28 2
M  V30 28 1 28 22
M  V30 29 1 29 3
M  V30 30 1 29 18
M  V30 31 1 29 25
M  V30 32 1 30 17
M  V30 33 1 31 7
M  V30 34 1 32 1
M  V30 35 1 33 2
M  V30 36 1 34 2
M  V30 37 1 3 35 CFG=1
M  V30 38 1 36 4
M  V30 39 1 5 37 CFG=1
M  V30 40 1 38 6
M  V30 41 1 39 6
M  V30 42 1 40 6
M  V30 43 1 7 41 CFG=3
M  V30 44 1 42 9
M  V30 45 1 43 9
M  V30 46 1 44 10
M  V30 47 1 45 11
M  V30 48 1 46 11
M  V30 49 1 12 47 CFG=3
M  V30 50 1 48 13
M  V30 51 1 49 13
M  V30 52 1 50 13
M  V30 53 1 51 16
M  V30 54 1 17 52 CFG=3
M  V30 55 1 53 18
M  V30 56 1 54 18
M  V30 57 1 55 19
M  V30 58 1 56 20
M  V30 59 1 57 20
M  V30 60 1 58 21
M  V30 61 1 59 21
M  V30 62 1 60 21
M  V30 63 1 22 61 CFG=3
M  V30 64 1 62 23
M  V30 65 1 63 26
M  V30 66 1 64 27
M  V30 67 1 65 28
M  V30 68 1 66 28
M  V30 69 1 29 67 CFG=1
M  V30 70 1 68 30
M  V30 71 1 69 31
M  V30 72 1 70 31
M  V30 73 1 71 19
M  V30 END BOND
M  V30 END CTAB
M  END
>  <i_epik_Tot_Q>  (1) 
1

>  <i_epik_Tot_abs_Q>  (1) 
1

>  <i_i_glide_confnum>  (1) 
70

>  <i_i_glide_lignum>  (1) 
66

>  <i_i_glide_posenum>  (1) 
227

>  <i_i_glide_rotatable_bonds>  (1) 
9

>  <i_lp_mmshare_version>  (1) 
72125

>  <i_m_source_file_index>  (1) 
21

>  <i_f3d_flags>  (1) 
0

>  <num_sample>  (1) 
50

>  <b_lp_Chiralities_Consistent>  (1) 
1

>  <r_epik_Charging_Adjusted_Penalty>  (1) 
1.0900107648315034

>  <r_epik_Ionization_Penalty>  (1) 
1.0648013143729294

>  <r_epik_Ionization_Penalty_Charging>  (1) 
0.018420486395911647

>  <r_epik_Ionization_Penalty_Neutral>  (1) 
1.0463808279770177

>  <r_epik_State_Penalty>  (1) 
1.0715902784355917

>  <r_glide_ring_energy>  (1) 
0

>  <r_i_docking_score>  (1) 
-3.2221996484532136

>  <r_i_glide_ecoul>  (1) 
-6.1458874985374186

>  <r_i_glide_eff_state_penalty>  (1) 
1.0715902784355917

>  <r_i_glide_einternal>  (1) 
21.692071404740055

>  <r_i_glide_emodel>  (1) 
-25.771794676894185

>  <r_i_glide_emodel_strain>  (1) 
1.0190772580948106

>  <r_i_glide_energy>  (1) 
-29.271106157775417

>  <r_i_glide_erotb>  (1) 
0.38705737007943358

>  <r_i_glide_esite>  (1) 
0

>  <r_i_glide_evdw>  (1) 
-23.125218659237998

>  <r_i_glide_gscore>  (1) 
-4.2937899268888051

>  <r_i_glide_gscore_strain>  (1) 
0

>  <r_i_glide_hbond>  (1) 
-0.31994928931401617

>  <r_i_glide_ligand_efficiency>  (1) 
-0.10394192414365205

>  <r_i_glide_ligand_efficiency_ln>  (1) 
-0.72670476928617123

>  <r_i_glide_ligand_efficiency_sa>  (1) 
-0.3265211494772024

>  <r_i_glide_lipo>  (1) 
-1.7300224508825306

>  <r_i_glide_metal>  (1) 
-0

>  <r_i_glide_rewards>  (1) 
-0.55273149902917829

>  <r_lp_Energy>  (1) 
43.646164999999996

>  <s_epik_cmdline>  (1) 
J2VwaWtfcHl0aG9uJywgJy1waHQnLCAnMS4wJywgJy1waCcsICc3LjQnLCAnLXRuJywgJzgnLCAnLW1hJywgJzUwMCcsICctaW1hZScsICc8aW5maWxlLm1hZT4nLCAnLW9tYWUnLCAnPG91dGZpbGUubWFlPic=

>  <s_epik_input>  (1) 
W0NIXTE9W0NIXVtDQEhdKEYpW0NIXT1bQ0hdQyg9QzFbQ0BIXTIzKVNbQ0BASF0zW0NIMl1bQ0gyXVtDSDJdW0NIMl1bQ0BIXShbTkhdW0NIMl0yKVtDSDJdW0NASF0oW09IXSlbQ0BIXShbTkgyXSlbQ0BASF0oW09IXSlbQ0BAXShbQ0gzXSkoW09IXSlbQ0hdKFtDSDNdKVtDSDNd

>  <s_glide_docking_method>  (1) 
confgen

>  <s_i_glide_gridfile>  (1) 
gpcr_drd2_6luq_protein_autoprepared_prepared

>  <s_lp_Force_Field>  (1) 
S-OPLS

>  <s_lp_Variant>  (1) 
DiffSBDD_20-3

>  <s_m_source_file>  (1) 
generated_generic_title2_ligand_DiffSBDD_2026-06-23_prepared.sdf

>  <GenAI_Model>  (1) 
DiffSBDD

>  <Protein>  (1) 
generic_title2

$$$$
DiffSBDD_37
     RDKit          3D

  0  0  0  0  0  0  0  0  0  0999 V3000
M  V30 BEGIN CTAB
M  V30 COUNTS 80 85 0 0 1
M  V30 BEGIN ATOM
M  V30 1 C 9.802885 5.647423 -11.717558 0 CFG=1
M  V30 2 O 10.975413 10.254700 -4.913389 0
M  V30 3 F 9.465875 4.144132 -19.050838 0
M  V30 4 C 10.758845 7.328539 -8.934191 0
M  V30 5 C 7.484593 7.694146 -12.866260 0
M  V30 6 O 11.669973 6.790226 -12.683497 0 CHG=-1
M  V30 7 C 10.616370 6.919726 -12.024273 0
M  V30 8 C 6.974021 5.411673 -17.998861 0
M  V30 9 C 8.461260 5.990226 -9.679271 0
M  V30 10 O 8.175404 6.574277 -13.429928 0
M  V30 11 C 8.986372 2.965980 -12.785038 0
M  V30 12 C 10.459782 7.720379 -6.430560 0
M  V30 13 F 6.484816 5.409915 -22.195269 0
M  V30 14 C 12.792755 9.555526 -6.338209 0
M  V30 15 C 9.794492 6.131123 -9.019349 0 CFG=2
M  V30 16 C 5.707828 5.897017 -15.926443 0
M  V30 17 O 8.514773 1.867948 -13.529410 0
M  V30 18 C 5.932379 4.318966 -13.831463 0
M  V30 19 C 7.242236 2.233950 -13.996715 0
M  V30 20 C 12.220640 8.983269 -7.671708 0
M  V30 21 C 11.955648 9.250687 -5.082325 0 CFG=2
M  V30 22 C 6.692294 5.411035 -20.868811 0
M  V30 23 C 6.686792 6.739178 -20.142416 0
M  V30 24 O 9.933213 5.168259 -8.034808 0
M  V30 25 C 7.032932 5.325889 -16.463349 0 CFG=1
M  V30 26 C 7.130463 4.089604 -18.759612 0 CFG=1
M  V30 27 O 10.175375 7.990227 -11.585021 0
M  V30 28 N 9.583333 5.318234 -10.256071 0 CFG=2 CHG=1
M  V30 29 C 8.490887 5.458451 -12.601346 0 CFG=1
M  V30 30 C 8.570832 4.226421 -13.562526 0 CFG=2
M  V30 31 C 5.387563 5.606674 -14.462811 0
M  V30 32 C 6.889012 4.236217 -20.254031 0
M  V30 33 C 11.445067 7.638125 -7.589446 0 CFG=2
M  V30 34 C 8.491626 3.427962 -18.486322 0 CFG=2
M  V30 35 C 6.773091 6.583442 -18.634289 0
M  V30 36 S 8.843413 3.224334 -16.718120 0
M  V30 37 C 11.273401 7.880797 -5.166217 0
M  V30 38 C 7.348532 3.905229 -15.916364 0 CFG=1
M  V30 39 C 7.289638 3.751294 -14.347756 0 CFG=2
M  V30 40 H 10.503733 4.864991 -11.996014 0
M  V30 41 H 11.397750 11.099667 -4.893608 0
M  V30 42 H 11.578887 7.190166 -9.633740 0
M  V30 43 H 10.185883 8.219648 -9.191179 0
M  V30 44 H 7.375439 8.390227 -13.693030 0
M  V30 45 H 6.522079 7.455082 -12.421374 0
M  V30 46 H 7.959525 8.266193 -12.087939 0
M  V30 47 H 7.716808 5.265677 -9.352307 0
M  V30 48 H 8.175416 6.759010 -10.385023 0
M  V30 49 H 10.060651 2.884825 -12.657595 0
M  V30 50 H 8.575382 2.960637 -11.782871 0
M  V30 51 H 9.755572 8.543838 -6.564354 0
M  V30 52 H 9.850108 6.830720 -6.310297 0
M  V30 53 H 12.925144 10.635044 -6.385026 0
M  V30 54 H 13.808122 9.190228 -6.204757 0
M  V30 55 H 4.868825 5.590230 -16.547420 0
M  V30 56 H 5.718910 6.980990 -16.043191 0
M  V30 57 H 5.149732 3.590268 -13.985022 0
M  V30 58 H 5.923718 4.411795 -12.747723 0
M  V30 59 H 6.953772 1.593573 -14.831464 0
M  V30 60 H 6.548755 2.018282 -13.181391 0
M  V30 61 H 13.031932 8.878873 -8.393186 0
M  V30 62 H 11.556106 9.724059 -8.103924 0
M  V30 63 H 12.598801 9.286969 -4.200271 0
M  V30 64 H 5.768831 7.272510 -20.391658 0
M  V30 65 H 7.522546 7.346776 -20.490917 0
M  V30 66 H 9.413774 5.436356 -7.289703 0
M  V30 67 H 7.839996 5.980588 -16.130377 0
M  V30 68 H 6.335452 3.424532 -18.425807 0
M  V30 69 H 7.640489 5.290692 -11.948397 0
M  V30 70 H 9.363941 4.435414 -14.280620 0
M  V30 71 H 4.312518 5.590166 -14.343987 0
M  V30 72 H 5.660257 6.465770 -13.895398 0
M  V30 73 H 6.879163 3.325023 -20.833329 0
M  V30 74 H 12.152144 6.834393 -7.378656 0
M  V30 75 H 8.528502 2.443233 -18.954219 0
M  V30 76 H 6.657612 7.484091 -18.055635 0
M  V30 77 H 10.575411 7.726811 -4.385028 0
M  V30 78 H 11.984982 7.062825 -5.054200 0
M  V30 79 H 6.575411 3.238651 -16.274960 0
M  V30 80 H 9.544282 4.330986 -10.054938 0
M  V30 END ATOM
M  V30 BEGIN BOND
M  V30 1 1 7 1
M  V30 2 1 7 6
M  V30 3 1 10 5
M  V30 4 1 15 4
M  V30 5 1 15 9
M  V30 6 1 17 11
M  V30 7 1 19 17
M  V30 8 1 20 14
M  V30 9 1 21 2
M  V30 10 1 21 14
M  V30 11 1 22 13
M  V30 12 1 23 22
M  V30 13 1 15 24 CFG=1
M  V30 14 1 25 8
M  V30 15 1 25 16
M  V30 16 1 26 8
M  V30 17 2 27 7
M  V30 18 1 28 1
M  V30 19 1 28 9
M  V30 20 1 28 15
M  V30 21 1 29 1
M  V30 22 1 29 10
M  V30 23 1 30 11
M  V30 24 1 30 29
M  V30 25 1 31 16
M  V30 26 1 31 18
M  V30 27 2 32 22
M  V30 28 1 32 26
M  V30 29 1 33 4
M  V30 30 1 33 12
M  V30 31 1 33 20
M  V30 32 1 34 3
M  V30 33 1 34 26
M  V30 34 2 35 8
M  V30 35 1 35 23
M  V30 36 1 36 34
M  V30 37 1 37 12
M  V30 38 1 37 21
M  V30 39 1 38 25
M  V30 40 1 38 36
M  V30 41 1 39 18 CFG=1
M  V30 42 1 39 19
M  V30 43 1 39 30
M  V30 44 1 39 38
M  V30 45 1 1 40 CFG=3
M  V30 46 1 41 2
M  V30 47 1 42 4
M  V30 48 1 43 4
M  V30 49 1 44 5
M  V30 50 1 45 5
M  V30 51 1 46 5
M  V30 52 1 47 9
M  V30 53 1 48 9
M  V30 54 1 49 11
M  V30 55 1 50 11
M  V30 56 1 51 12
M  V30 57 1 52 12
M  V30 58 1 53 14
M  V30 59 1 54 14
M  V30 60 1 55 16
M  V30 61 1 56 16
M  V30 62 1 57 18
M  V30 63 1 58 18
M  V30 64 1 59 19
M  V30 65 1 60 19
M  V30 66 1 61 20
M  V30 67 1 62 20
M  V30 68 1 21 63 CFG=1
M  V30 69 1 64 23
M  V30 70 1 65 23
M  V30 71 1 66 24
M  V30 72 1 25 67 CFG=1
M  V30 73 1 26 68 CFG=1
M  V30 74 1 29 69 CFG=1
M  V30 75 1 30 70 CFG=3
M  V30 76 1 71 31
M  V30 77 1 72 31
M  V30 78 1 73 32
M  V30 79 1 33 74 CFG=1
M  V30 80 1 34 75 CFG=3
M  V30 81 1 76 35
M  V30 82 1 77 37
M  V30 83 1 78 37
M  V30 84 1 38 79 CFG=3
M  V30 85 1 28 80 CFG=1
M  V30 END BOND
M  V30 END CTAB
M  END
>  <i_epik_Tot_Q>  (1) 
0

>  <i_epik_Tot_abs_Q>  (1) 
2

>  <i_i_glide_confnum>  (1) 
5

>  <i_i_glide_lignum>  (1) 
100

>  <i_i_glide_posenum>  (1) 
162

>  <i_i_glide_rotatable_bonds>  (1) 
9

>  <i_lp_mmshare_version>  (1) 
72125

>  <i_m_source_file_index>  (1) 
38

>  <i_f3d_flags>  (1) 
0

>  <num_sample>  (1) 
50

>  <b_lp_Chiralities_Consistent>  (1) 
1

>  <r_epik_Charging_Adjusted_Penalty>  (1) 
0.53807329711462948

>  <r_epik_Ionization_Penalty>  (1) 
0.26903764201212299

>  <r_epik_Ionization_Penalty_Charging>  (1) 
0.26903696022575102

>  <r_epik_Ionization_Penalty_Neutral>  (1) 
6.8178637198181737e-07

>  <r_epik_State_Penalty>  (1) 
0.26903633688887846

>  <r_glide_ring_energy>  (1) 
0.85216250574011421

>  <r_i_docking_score>  (1) 
-3.2196673814788754

>  <r_i_glide_ecoul>  (1) 
-4.0931169128184024

>  <r_i_glide_eff_state_penalty>  (1) 
0.26903633688887846

>  <r_i_glide_einternal>  (1) 
83.624055507057449

>  <r_i_glide_emodel>  (1) 
23.445063382997109

>  <r_i_glide_emodel_strain>  (1) 
10.361555886292109

>  <r_i_glide_energy>  (1) 
-22.78505001750575

>  <r_i_glide_erotb>  (1) 
0.23153238063810569

>  <r_i_glide_esite>  (1) 
-0.062136525284003243

>  <r_i_glide_evdw>  (1) 
-18.691933104687347

>  <r_i_glide_gscore>  (1) 
-3.4887037183677538

>  <r_i_glide_gscore_strain>  (1) 
1.5903889715730273

>  <r_i_glide_hbond>  (1) 
0

>  <r_i_glide_ligand_efficiency>  (1) 
-0.082555573884073724

>  <r_i_glide_ligand_efficiency_ln>  (1) 
-0.6903880822827595

>  <r_i_glide_ligand_efficiency_sa>  (1) 
-0.27996340684027238

>  <r_i_glide_lipo>  (1) 
-3.0743771294765847

>  <r_i_glide_metal>  (1) 
-0

>  <r_i_glide_rewards>  (1) 
-0.6255472236611711

>  <r_lp_Energy>  (1) 
30.444087999999997

>  <s_epik_cmdline>  (1) 
J2VwaWtfcHl0aG9uJywgJy1waHQnLCAnMS4wJywgJy1waCcsICc3LjQnLCAnLXRuJywgJzgnLCAnLW1hJywgJzUwMCcsICctaW1hZScsICc8aW5maWxlLm1hZT4nLCAnLW9tYWUnLCAnPG91dGZpbGUubWFlPic=

>  <s_epik_input>  (1) 
W09IXVtDQEBIXTFbQ0gyXVtDSDJdW0NAQEhdKFtDSDJdW0NIMl0xKVtDSDJdW0NAQF0yKFtPSF0pW0NIMl1OMltDQEhdKEMoPU8pW09IXSlbQ0BASF0oT1tDSDNdKVtDQEhdM1tDSDJdT1tDSDJdW0NAXTM0W0NASF01W0NASF0oW0NIMl1bQ0gyXVtDSDJdNClDPTZbQ0BIXShbQ0BASF0oRilTNSlbQ0hdPUMoRilbQ0gyXVtDSF02

>  <s_glide_docking_method>  (1) 
confgen

>  <s_i_glide_gridfile>  (1) 
gpcr_drd2_6luq_protein_autoprepared_prepared

>  <s_lp_Force_Field>  (1) 
S-OPLS

>  <s_lp_Variant>  (1) 
DiffSBDD_37-1

>  <s_m_source_file>  (1) 
generated_generic_title2_ligand_DiffSBDD_2026-06-23_prepared.sdf

>  <GenAI_Model>  (1) 
DiffSBDD

>  <Protein>  (1) 
generic_title2

$$$$
DiffSBDD_37
     RDKit          3D

  0  0  0  0  0  0  0  0  0  0999 V3000
M  V30 BEGIN CTAB
M  V30 COUNTS 79 84 0 0 1
M  V30 BEGIN ATOM
M  V30 1 C 7.663119 4.978151 -12.725643 0 CFG=1
M  V30 2 O 12.960511 8.790233 -7.585042 0
M  V30 3 F 7.377629 0.860707 -19.857959 0
M  V30 4 C 9.768346 5.927330 -9.537729 0
M  V30 5 C 7.737073 1.522541 -13.755548 0
M  V30 6 O 5.590953 6.015704 -12.151934 0 CHG=-1
M  V30 7 C 6.318677 5.018210 -11.957628 0
M  V30 8 C 9.818835 2.084592 -18.547907 0
M  V30 9 C 9.983541 5.510435 -12.134202 0
M  V30 10 O 7.042241 2.727302 -13.472142 0
M  V30 11 C 5.901661 5.369689 -15.129537 0
M  V30 12 C 9.453551 8.406867 -8.757415 0
M  V30 13 F 11.127270 0.006015 -21.968055 0
M  V30 14 C 11.357465 7.080982 -6.982067 0
M  V30 15 C 9.165337 6.016975 -10.957056 0 CFG=2
M  V30 16 C 10.670849 3.895694 -17.062642 0
M  V30 17 O 5.557523 5.686020 -16.456720 0
M  V30 18 C 9.092194 5.669668 -16.199166 0
M  V30 19 C 6.771789 5.886746 -17.129268 0
M  V30 20 C 9.883057 6.640853 -7.057592 0
M  V30 21 C 11.582047 8.527782 -7.471557 0 CFG=2
M  V30 22 C 10.635999 0.616045 -20.877120 0
M  V30 23 C 11.078749 0.124295 -19.516629 0
M  V30 24 O 8.575400 7.218563 -11.397732 0
M  V30 25 C 9.455796 3.006099 -17.384065 0 CFG=1
M  V30 26 C 9.157168 2.403593 -19.895011 0 CFG=1
M  V30 27 O 6.037209 4.072439 -11.186491 0
M  V30 28 N 8.770015 4.825110 -11.746269 0
M  V30 29 C 7.692313 3.924695 -13.903378 0 CFG=1
M  V30 30 C 7.027645 4.333677 -15.279832 0 CFG=2
M  V30 31 C 10.381368 4.887814 -15.939211 0
M  V30 32 C 9.779486 1.631436 -21.044286 0
M  V30 33 C 9.245736 6.893510 -8.441783 0 CFG=2
M  V30 34 C 7.633616 2.170235 -19.843430 0 CFG=2
M  V30 35 C 10.676624 1.060221 -18.398090 0
M  V30 36 S 6.839914 2.905387 -18.384713 0
M  V30 37 C 10.940479 8.772568 -8.841650 0
M  V30 38 C 8.209410 3.880421 -17.671437 0 CFG=1
M  V30 39 C 7.813708 4.879664 -16.531072 0 CFG=2
M  V30 40 H 7.760210 5.944689 -13.213940 0
M  V30 41 H 13.295791 8.317385 -8.331581 0
M  V30 42 H 9.688500 4.894389 -9.196087 0
M  V30 43 H 10.820016 6.152455 -9.584716 0
M  V30 44 H 7.152471 0.670724 -13.407432 0
M  V30 45 H 7.898276 1.403429 -14.826928 0
M  V30 46 H 8.701436 1.495620 -13.245955 0
M  V30 47 H 9.905193 5.972533 -13.116714 0
M  V30 48 H 10.816045 4.834846 -11.985127 0
M  V30 49 H 5.051659 5.012329 -14.551817 0
M  V30 50 H 6.248996 6.292560 -14.666163 0
M  V30 51 H 8.975403 8.749522 -9.666481 0
M  V30 52 H 8.975827 8.996937 -7.974162 0
M  V30 53 H 11.935332 6.392529 -7.584976 0
M  V30 54 H 11.724238 6.966996 -5.961530 0
M  V30 55 H 10.961653 4.447093 -17.957789 0
M  V30 56 H 11.532312 3.286338 -16.784850 0
M  V30 57 H 9.351050 6.275981 -17.070076 0
M  V30 58 H 8.855690 6.340599 -15.380730 0
M  V30 59 H 6.622620 5.792153 -18.204939 0
M  V30 60 H 6.975605 6.937524 -16.942259 0
M  V30 61 H 9.314116 7.186597 -6.303743 0
M  V30 62 H 9.793213 5.590485 -6.787735 0
M  V30 63 H 11.157128 9.221491 -6.744169 0
M  V30 64 H 12.159528 -0.016188 -19.508438 0
M  V30 65 H 10.576487 -0.817202 -19.324947 0
M  V30 66 H 7.941614 7.482711 -10.720880 0
M  V30 67 H 9.244772 2.374990 -16.520869 0
M  V30 68 H 9.363810 3.448171 -20.124177 0
M  V30 69 H 8.725331 3.663116 -14.072452 0
M  V30 70 H 6.575333 3.413470 -15.638139 0
M  V30 71 H 11.213175 5.587841 -15.858838 0
M  V30 72 H 10.361022 4.390525 -14.983441 0
M  V30 73 H 9.499619 1.937247 -22.042210 0
M  V30 74 H 8.193864 6.648210 -8.314208 0
M  V30 75 H 7.158662 2.581577 -20.735207 0
M  V30 76 H 11.119070 0.872285 -17.430563 0
M  V30 77 H 11.437107 8.184674 -9.610811 0
M  V30 78 H 11.072090 9.798922 -9.184802 0
M  V30 79 H 8.496512 4.540824 -18.489269 0
M  V30 END ATOM
M  V30 BEGIN BOND
M  V30 1 1 7 1
M  V30 2 1 7 6
M  V30 3 1 10 5
M  V30 4 1 15 4
M  V30 5 1 15 9
M  V30 6 1 17 11
M  V30 7 1 19 17
M  V30 8 1 20 14
M  V30 9 1 21 2
M  V30 10 1 21 14
M  V30 11 1 22 13
M  V30 12 1 23 22
M  V30 13 1 15 24 CFG=3
M  V30 14 1 25 8
M  V30 15 1 25 16
M  V30 16 1 26 8
M  V30 17 2 27 7
M  V30 18 1 28 1
M  V30 19 1 28 9
M  V30 20 1 28 15
M  V30 21 1 29 1
M  V30 22 1 29 10
M  V30 23 1 30 11
M  V30 24 1 30 29
M  V30 25 1 31 16
M  V30 26 1 31 18
M  V30 27 2 32 22
M  V30 28 1 32 26
M  V30 29 1 33 4
M  V30 30 1 33 12
M  V30 31 1 33 20
M  V30 32 1 34 3
M  V30 33 1 34 26
M  V30 34 2 35 8
M  V30 35 1 35 23
M  V30 36 1 36 34
M  V30 37 1 37 12
M  V30 38 1 37 21
M  V30 39 1 38 25
M  V30 40 1 38 36
M  V30 41 1 39 18 CFG=1
M  V30 42 1 39 19
M  V30 43 1 39 30
M  V30 44 1 39 38
M  V30 45 1 1 40 CFG=3
M  V30 46 1 41 2
M  V30 47 1 42 4
M  V30 48 1 43 4
M  V30 49 1 44 5
M  V30 50 1 45 5
M  V30 51 1 46 5
M  V30 52 1 47 9
M  V30 53 1 48 9
M  V30 54 1 49 11
M  V30 55 1 50 11
M  V30 56 1 51 12
M  V30 57 1 52 12
M  V30 58 1 53 14
M  V30 59 1 54 14
M  V30 60 1 55 16
M  V30 61 1 56 16
M  V30 62 1 57 18
M  V30 63 1 58 18
M  V30 64 1 59 19
M  V30 65 1 60 19
M  V30 66 1 61 20
M  V30 67 1 62 20
M  V30 68 1 21 63 CFG=1
M  V30 69 1 64 23
M  V30 70 1 65 23
M  V30 71 1 66 24
M  V30 72 1 25 67 CFG=1
M  V30 73 1 26 68 CFG=3
M  V30 74 1 29 69 CFG=3
M  V30 75 1 30 70 CFG=3
M  V30 76 1 71 31
M  V30 77 1 72 31
M  V30 78 1 73 32
M  V30 79 1 33 74 CFG=1
M  V30 80 1 34 75 CFG=3
M  V30 81 1 76 35
M  V30 82 1 77 37
M  V30 83 1 78 37
M  V30 84 1 38 79 CFG=3
M  V30 END BOND
M  V30 END CTAB
M  END
>  <i_epik_Tot_Q>  (1) 
-1

>  <i_epik_Tot_abs_Q>  (1) 
1

>  <i_i_glide_confnum>  (1) 
425

>  <i_i_glide_lignum>  (1) 
102

>  <i_i_glide_posenum>  (1) 
143

>  <i_i_glide_rotatable_bonds>  (1) 
9

>  <i_lp_mmshare_version>  (1) 
72125

>  <i_m_source_file_index>  (1) 
38

>  <i_f3d_flags>  (1) 
0

>  <num_sample>  (1) 
50

>  <b_lp_Chiralities_Consistent>  (1) 
1

>  <r_epik_Charging_Adjusted_Penalty>  (1) 
0.59816734689740336

>  <r_epik_Ionization_Penalty>  (1) 
0.59818128409548943

>  <r_epik_Ionization_Penalty_Charging>  (1) 
0.00097473608303856986

>  <r_epik_Ionization_Penalty_Neutral>  (1) 
0.59720654801245088

>  <r_epik_State_Penalty>  (1) 
0.59719261081436481

>  <r_glide_ring_energy>  (1) 
2.0600084308734981

>  <r_i_docking_score>  (1) 
-3.2179173241557573

>  <r_i_glide_ecoul>  (1) 
-4.0344336240195044

>  <r_i_glide_eff_state_penalty>  (1) 
0.59719261081436481

>  <r_i_glide_einternal>  (1) 
18.947049805547433

>  <r_i_glide_emodel>  (1) 
-12.424512818820963

>  <r_i_glide_emodel_strain>  (1) 
1.640529180386622

>  <r_i_glide_energy>  (1) 
-21.712619123365918

>  <r_i_glide_erotb>  (1) 
0.23359109936798597

>  <r_i_glide_esite>  (1) 
-0.037059893020755887

>  <r_i_glide_evdw>  (1) 
-17.678185499346412

>  <r_i_glide_gscore>  (1) 
-3.8151099349701219

>  <r_i_glide_gscore_strain>  (1) 
0

>  <r_i_glide_hbond>  (1) 
-0.16

>  <r_i_glide_ligand_efficiency>  (1) 
-0.082510700619378388

>  <r_i_glide_ligand_efficiency_ln>  (1) 
-0.69001282031435163

>  <r_i_glide_ligand_efficiency_sa>  (1) 
-0.27981123211155212

>  <r_i_glide_lipo>  (1) 
-1.9786819192950966

>  <r_i_glide_metal>  (1) 
-0

>  <r_i_glide_rewards>  (1) 
-0.38388490345200904

>  <r_lp_Energy>  (1) 
44.555437999999995

>  <s_epik_cmdline>  (1) 
J2VwaWtfcHl0aG9uJywgJy1waHQnLCAnMS4wJywgJy1waCcsICc3LjQnLCAnLXRuJywgJzgnLCAnLW1hJywgJzUwMCcsICctaW1hZScsICc8aW5maWxlLm1hZT4nLCAnLW9tYWUnLCAnPG91dGZpbGUubWFlPic=

>  <s_epik_input>  (1) 
W09IXVtDQEBIXTFbQ0gyXVtDSDJdW0NAQEhdKFtDSDJdW0NIMl0xKVtDSDJdW0NAQF0yKFtPSF0pW0NIMl1OMltDQEhdKEMoPU8pW09IXSlbQ0BASF0oT1tDSDNdKVtDQEhdM1tDSDJdT1tDSDJdW0NAXTM0W0NASF01W0NASF0oW0NIMl1bQ0gyXVtDSDJdNClDPTZbQ0BIXShbQ0BASF0oRilTNSlbQ0hdPUMoRilbQ0gyXVtDSF02

>  <s_glide_docking_method>  (1) 
confgen

>  <s_i_glide_gridfile>  (1) 
gpcr_drd2_6luq_protein_autoprepared_prepared

>  <s_lp_Force_Field>  (1) 
S-OPLS

>  <s_lp_Variant>  (1) 
DiffSBDD_37-3

>  <s_m_source_file>  (1) 
generated_generic_title2_ligand_DiffSBDD_2026-06-23_prepared.sdf

>  <GenAI_Model>  (1) 
DiffSBDD

>  <Protein>  (1) 
generic_title2

$$$$
DiffSBDD_5
     RDKit          3D

  0  0  0  0  0  0  0  0  0  0999 V3000
M  V30 BEGIN CTAB
M  V30 COUNTS 65 68 0 0 1
M  V30 BEGIN ATOM
M  V30 1 C 8.098808 3.763728 -18.271586 0 CFG=1
M  V30 2 N 6.584310 6.566798 -15.321569 0
M  V30 3 C 3.898678 6.390104 -16.983681 0
M  V30 4 C 7.176992 2.549075 -18.342036 0
M  V30 5 C 6.686433 4.626506 -13.678645 0 CFG=2
M  V30 6 N 7.508175 4.793324 -17.415008 0
M  V30 7 C 6.394206 6.951377 -16.766783 0 CFG=1
M  V30 8 O 10.389961 4.350694 -18.032193 0 CHG=-1
M  V30 9 C 6.835214 1.695072 -17.375230 0
M  V30 10 C 7.047298 5.990276 -17.812011 0
M  V30 11 C 11.050119 7.056706 -11.625418 0
M  V30 12 O 5.994470 7.590197 -14.511573 0
M  V30 13 C 5.444818 0.700861 -19.103557 0 CFG=1
M  V30 14 C 9.532579 3.472008 -17.797414 0
M  V30 15 C 9.139868 5.600511 -9.544216 0
M  V30 16 C 7.844653 4.885855 -11.553518 0
M  V30 17 C 5.887510 0.550783 -17.625435 0
M  V30 18 O 12.569983 8.245754 -10.297948 0
M  V30 19 C 9.658669 8.790455 -9.319005 0
M  V30 20 O 11.460484 7.996911 -8.090627 0
M  V30 21 O 6.951798 4.390161 -10.862477 0
M  V30 22 C 9.857813 6.416493 -8.757373 0
M  V30 23 C 8.990597 5.659771 -11.015753 0
M  V30 24 O 9.754313 2.404477 -17.185080 0
M  V30 25 S 6.354372 2.111177 -19.825629 0
M  V30 26 C 10.623468 7.622430 -9.179713 0 CFG=1
M  V30 27 C 4.950804 7.457795 -17.157789 0
M  V30 28 C 5.309730 5.088502 -13.473408 0
M  V30 29 Cl 5.767605 -0.802175 -20.005332 0
M  V30 30 C 7.421399 3.462772 -13.550467 0
M  V30 31 C 4.757183 7.990250 -18.602194 0
M  V30 32 C 9.829380 6.300760 -11.912663 0
M  V30 33 N 7.876113 4.742514 -12.895933 0
M  V30 34 O 7.175677 6.362870 -18.976936 0
M  V30 35 C 6.074047 5.284273 -14.847913 0 CFG=1
M  V30 36 C 11.411140 7.590236 -10.452453 0
M  V30 37 H 8.196926 4.131738 -19.294408 0
M  V30 38 H 4.175548 5.590221 -17.644108 0
M  V30 39 H 3.857603 5.990230 -15.985016 0
M  V30 40 H 2.911045 6.752689 -17.248278 0
M  V30 41 H 7.480218 4.581134 -16.430906 0
M  V30 42 H 6.975409 7.858693 -16.855004 0
M  V30 43 H 7.242069 1.799960 -16.380422 0
M  V30 44 H 11.736707 7.190111 -12.449143 0
M  V30 45 H 6.734073 7.879403 -13.997664 0
M  V30 46 H 4.375089 0.898817 -19.181701 0
M  V30 47 H 8.601368 4.811525 -9.037923 0
M  V30 48 H 6.406784 -0.390713 -17.445660 0
M  V30 49 H 5.044756 0.603113 -16.937319 0
M  V30 50 H 12.586904 8.483872 -9.377215 0
M  V30 51 H 8.974637 8.622464 -10.146123 0
M  V30 52 H 9.075666 8.979102 -8.415699 0
M  V30 53 H 10.225829 9.674579 -9.584353 0
M  V30 54 H 10.898369 8.271518 -7.381129 0
M  V30 55 H 9.852188 6.223239 -7.693927 0
M  V30 56 H 4.688318 8.288341 -16.502792 0
M  V30 57 H 4.543224 4.320082 -13.426843 0
M  V30 58 H 5.177366 5.926655 -12.793254 0
M  V30 59 H 8.008648 3.125506 -14.403212 0
M  V30 60 H 7.030210 2.673236 -12.910587 0
M  V30 61 H 4.936121 7.236770 -19.366454 0
M  V30 62 H 3.730611 8.317622 -18.769013 0
M  V30 63 H 5.375394 8.851843 -18.818491 0
M  V30 64 H 9.602731 6.203991 -12.960118 0
M  V30 65 H 5.775631 4.579425 -15.584928 0
M  V30 END ATOM
M  V30 BEGIN BOND
M  V30 1 1 4 1
M  V30 2 1 6 1
M  V30 3 1 7 2
M  V30 4 2 9 4
M  V30 5 1 10 6
M  V30 6 1 10 7
M  V30 7 1 12 2
M  V30 8 1 14 1
M  V30 9 1 14 8
M  V30 10 1 17 9
M  V30 11 1 17 13
M  V30 12 2 21 16
M  V30 13 2 22 15
M  V30 14 1 23 15
M  V30 15 1 23 16
M  V30 16 2 24 14
M  V30 17 1 25 4
M  V30 18 1 25 13
M  V30 19 1 26 19
M  V30 20 1 26 20 CFG=1
M  V30 21 1 26 22
M  V30 22 1 27 3
M  V30 23 1 27 7
M  V30 24 1 28 5
M  V30 25 1 29 13
M  V30 26 1 30 5
M  V30 27 1 31 27
M  V30 28 1 32 11
M  V30 29 2 32 23
M  V30 30 1 5 33 CFG=1
M  V30 31 1 33 16
M  V30 32 1 33 30
M  V30 33 2 34 10
M  V30 34 1 35 2
M  V30 35 1 35 5
M  V30 36 1 35 28
M  V30 37 2 36 11
M  V30 38 1 36 18
M  V30 39 1 36 26
M  V30 40 1 1 37 CFG=3
M  V30 41 1 38 3
M  V30 42 1 39 3
M  V30 43 1 40 3
M  V30 44 1 41 6
M  V30 45 1 7 42 CFG=1
M  V30 46 1 43 9
M  V30 47 1 44 11
M  V30 48 1 45 12
M  V30 49 1 13 46 CFG=1
M  V30 50 1 47 15
M  V30 51 1 48 17
M  V30 52 1 49 17
M  V30 53 1 50 18
M  V30 54 1 51 19
M  V30 55 1 52 19
M  V30 56 1 53 19
M  V30 57 1 54 20
M  V30 58 1 55 22
M  V30 59 1 56 27
M  V30 60 1 57 28
M  V30 61 1 58 28
M  V30 62 1 59 30
M  V30 63 1 60 30
M  V30 64 1 61 31
M  V30 65 1 62 31
M  V30 66 1 63 31
M  V30 67 1 64 32
M  V30 68 1 35 65 CFG=3
M  V30 END BOND
M  V30 END CTAB
M  END
>  <i_epik_Tot_Q>  (1) 
-1

>  <i_epik_Tot_abs_Q>  (1) 
1

>  <i_i_glide_confnum>  (1) 
461

>  <i_i_glide_lignum>  (1) 
28

>  <i_i_glide_posenum>  (1) 
368

>  <i_i_glide_rotatable_bonds>  (1) 
13

>  <i_lp_mmshare_version>  (1) 
72125

>  <i_m_source_file_index>  (1) 
6

>  <i_f3d_flags>  (1) 
0

>  <num_sample>  (1) 
50

>  <b_lp_Chiralities_Consistent>  (1) 
1

>  <r_epik_Charging_Adjusted_Penalty>  (1) 
0.077690704590845053

>  <r_epik_Ionization_Penalty>  (1) 
0.082549720368024937

>  <r_epik_Ionization_Penalty_Charging>  (1) 
8.0199661793119585e-06

>  <r_epik_Ionization_Penalty_Neutral>  (1) 
0.082541700401845622

>  <r_epik_State_Penalty>  (1) 
0.077682684624665738

>  <r_glide_ring_energy>  (1) 
1.4769951276530608

>  <r_i_docking_score>  (1) 
-3.1853530966049739

>  <r_i_glide_ecoul>  (1) 
0.76489097548568163

>  <r_i_glide_eff_state_penalty>  (1) 
0.077682684624665738

>  <r_i_glide_einternal>  (1) 
22.07885347183025

>  <r_i_glide_emodel>  (1) 
-20.411717135367258

>  <r_i_glide_emodel_strain>  (1) 
2.5755464895560749

>  <r_i_glide_energy>  (1) 
-28.239170311842251

>  <r_i_glide_erotb>  (1) 
0.49788325422123908

>  <r_i_glide_esite>  (1) 
0

>  <r_i_glide_evdw>  (1) 
-29.004061287327932

>  <r_i_glide_gscore>  (1) 
-3.2630357812296396

>  <r_i_glide_gscore_strain>  (1) 
0

>  <r_i_glide_hbond>  (1) 
0

>  <r_i_glide_ligand_efficiency>  (1) 
-0.088482030461249278

>  <r_i_glide_ligand_efficiency_ln>  (1) 
-0.69495798738379655

>  <r_i_glide_ligand_efficiency_sa>  (1) 
-0.29216122741752343

>  <r_i_glide_lipo>  (1) 
-1.9310144931151916

>  <r_i_glide_metal>  (1) 
-0

>  <r_i_glide_rewards>  (1) 
-0.49443512429214242

>  <r_lp_Energy>  (1) 
46.399811

>  <s_epik_Chemistry_Notes>  (1) 
This compound has a N-S or N-O group and may undergo hydrolysis at high or low pH.

>  <s_epik_cmdline>  (1) 
J2VwaWtfcHl0aG9uJywgJy1waHQnLCAnMS4wJywgJy1waCcsICc3LjQnLCAnLXRuJywgJzgnLCAnLW1hJywgJzUwMCcsICctaW1hZScsICc8aW5maWxlLm1hZT4nLCAnLW9tYWUnLCAnPG91dGZpbGUubWFlPic=

>  <s_epik_input>  (1) 
UzFbQ0BASF0oQ2wpW0NIMl1bQ0hdPUMxW0NASF0oQyg9TylbT0hdKVtOSF1DKD1PKVtDQEBIXShbQ0hdKFtDSDNdKVtDSDNdKU4oW09IXSlbQ0hdMltDSDJdQzIzW0NIMl1OM0MoPU8pQyhbQ0hdPVtDSF1bQ0BAXTQoW0NIM10pW09IXSk9W0NIXVtDSF09QzRbT0hd

>  <s_glide_docking_method>  (1) 
confgen

>  <s_i_glide_gridfile>  (1) 
gpcr_drd2_6luq_protein_autoprepared_prepared

>  <s_lp_Force_Field>  (1) 
S-OPLS

>  <s_lp_Variant>  (1) 
DiffSBDD_5-1

>  <s_m_source_file>  (1) 
generated_generic_title2_ligand_DiffSBDD_2026-06-23_prepared.sdf

>  <GenAI_Model>  (1) 
DiffSBDD

>  <Protein>  (1) 
generic_title2

$$$$
DiffSBDD_18
     RDKit          3D

  0  0  0  0  0  0  0  0  0  0999 V3000
M  V30 BEGIN CTAB
M  V30 COUNTS 61 65 0 0 1
M  V30 BEGIN ATOM
M  V30 1 C 6.132895 -1.767222 -19.321679 0
M  V30 2 C 10.157108 1.522640 -21.860622 0
M  V30 3 C 8.033233 0.570979 -16.718929 0 CFG=1
M  V30 4 C 6.932903 -0.393681 -17.257378 0 CFG=2
M  V30 5 C 12.674637 0.675371 -18.132780 0 CFG=2
M  V30 6 C 13.165831 1.956240 -17.418646 0
M  V30 7 C 9.516273 1.063792 -20.535274 0 CFG=1
M  V30 8 C 7.143802 -0.743382 -18.762062 0 CFG=1
M  V30 9 C 7.014486 0.543676 -14.346587 0
M  V30 10 O 12.599101 1.757371 -20.292930 0
M  V30 11 O 8.306356 1.793937 -20.567724 0
M  V30 12 C 5.040607 -0.165756 -15.508664 0
M  V30 13 O 14.794982 2.336456 -21.144608 0
M  V30 14 S 9.209402 -0.737657 -20.684224 0
M  V30 15 C 13.893584 -0.191592 -18.501290 0
M  V30 16 C 8.575691 -1.253331 -19.061306 0
M  V30 17 C 5.511701 0.130805 -16.944865 0
M  V30 18 O 8.397303 1.520550 -17.724812 0
M  V30 19 C 14.189061 -0.032630 -21.125124 0
M  V30 20 O 5.609479 0.631956 -14.481103 0
M  V30 21 C 7.670554 1.372016 -15.454674 0
M  V30 22 C 9.803039 1.680622 -17.887811 0 CFG=2
M  V30 23 C 13.936640 1.356417 -20.610161 0 CFG=2
M  V30 24 C 10.179379 2.871802 -18.730700 0
M  V30 25 C 10.386269 1.466239 -19.292628 0 CFG=2
M  V30 26 C 11.835242 0.916189 -19.425106 0 CFG=2
M  V30 27 C 14.628324 0.350364 -19.711688 0 CFG=1
M  V30 28 H 6.051360 -2.642695 -18.675933 0
M  V30 29 H 5.137795 -1.343561 -19.451369 0
M  V30 30 H 6.438437 -2.114985 -20.308983 0
M  V30 31 H 10.419353 2.581062 -21.833370 0
M  V30 32 H 11.060912 0.960745 -22.093994 0
M  V30 33 H 9.479457 1.375124 -22.702828 0
M  V30 34 H 8.886546 -0.053864 -16.448612 0
M  V30 35 H 7.041160 -1.335220 -16.717437 0
M  V30 36 H 12.084281 0.093778 -17.423884 0
M  V30 37 H 13.693813 2.628324 -18.094923 0
M  V30 38 H 12.361873 2.520669 -16.954196 0
M  V30 39 H 13.854954 1.706323 -16.611797 0
M  V30 40 H 6.966290 0.176453 -19.309214 0
M  V30 41 H 7.364454 -0.488708 -14.329925 0
M  V30 42 H 7.269233 0.974225 -13.378195 0
M  V30 43 H 7.604083 1.190208 -20.754610 0
M  V30 44 H 5.217263 -1.210243 -15.276660 0
M  V30 45 H 3.960827 -0.020263 -15.455190 0
M  V30 46 H 14.491540 2.549628 -22.013770 0
M  V30 47 H 14.586494 -0.269682 -17.662885 0
M  V30 48 H 13.582266 -1.209779 -18.722192 0
M  V30 49 H 9.321558 -0.962569 -18.329153 0
M  V30 50 H 8.575514 -2.343215 -19.030854 0
M  V30 51 H 4.781281 -0.353398 -17.586753 0
M  V30 52 H 5.430951 1.192172 -17.174728 0
M  V30 53 H 13.347593 -0.711998 -21.235052 0
M  V30 54 H 14.972956 -0.162036 -21.868717 0
M  V30 55 H 8.575408 1.817618 -15.055295 0
M  V30 56 H 7.028284 2.217826 -15.706479 0
M  V30 57 H 10.373392 1.550608 -16.974294 0
M  V30 58 H 11.069556 3.439046 -18.475131 0
M  V30 59 H 9.360931 3.488156 -19.095359 0
M  V30 60 H 11.735930 -0.056748 -19.898795 0
M  V30 61 H 15.701324 0.466370 -19.568523 0
M  V30 END ATOM
M  V30 BEGIN BOND
M  V30 1 1 4 3
M  V30 2 1 6 5
M  V30 3 1 7 2
M  V30 4 1 8 1
M  V30 5 1 8 4
M  V30 6 1 7 11 CFG=1
M  V30 7 1 14 7
M  V30 8 1 15 5
M  V30 9 1 16 8
M  V30 10 1 16 14
M  V30 11 1 17 4
M  V30 12 1 17 12
M  V30 13 1 18 3
M  V30 14 1 20 9
M  V30 15 1 20 12
M  V30 16 1 21 3
M  V30 17 1 21 9
M  V30 18 1 22 18
M  V30 19 1 23 10
M  V30 20 1 23 13 CFG=3
M  V30 21 1 23 19
M  V30 22 1 24 22
M  V30 23 1 25 7
M  V30 24 1 25 22
M  V30 25 1 25 24 CFG=3
M  V30 26 1 26 5
M  V30 27 1 26 10
M  V30 28 1 26 25
M  V30 29 1 27 15
M  V30 30 1 27 19
M  V30 31 1 27 23
M  V30 32 1 28 1
M  V30 33 1 29 1
M  V30 34 1 30 1
M  V30 35 1 31 2
M  V30 36 1 32 2
M  V30 37 1 33 2
M  V30 38 1 3 34 CFG=1
M  V30 39 1 4 35 CFG=1
M  V30 40 1 5 36 CFG=1
M  V30 41 1 37 6
M  V30 42 1 38 6
M  V30 43 1 39 6
M  V30 44 1 8 40 CFG=3
M  V30 45 1 41 9
M  V30 46 1 42 9
M  V30 47 1 43 11
M  V30 48 1 44 12
M  V30 49 1 45 12
M  V30 50 1 46 13
M  V30 51 1 47 15
M  V30 52 1 48 15
M  V30 53 1 49 16
M  V30 54 1 50 16
M  V30 55 1 51 17
M  V30 56 1 52 17
M  V30 57 1 53 19
M  V30 58 1 54 19
M  V30 59 1 55 21
M  V30 60 1 56 21
M  V30 61 1 22 57 CFG=1
M  V30 62 1 58 24
M  V30 63 1 59 24
M  V30 64 1 26 60 CFG=3
M  V30 65 1 27 61 CFG=1
M  V30 END BOND
M  V30 END CTAB
M  END
>  <i_epik_Tot_Q>  (1) 
0

>  <i_epik_Tot_abs_Q>  (1) 
0

>  <i_i_glide_confnum>  (1) 
2

>  <i_i_glide_lignum>  (1) 
62

>  <i_i_glide_posenum>  (1) 
323

>  <i_i_glide_rotatable_bonds>  (1) 
3

>  <i_lp_mmshare_version>  (1) 
72125

>  <i_m_source_file_index>  (1) 
19

>  <i_f3d_flags>  (1) 
0

>  <num_sample>  (1) 
50

>  <b_lp_Chiralities_Consistent>  (1) 
1

>  <r_epik_Charging_Adjusted_Penalty>  (1) 
0

>  <r_epik_Ionization_Penalty>  (1) 
6.7783705848961877e-07

>  <r_epik_Ionization_Penalty_Charging>  (1) 
0

>  <r_epik_Ionization_Penalty_Neutral>  (1) 
6.7783705848961877e-07

>  <r_epik_State_Penalty>  (1) 
-0

>  <r_glide_ring_energy>  (1) 
0

>  <r_i_docking_score>  (1) 
-3.1838406357785649

>  <r_i_glide_ecoul>  (1) 
-0.62728650844358791

>  <r_i_glide_eff_state_penalty>  (1) 
-0

>  <r_i_glide_einternal>  (1) 
3.0588125475887962

>  <r_i_glide_emodel>  (1) 
-26.715214559452843

>  <r_i_glide_emodel_strain>  (1) 
0.01721947978349192

>  <r_i_glide_energy>  (1) 
-25.454273040661178

>  <r_i_glide_erotb>  (1) 
0.12329427839652905

>  <r_i_glide_esite>  (1) 
0

>  <r_i_glide_evdw>  (1) 
-24.826986532217589

>  <r_i_glide_gscore>  (1) 
-3.1838406357785649

>  <r_i_glide_gscore_strain>  (1) 
0

>  <r_i_glide_hbond>  (1) 
0

>  <r_i_glide_ligand_efficiency>  (1) 
-0.11792002354735426

>  <r_i_glide_ligand_efficiency_ln>  (1) 
-0.741145610294075

>  <r_i_glide_ligand_efficiency_sa>  (1) 
-0.35376007064206283

>  <r_i_glide_lipo>  (1) 
-1.2689601412828291

>  <r_i_glide_metal>  (1) 
-0

>  <r_i_glide_rewards>  (1) 
-0.70273247001484695

>  <r_lp_Energy>  (1) 
41.521923000000001

>  <r_lp_tautomer_probability>  (1) 
1

>  <s_epik_cmdline>  (1) 
J2VwaWtfcHl0aG9uJywgJy1waHQnLCAnMS4wJywgJy1waCcsICc3LjQnLCAnLXRuJywgJzgnLCAnLW1hJywgJzUwMCcsICctaW1hZScsICc8aW5maWxlLm1hZT4nLCAnLW9tYWUnLCAnPG91dGZpbGUubWFlPic=

>  <s_epik_input>  (1) 
W0NIM11bQ0BAXTEoW09IXSlTW0NIMl1bQ0BASF0oW0NIM10pW0NASF0oW0NIMl1bQ0gyXU9bQ0gyXVtDSDJdMilbQ0BASF0yT1tDQEhdKFtDSDJdMylDMTNbQ0BASF0oTzQpW0NASF0oW0NIM10pW0NIMl1bQ0BASF0oW0NIMl01KUM0NVtPSF0=

>  <s_glide_docking_method>  (1) 
confgen

>  <s_i_glide_gridfile>  (1) 
gpcr_drd2_6luq_protein_autoprepared_prepared

>  <s_lp_Force_Field>  (1) 
S-OPLS

>  <s_lp_Variant>  (1) 
DiffSBDD_18-2

>  <s_m_source_file>  (1) 
generated_generic_title2_ligand_DiffSBDD_2026-06-23_prepared.sdf

>  <GenAI_Model>  (1) 
DiffSBDD

>  <Protein>  (1) 
generic_title2

$$$$
DiffSBDD_37
     RDKit          3D

  0  0  0  0  0  0  0  0  0  0999 V3000
M  V30 BEGIN CTAB
M  V30 COUNTS 79 84 0 0 1
M  V30 BEGIN ATOM
M  V30 1 C 6.649055 5.418120 -13.510217 0 CFG=1
M  V30 2 O 8.975420 8.585415 -7.185005 0
M  V30 3 F 12.716727 4.555956 -19.150906 0
M  V30 4 C 9.228305 5.074763 -10.687275 0
M  V30 5 C 5.375443 7.620820 -15.329104 0
M  V30 6 O 6.741712 3.114766 -12.785226 0 CHG=-1
M  V30 7 C 6.005921 4.045633 -13.178956 0
M  V30 8 C 10.309731 6.248364 -19.982429 0
M  V30 9 C 7.840608 6.979862 -11.992605 0
M  V30 10 O 6.665366 7.042479 -15.340983 0
M  V30 11 C 8.757405 4.001544 -15.261315 0
M  V30 12 C 8.762686 5.590113 -8.166865 0
M  V30 13 F 13.156752 6.388287 -23.093200 0
M  V30 14 C 10.892468 7.706416 -8.315313 0
M  V30 15 C 7.958963 5.652631 -11.290626 0 CFG=2
M  V30 16 C 7.851472 6.625336 -19.635125 0
M  V30 17 O 8.502255 2.822757 -16.015119 0
M  V30 18 C 6.490470 5.156651 -18.100225 0
M  V30 19 C 7.543397 3.109039 -17.010764 0
M  V30 20 C 10.178561 7.191205 -9.570577 0
M  V30 21 C 9.986882 7.622016 -7.079331 0 CFG=2
M  V30 22 C 12.308164 6.331968 -22.053617 0
M  V30 23 C 11.950772 7.623774 -21.346066 0
M  V30 24 O 6.755314 5.190231 -10.715592 0
M  V30 25 C 9.152143 6.131008 -18.984534 0 CFG=1
M  V30 26 C 10.848894 4.929969 -20.540196 0 CFG=1
M  V30 27 O 4.758984 3.990236 -13.185040 0
M  V30 28 N 7.901011 5.734765 -12.766063 0
M  V30 29 C 6.737143 5.644053 -15.068667 0 CFG=1
M  V30 30 C 7.986970 5.152173 -15.907596 0 CFG=2
M  V30 31 C 6.694408 6.570073 -18.641259 0
M  V30 32 C 11.815796 5.136403 -21.695849 0
M  V30 33 C 9.705624 5.739595 -9.373380 0 CFG=2
M  V30 34 C 11.505362 4.074302 -19.434984 0 CFG=2
M  V30 35 C 10.816124 7.444906 -20.349331 0
M  V30 36 S 10.542279 3.989176 -17.897468 0
M  V30 37 C 9.373036 6.222337 -6.891064 0
M  V30 38 C 8.938998 4.708426 -18.398398 0 CFG=1
M  V30 39 C 7.742879 4.593373 -17.356509 0 CFG=2
M  V30 40 H 5.867669 6.087633 -13.155816 0
M  V30 41 H 8.327505 8.258554 -7.802749 0
M  V30 42 H 9.079664 4.005351 -10.533945 0
M  V30 43 H 10.022757 5.149703 -11.431121 0
M  V30 44 H 5.442275 8.644929 -15.694948 0
M  V30 45 H 4.686916 7.085353 -15.985026 0
M  V30 46 H 4.975497 7.662373 -14.318201 0
M  V30 47 H 6.880028 7.488858 -12.028547 0
M  V30 48 H 8.731100 7.578505 -12.171219 0
M  V30 49 H 9.808172 4.280857 -15.304904 0
M  V30 50 H 8.575402 3.803041 -14.216096 0
M  V30 51 H 7.777797 5.990389 -8.384948 0
M  V30 52 H 8.582924 4.530240 -7.984994 0
M  V30 53 H 11.236863 8.729428 -8.467944 0
M  V30 54 H 11.784575 7.107580 -8.139536 0
M  V30 55 H 7.616964 6.015618 -20.508519 0
M  V30 56 H 7.969636 7.645420 -19.997320 0
M  V30 57 H 6.245316 4.497386 -18.933877 0
M  V30 58 H 5.590153 5.190234 -17.498390 0
M  V30 59 H 7.652654 2.440413 -17.865729 0
M  V30 60 H 6.575420 2.916443 -16.562157 0
M  V30 61 H 10.858600 7.250706 -10.420133 0
M  V30 62 H 9.337042 7.841423 -9.804485 0
M  V30 63 H 10.569366 7.877785 -6.195123 0
M  V30 64 H 11.652557 8.359400 -22.094363 0
M  V30 65 H 12.829116 8.014385 -20.832891 0
M  V30 66 H 6.588880 4.325072 -11.071144 0
M  V30 67 H 9.396578 6.790032 -18.158551 0
M  V30 68 H 10.003243 4.389192 -20.964694 0
M  V30 69 H 5.847126 5.167390 -15.468308 0
M  V30 70 H 8.678506 5.990192 -15.965180 0
M  V30 71 H 5.777982 6.925139 -19.112900 0
M  V30 72 H 6.897169 7.229832 -17.804642 0
M  V30 73 H 12.110668 4.252812 -22.243030 0
M  V30 74 H 10.575402 5.187762 -9.049682 0
M  V30 75 H 11.665118 3.058622 -19.797162 0
M  V30 76 H 10.403927 8.349239 -19.926877 0
M  V30 77 H 8.635280 6.231094 -6.088455 0
M  V30 78 H 10.186113 5.590243 -6.545262 0
M  V30 79 H 8.631555 4.077982 -19.233646 0
M  V30 END ATOM
M  V30 BEGIN BOND
M  V30 1 1 7 1
M  V30 2 1 7 6
M  V30 3 1 10 5
M  V30 4 1 15 4
M  V30 5 1 15 9
M  V30 6 1 17 11
M  V30 7 1 19 17
M  V30 8 1 20 14
M  V30 9 1 21 2
M  V30 10 1 21 14
M  V30 11 1 22 13
M  V30 12 1 23 22
M  V30 13 1 15 24 CFG=1
M  V30 14 1 25 8
M  V30 15 1 25 16
M  V30 16 1 26 8
M  V30 17 2 27 7
M  V30 18 1 28 1
M  V30 19 1 28 9
M  V30 20 1 28 15
M  V30 21 1 29 1
M  V30 22 1 29 10
M  V30 23 1 30 11
M  V30 24 1 30 29
M  V30 25 1 31 16
M  V30 26 1 31 18
M  V30 27 2 32 22
M  V30 28 1 32 26
M  V30 29 1 33 4
M  V30 30 1 33 12
M  V30 31 1 33 20
M  V30 32 1 34 3
M  V30 33 1 34 26
M  V30 34 2 35 8
M  V30 35 1 35 23
M  V30 36 1 36 34
M  V30 37 1 37 12
M  V30 38 1 37 21
M  V30 39 1 38 25
M  V30 40 1 38 36
M  V30 41 1 39 18 CFG=3
M  V30 42 1 39 19
M  V30 43 1 39 30
M  V30 44 1 39 38
M  V30 45 1 1 40 CFG=1
M  V30 46 1 41 2
M  V30 47 1 42 4
M  V30 48 1 43 4
M  V30 49 1 44 5
M  V30 50 1 45 5
M  V30 51 1 46 5
M  V30 52 1 47 9
M  V30 53 1 48 9
M  V30 54 1 49 11
M  V30 55 1 50 11
M  V30 56 1 51 12
M  V30 57 1 52 12
M  V30 58 1 53 14
M  V30 59 1 54 14
M  V30 60 1 55 16
M  V30 61 1 56 16
M  V30 62 1 57 18
M  V30 63 1 58 18
M  V30 64 1 59 19
M  V30 65 1 60 19
M  V30 66 1 61 20
M  V30 67 1 62 20
M  V30 68 1 21 63 CFG=1
M  V30 69 1 64 23
M  V30 70 1 65 23
M  V30 71 1 66 24
M  V30 72 1 25 67 CFG=1
M  V30 73 1 26 68 CFG=3
M  V30 74 1 29 69 CFG=3
M  V30 75 1 30 70 CFG=3
M  V30 76 1 71 31
M  V30 77 1 72 31
M  V30 78 1 73 32
M  V30 79 1 33 74 CFG=1
M  V30 80 1 34 75 CFG=3
M  V30 81 1 76 35
M  V30 82 1 77 37
M  V30 83 1 78 37
M  V30 84 1 38 79 CFG=3
M  V30 END BOND
M  V30 END CTAB
M  END
>  <i_epik_Tot_Q>  (1) 
-1

>  <i_epik_Tot_abs_Q>  (1) 
1

>  <i_i_glide_confnum>  (1) 
177

>  <i_i_glide_lignum>  (1) 
102

>  <i_i_glide_posenum>  (1) 
392

>  <i_i_glide_rotatable_bonds>  (1) 
9

>  <i_lp_mmshare_version>  (1) 
72125

>  <i_m_source_file_index>  (1) 
38

>  <i_f3d_flags>  (1) 
0

>  <num_sample>  (1) 
50

>  <b_lp_Chiralities_Consistent>  (1) 
1

>  <r_epik_Charging_Adjusted_Penalty>  (1) 
0.59816734689740336

>  <r_epik_Ionization_Penalty>  (1) 
0.59818128409548943

>  <r_epik_Ionization_Penalty_Charging>  (1) 
0.00097473608303856986

>  <r_epik_Ionization_Penalty_Neutral>  (1) 
0.59720654801245088

>  <r_epik_State_Penalty>  (1) 
0.59719261081436481

>  <r_glide_ring_energy>  (1) 
1.2343154021944669

>  <r_i_docking_score>  (1) 
-3.1790485477871568

>  <r_i_glide_ecoul>  (1) 
-0.2506394554941907

>  <r_i_glide_eff_state_penalty>  (1) 
0.59719261081436481

>  <r_i_glide_einternal>  (1) 
28.176853026352958

>  <r_i_glide_emodel>  (1) 
-14.72585638993737

>  <r_i_glide_emodel_strain>  (1) 
2.9977117025731843

>  <r_i_glide_energy>  (1) 
-30.004649791881967

>  <r_i_glide_erotb>  (1) 
0.23359109936798597

>  <r_i_glide_esite>  (1) 
-0.063707585551443555

>  <r_i_glide_evdw>  (1) 
-29.754010336387775

>  <r_i_glide_gscore>  (1) 
-3.7762411586015219

>  <r_i_glide_gscore_strain>  (1) 
0

>  <r_i_glide_hbond>  (1) 
-0.15381545365900295

>  <r_i_glide_ligand_efficiency>  (1) 
-0.08151406532787582

>  <r_i_glide_ligand_efficiency_ln>  (1) 
-0.68167825130509274

>  <r_i_glide_ligand_efficiency_sa>  (1) 
-0.27643143110649682

>  <r_i_glide_lipo>  (1) 
-1.7356572291068342

>  <r_i_glide_metal>  (1) 
-0

>  <r_i_glide_rewards>  (1) 
-0.53135555450870986

>  <r_lp_Energy>  (1) 
44.555437999999995

>  <s_epik_cmdline>  (1) 
J2VwaWtfcHl0aG9uJywgJy1waHQnLCAnMS4wJywgJy1waCcsICc3LjQnLCAnLXRuJywgJzgnLCAnLW1hJywgJzUwMCcsICctaW1hZScsICc8aW5maWxlLm1hZT4nLCAnLW9tYWUnLCAnPG91dGZpbGUubWFlPic=

>  <s_epik_input>  (1) 
W09IXVtDQEBIXTFbQ0gyXVtDSDJdW0NAQEhdKFtDSDJdW0NIMl0xKVtDSDJdW0NAQF0yKFtPSF0pW0NIMl1OMltDQEhdKEMoPU8pW09IXSlbQ0BASF0oT1tDSDNdKVtDQEhdM1tDSDJdT1tDSDJdW0NAXTM0W0NASF01W0NASF0oW0NIMl1bQ0gyXVtDSDJdNClDPTZbQ0BIXShbQ0BASF0oRilTNSlbQ0hdPUMoRilbQ0gyXVtDSF02

>  <s_glide_docking_method>  (1) 
confgen

>  <s_i_glide_gridfile>  (1) 
gpcr_drd2_6luq_protein_autoprepared_prepared

>  <s_lp_Force_Field>  (1) 
S-OPLS

>  <s_lp_Variant>  (1) 
DiffSBDD_37-3

>  <s_m_source_file>  (1) 
generated_generic_title2_ligand_DiffSBDD_2026-06-23_prepared.sdf

>  <GenAI_Model>  (1) 
DiffSBDD

>  <Protein>  (1) 
generic_title2

$$$$
DiffSBDD_43
     RDKit          3D

  0  0  0  0  0  0  0  0  0  0999 V3000
M  V30 BEGIN CTAB
M  V30 COUNTS 78 82 0 0 1
M  V30 BEGIN ATOM
M  V30 1 N 7.518870 4.999104 -17.792018 0
M  V30 2 C 6.855297 5.608768 -18.973165 0 CFG=1
M  V30 3 C 10.544567 8.416498 -8.863217 0
M  V30 4 C 6.981917 3.598256 -21.207136 0 CFG=1
M  V30 5 C 9.108857 5.611474 -12.511772 0 CFG=2
M  V30 6 Cl 8.574648 8.559966 -11.585085 0
M  V30 7 C 6.222574 1.525501 -22.593396 0
M  V30 8 C 9.108038 6.328148 -8.707763 0
M  V30 9 N 8.104893 4.298651 -20.641583 0
M  V30 10 C 8.210590 5.901560 -13.748548 0
M  V30 11 C 7.325583 2.363567 -21.952965 0
M  V30 12 O 8.838657 5.590212 -17.649150 0
M  V30 13 C 10.910579 8.178089 -10.346157 0 CFG=1
M  V30 14 C 5.824584 5.051124 -13.745125 0
M  V30 15 C 8.546309 1.659313 -21.461830 0
M  V30 16 C 12.342730 7.710741 -10.513825 0
M  V30 17 C 9.319490 6.186375 -10.237113 0 CFG=1
M  V30 18 O 7.044281 5.992139 -11.184965 0
M  V30 19 C 8.096752 4.055475 -10.770344 0
M  V30 20 C 6.884419 5.235291 -16.497397 0
M  V30 21 C 8.345949 5.480385 -11.153730 0 CFG=1
M  V30 22 C 10.269282 7.116221 -8.090206 0
M  V30 23 C 7.817942 5.670070 -20.206425 0
M  V30 24 C 9.801387 7.366594 -11.089855 0 CFG=1
M  V30 25 C 9.301947 3.705676 -20.350736 0
M  V30 26 N 7.255671 4.787258 -14.057794 0 CFG=1 CHG=1
M  V30 27 O 10.072423 6.650554 -12.310194 0
M  V30 28 C 5.638966 4.713749 -19.358147 0
M  V30 29 C 7.149890 2.327321 -23.459625 0
M  V30 30 O 9.775404 4.403369 -12.786192 0
M  V30 31 N 9.438642 2.395895 -20.741076 0
M  V30 32 C 6.008525 3.371521 -20.030312 0
M  V30 33 O 8.753153 0.474509 -21.717208 0
M  V30 34 C 6.307252 7.016824 -18.636190 0
M  V30 35 C 7.409466 4.247656 -15.432428 0
M  V30 36 O 10.203114 4.300307 -19.758346 0
M  V30 37 H 11.337568 8.976518 -8.366824 0
M  V30 38 H 9.655066 9.046537 -8.813373 0
M  V30 39 H 6.496879 4.272566 -21.915084 0
M  V30 40 H 6.327883 0.442373 -22.620136 0
M  V30 41 H 5.195984 1.876191 -22.502961 0
M  V30 42 H 9.086337 5.334356 -8.257003 0
M  V30 43 H 8.175783 6.766800 -8.384974 0
M  V30 44 H 8.892583 5.990197 -14.593885 0
M  V30 45 H 7.700901 6.859303 -13.640497 0
M  V30 46 H 9.372653 5.051584 -18.224929 0
M  V30 47 H 10.975710 9.164561 -10.770066 0
M  V30 48 H 5.497259 6.029750 -14.096614 0
M  V30 49 H 5.195132 4.304212 -14.215894 0
M  V30 50 H 5.581047 4.960419 -12.692753 0
M  V30 51 H 12.533564 6.790313 -9.984812 0
M  V30 52 H 12.574968 7.590103 -11.571423 0
M  V30 53 H 13.036663 8.451375 -10.114547 0
M  V30 54 H 10.175408 5.522068 -10.220953 0
M  V30 55 H 6.975270 6.688697 -10.519546 0
M  V30 56 H 9.058966 3.585398 -10.597255 0
M  V30 57 H 7.493141 3.990429 -9.863105 0
M  V30 58 H 7.559543 3.582577 -11.585262 0
M  V30 59 H 7.096182 6.259665 -16.183758 0
M  V30 60 H 5.799461 5.190230 -16.564230 0
M  V30 61 H 11.162902 6.494955 -8.074030 0
M  V30 62 H 10.045247 7.341069 -7.048037 0
M  V30 63 H 7.322377 6.188472 -21.026433 0
M  V30 64 H 8.711632 6.268710 -20.025605 0
M  V30 65 H 5.004406 4.529334 -18.497816 0
M  V30 66 H 5.015617 5.269328 -20.060014 0
M  V30 67 H 6.759544 3.221592 -23.941279 0
M  V30 68 H 7.891613 1.779597 -24.034315 0
M  V30 69 H 10.631622 4.584773 -13.171694 0
M  V30 70 H 10.292947 1.932899 -20.475018 0
M  V30 71 H 5.094625 2.886011 -20.372998 0
M  V30 72 H 6.456933 2.698362 -19.297514 0
M  V30 73 H 6.155977 7.619206 -19.532476 0
M  V30 74 H 5.340179 6.957536 -18.134436 0
M  V30 75 H 6.957771 7.564514 -17.961887 0
M  V30 76 H 6.885907 3.295744 -15.519527 0
M  V30 77 H 8.461712 4.009073 -15.590330 0
M  V30 78 H 7.549382 4.035970 -13.447926 0
M  V30 END ATOM
M  V30 BEGIN BOND
M  V30 1 1 2 1 CFG=1
M  V30 2 1 9 4
M  V30 3 1 10 5
M  V30 4 1 11 4
M  V30 5 1 11 7
M  V30 6 1 12 1
M  V30 7 1 13 3
M  V30 8 1 15 11
M  V30 9 1 16 13
M  V30 10 1 17 8
M  V30 11 1 20 1
M  V30 12 1 21 5
M  V30 13 1 21 17
M  V30 14 1 21 18 CFG=3
M  V30 15 1 21 19
M  V30 16 1 22 3
M  V30 17 1 22 8
M  V30 18 1 23 2
M  V30 19 1 23 9
M  V30 20 1 24 6 CFG=3
M  V30 21 1 24 13
M  V30 22 1 24 17
M  V30 23 1 25 9
M  V30 24 1 26 10
M  V30 25 1 26 14
M  V30 26 1 27 5
M  V30 27 1 27 24
M  V30 28 1 28 2
M  V30 29 1 29 7
M  V30 30 1 29 11
M  V30 31 1 5 30 CFG=3
M  V30 32 1 31 15
M  V30 33 1 31 25
M  V30 34 1 32 4
M  V30 35 1 32 28
M  V30 36 2 33 15
M  V30 37 1 34 2
M  V30 38 1 35 20
M  V30 39 1 35 26
M  V30 40 2 36 25
M  V30 41 1 37 3
M  V30 42 1 38 3
M  V30 43 1 4 39 CFG=3
M  V30 44 1 40 7
M  V30 45 1 41 7
M  V30 46 1 42 8
M  V30 47 1 43 8
M  V30 48 1 44 10
M  V30 49 1 45 10
M  V30 50 1 46 12
M  V30 51 1 13 47 CFG=3
M  V30 52 1 48 14
M  V30 53 1 49 14
M  V30 54 1 50 14
M  V30 55 1 51 16
M  V30 56 1 52 16
M  V30 57 1 53 16
M  V30 58 1 17 54 CFG=1
M  V30 59 1 55 18
M  V30 60 1 56 19
M  V30 61 1 57 19
M  V30 62 1 58 19
M  V30 63 1 59 20
M  V30 64 1 60 20
M  V30 65 1 61 22
M  V30 66 1 62 22
M  V30 67 1 63 23
M  V30 68 1 64 23
M  V30 69 1 65 28
M  V30 70 1 66 28
M  V30 71 1 67 29
M  V30 72 1 68 29
M  V30 73 1 69 30
M  V30 74 1 70 31
M  V30 75 1 71 32
M  V30 76 1 72 32
M  V30 77 1 73 34
M  V30 78 1 74 34
M  V30 79 1 75 34
M  V30 80 1 76 35
M  V30 81 1 77 35
M  V30 82 1 26 78 CFG=1
M  V30 END BOND
M  V30 END CTAB
M  END
>  <i_epik_Tot_Q>  (1) 
1

>  <i_epik_Tot_abs_Q>  (1) 
1

>  <i_i_glide_confnum>  (1) 
357

>  <i_i_glide_lignum>  (1) 
117

>  <i_i_glide_posenum>  (1) 
320

>  <i_i_glide_rotatable_bonds>  (1) 
9

>  <i_lp_mmshare_version>  (1) 
72125

>  <i_m_source_file_index>  (1) 
44

>  <i_f3d_flags>  (1) 
0

>  <num_sample>  (1) 
50

>  <b_lp_Chiralities_Consistent>  (1) 
1

>  <r_epik_Charging_Adjusted_Penalty>  (1) 
0.34224393187987273

>  <r_epik_Ionization_Penalty>  (1) 
0.17191807241559104

>  <r_epik_Ionization_Penalty_Charging>  (1) 
0.17112196593993639

>  <r_epik_Ionization_Penalty_Neutral>  (1) 
0.00079610647565464391

>  <r_epik_State_Penalty>  (1) 
0.17112196593993634

>  <r_glide_ring_energy>  (1) 
0

>  <r_i_docking_score>  (1) 
-3.1456724983146183

>  <r_i_glide_ecoul>  (1) 
-10.180857977478816

>  <r_i_glide_eff_state_penalty>  (1) 
0.17112196593993634

>  <r_i_glide_einternal>  (1) 
15.144916665616183

>  <r_i_glide_emodel>  (1) 
-8.1774370664601133

>  <r_i_glide_emodel_strain>  (1) 
5.3695833197564724

>  <r_i_glide_energy>  (1) 
-15.829634171538629

>  <r_i_glide_erotb>  (1) 
0.44011442581216542

>  <r_i_glide_esite>  (1) 
0

>  <r_i_glide_evdw>  (1) 
-5.6487761940598142

>  <r_i_glide_gscore>  (1) 
-3.3167944642545546

>  <r_i_glide_gscore_strain>  (1) 
0.3423958299391181

>  <r_i_glide_hbond>  (1) 
-0.45599999999999996

>  <r_i_glide_ligand_efficiency>  (1) 
-0.087379791619850503

>  <r_i_glide_ligand_efficiency_ln>  (1) 
-0.68630075288271664

>  <r_i_glide_ligand_efficiency_sa>  (1) 
-0.28852171495231882

>  <r_i_glide_lipo>  (1) 
-0.95583046718389886

>  <r_i_glide_metal>  (1) 
-0

>  <r_i_glide_rewards>  (1) 
-0.87790674649712619

>  <r_lp_Energy>  (1) 
45.907455999999996

>  <r_lp_tautomer_probability>  (1) 
0.99999999996150013

>  <s_epik_Chemistry_Notes>  (1) 
This compound has a N-S or N-O group and may undergo hydrolysis at high or low pH.

>  <s_epik_cmdline>  (1) 
J2VwaWtfcHl0aG9uJywgJy1waHQnLCAnMS4wJywgJy1waCcsICc3LjQnLCAnLXRuJywgJzgnLCAnLW1hJywgJzUwMCcsICctaW1hZScsICc8aW5maWxlLm1hZT4nLCAnLW9tYWUnLCAnPG91dGZpbGUubWFlPic=

>  <s_epik_input>  (1) 
W0NIMl0xW0NIMl1DMTJbQ0BASF0zTihDKD1PKVtOSF1DMj1PKVtDSDJdW0NAQF0oW0NIM10pKFtDSDJdW0NIMl0zKU4oW09IXSlbQ0gyXVtDSDJdTihbQ0gzXSlbQ0gyXVtDQF0oTzQpKFtPSF0pW0NAQF0oW09IXSkoW0NIM10pW0NAQEhdKFtDQF00NUNsKVtDSDJdW0NIMl1bQ0gyXVtDQEhdNVtDSDNd

>  <s_glide_docking_method>  (1) 
confgen

>  <s_i_glide_gridfile>  (1) 
gpcr_drd2_6luq_protein_autoprepared_prepared

>  <s_lp_Force_Field>  (1) 
S-OPLS

>  <s_lp_Variant>  (1) 
DiffSBDD_43-1

>  <s_m_source_file>  (1) 
generated_generic_title2_ligand_DiffSBDD_2026-06-23_prepared.sdf

>  <GenAI_Model>  (1) 
DiffSBDD

>  <Protein>  (1) 
generic_title2

$$$$
DiffSBDD_43
     RDKit          3D

  0  0  0  0  0  0  0  0  0  0999 V3000
M  V30 BEGIN CTAB
M  V30 COUNTS 77 81 0 0 1
M  V30 BEGIN ATOM
M  V30 1 N 7.768662 5.339158 -12.495011 0
M  V30 2 C 6.860928 4.191400 -12.414358 0 CFG=1
M  V30 3 C 11.541139 9.427648 -4.062896 0
M  V30 4 C 7.051958 2.951552 -15.133799 0 CFG=1
M  V30 5 C 10.996507 7.837847 -8.538743 0 CFG=2
M  V30 6 Cl 9.079369 8.790231 -6.385087 0
M  V30 7 C 8.029480 1.353908 -16.947054 0
M  V30 8 C 11.005976 6.963015 -4.706260 0
M  V30 9 N 6.571196 4.272170 -14.847847 0
M  V30 10 C 9.954625 8.252260 -9.590206 0
M  V30 11 C 7.445944 2.703026 -16.541242 0
M  V30 12 O 7.016303 6.552616 -12.194606 0
M  V30 13 C 11.709451 9.764905 -5.562923 0 CFG=1
M  V30 14 C 9.188206 8.315904 -11.845097 0
M  V30 15 C 7.912677 3.914579 -17.279311 0
M  V30 16 C 13.217179 9.590245 -5.948778 0
M  V30 17 C 11.136866 7.438866 -6.180925 0 CFG=1
M  V30 18 O 9.238359 6.302103 -7.478670 0
M  V30 19 C 11.305758 5.492335 -7.388319 0
M  V30 20 C 9.099007 5.358342 -11.868476 0
M  V30 21 C 10.592248 6.758627 -7.437314 0 CFG=1
M  V30 22 C 11.774770 7.926434 -3.757704 0
M  V30 23 C 5.841517 4.396208 -13.573171 0
M  V30 24 C 10.840384 8.839044 -6.461290 0 CFG=1
M  V30 25 C 6.836623 5.366474 -15.623974 0
M  V30 26 N 9.881923 7.508915 -10.836782 0
M  V30 27 O 11.187543 9.007055 -7.811950 0
M  V30 28 C 7.625020 2.860460 -12.683026 0
M  V30 29 C 6.638097 1.715440 -17.375112 0
M  V30 30 O 12.218429 7.590253 -9.180536 0
M  V30 31 N 7.540026 5.129063 -16.780538 0
M  V30 32 C 8.168104 2.740345 -14.111616 0
M  V30 33 O 8.583518 3.823185 -18.305535 0
M  V30 34 C 6.178507 4.135276 -11.028462 0
M  V30 35 C 9.243500 6.218058 -10.609547 0
M  V30 36 O 6.474361 6.499081 -15.311162 0
M  V30 37 H 12.259407 9.989490 -3.469949 0
M  V30 38 H 10.575529 9.788339 -3.723061 0
M  V30 39 H 6.266193 2.233977 -14.888207 0
M  V30 40 H 8.790819 1.315578 -17.724407 0
M  V30 41 H 8.123299 0.582424 -16.185590 0
M  V30 42 H 11.483843 5.992648 -4.572231 0
M  V30 43 H 9.971495 6.789899 -4.420381 0
M  V30 44 H 10.262297 9.253939 -9.844976 0
M  V30 45 H 8.975332 8.353754 -9.124281 0
M  V30 46 H 6.937794 6.537972 -11.248404 0
M  V30 47 H 11.418629 10.799590 -5.733700 0
M  V30 48 H 9.756671 9.186676 -12.137809 0
M  V30 49 H 9.043478 7.775776 -12.778224 0
M  V30 50 H 8.219024 8.668527 -11.484704 0
M  V30 51 H 13.842296 9.251372 -5.124867 0
M  V30 52 H 13.370656 8.914592 -6.785145 0
M  V30 53 H 13.732129 10.394140 -6.384156 0
M  V30 54 H 12.175388 7.361951 -6.331250 0
M  V30 55 H 8.649607 7.043491 -7.392555 0
M  V30 56 H 12.353198 5.577281 -7.182835 0
M  V30 57 H 10.975755 5.190218 -6.430702 0
M  V30 58 H 10.975135 4.764339 -8.121969 0
M  V30 59 H 9.454749 4.361283 -11.630415 0
M  V30 60 H 9.809518 5.703856 -12.620711 0
M  V30 61 H 12.838959 7.717813 -3.830981 0
M  V30 62 H 11.520039 7.709564 -2.719687 0
M  V30 63 H 5.076847 3.621304 -13.527577 0
M  V30 64 H 5.287050 5.331967 -13.489233 0
M  V30 65 H 8.440039 2.686093 -11.984821 0
M  V30 66 H 6.931090 2.033898 -12.526108 0
M  V30 67 H 5.810982 1.195362 -16.893217 0
M  V30 68 H 6.480816 1.929550 -18.431243 0
M  V30 69 H 12.887723 7.572660 -8.516730 0
M  V30 70 H 7.798183 5.937396 -17.323584 0
M  V30 71 H 8.579028 1.742024 -14.227089 0
M  V30 72 H 8.936069 3.510645 -14.240328 0
M  V30 73 H 5.638443 3.200825 -10.889904 0
M  V30 74 H 6.907046 4.204294 -10.219840 0
M  V30 75 H 5.458953 4.939059 -10.885914 0
M  V30 76 H 8.293452 6.329339 -10.090254 0
M  V30 77 H 9.865966 5.651264 -9.921994 0
M  V30 END ATOM
M  V30 BEGIN BOND
M  V30 1 1 2 1 CFG=1
M  V30 2 1 9 4
M  V30 3 1 10 5
M  V30 4 1 11 4
M  V30 5 1 11 7
M  V30 6 1 12 1
M  V30 7 1 13 3
M  V30 8 1 15 11
M  V30 9 1 16 13
M  V30 10 1 17 8
M  V30 11 1 20 1
M  V30 12 1 21 5
M  V30 13 1 21 17
M  V30 14 1 21 18 CFG=1
M  V30 15 1 21 19
M  V30 16 1 22 3
M  V30 17 1 22 8
M  V30 18 1 23 2
M  V30 19 1 23 9
M  V30 20 1 24 6 CFG=3
M  V30 21 1 24 13
M  V30 22 1 24 17
M  V30 23 1 25 9
M  V30 24 1 26 10
M  V30 25 1 26 14
M  V30 26 1 27 5
M  V30 27 1 27 24
M  V30 28 1 28 2
M  V30 29 1 29 7
M  V30 30 1 29 11
M  V30 31 1 5 30 CFG=3
M  V30 32 1 31 15
M  V30 33 1 31 25
M  V30 34 1 32 4
M  V30 35 1 32 28
M  V30 36 2 33 15
M  V30 37 1 34 2
M  V30 38 1 35 20
M  V30 39 1 35 26
M  V30 40 2 36 25
M  V30 41 1 37 3
M  V30 42 1 38 3
M  V30 43 1 4 39 CFG=1
M  V30 44 1 40 7
M  V30 45 1 41 7
M  V30 46 1 42 8
M  V30 47 1 43 8
M  V30 48 1 44 10
M  V30 49 1 45 10
M  V30 50 1 46 12
M  V30 51 1 13 47 CFG=1
M  V30 52 1 48 14
M  V30 53 1 49 14
M  V30 54 1 50 14
M  V30 55 1 51 16
M  V30 56 1 52 16
M  V30 57 1 53 16
M  V30 58 1 17 54 CFG=3
M  V30 59 1 55 18
M  V30 60 1 56 19
M  V30 61 1 57 19
M  V30 62 1 58 19
M  V30 63 1 59 20
M  V30 64 1 60 20
M  V30 65 1 61 22
M  V30 66 1 62 22
M  V30 67 1 63 23
M  V30 68 1 64 23
M  V30 69 1 65 28
M  V30 70 1 66 28
M  V30 71 1 67 29
M  V30 72 1 68 29
M  V30 73 1 69 30
M  V30 74 1 70 31
M  V30 75 1 71 32
M  V30 76 1 72 32
M  V30 77 1 73 34
M  V30 78 1 74 34
M  V30 79 1 75 34
M  V30 80 1 76 35
M  V30 81 1 77 35
M  V30 END BOND
M  V30 END CTAB
M  END
>  <i_epik_Tot_Q>  (1) 
0

>  <i_epik_Tot_abs_Q>  (1) 
0

>  <i_i_glide_confnum>  (1) 
388

>  <i_i_glide_lignum>  (1) 
119

>  <i_i_glide_posenum>  (1) 
212

>  <i_i_glide_rotatable_bonds>  (1) 
9

>  <i_lp_mmshare_version>  (1) 
72125

>  <i_m_source_file_index>  (1) 
44

>  <i_f3d_flags>  (1) 
0

>  <num_sample>  (1) 
50

>  <b_lp_Chiralities_Consistent>  (1) 
1

>  <r_epik_Charging_Adjusted_Penalty>  (1) 
0.81934097425721464

>  <r_epik_Ionization_Penalty>  (1) 
0.82652016500404379

>  <r_epik_Ionization_Penalty_Charging>  (1) 
0

>  <r_epik_Ionization_Penalty_Neutral>  (1) 
0.82652016500404379

>  <r_epik_State_Penalty>  (1) 
0.81934097425721464

>  <r_glide_ring_energy>  (1) 
0

>  <r_i_docking_score>  (1) 
-3.1403229553444403

>  <r_i_glide_ecoul>  (1) 
-3.0586723729130356

>  <r_i_glide_eff_state_penalty>  (1) 
0.81934097425721464

>  <r_i_glide_einternal>  (1) 
5.8731200773388714

>  <r_i_glide_emodel>  (1) 
-5.4954172941807773

>  <r_i_glide_emodel_strain>  (1) 
4.8966446759496876

>  <r_i_glide_energy>  (1) 
-6.4259642739868461

>  <r_i_glide_erotb>  (1) 
0.44165943493852455

>  <r_i_glide_esite>  (1) 
-0.079587942900314332

>  <r_i_glide_evdw>  (1) 
-3.3672919010738105

>  <r_i_glide_gscore>  (1) 
-3.9596639296016551

>  <r_i_glide_gscore_strain>  (1) 
0.22416116898742189

>  <r_i_glide_hbond>  (1) 
-0.0026155868731003464

>  <r_i_glide_ligand_efficiency>  (1) 
-0.087231193204012236

>  <r_i_glide_ligand_efficiency_ln>  (1) 
-0.6851336271345726

>  <r_i_glide_ligand_efficiency_sa>  (1) 
-0.2880310537939198

>  <r_i_glide_lipo>  (1) 
-3.0673810295450621

>  <r_i_glide_metal>  (1) 
-0

>  <r_i_glide_rewards>  (1) 
-0.84873452321847864

>  <r_lp_Energy>  (1) 
49.803337999999997

>  <r_lp_tautomer_probability>  (1) 
0.99999999996150013

>  <s_epik_Chemistry_Notes>  (1) 
This compound has a N-S or N-O group and may undergo hydrolysis at high or low pH.

>  <s_epik_cmdline>  (1) 
J2VwaWtfcHl0aG9uJywgJy1waHQnLCAnMS4wJywgJy1waCcsICc3LjQnLCAnLXRuJywgJzgnLCAnLW1hJywgJzUwMCcsICctaW1hZScsICc8aW5maWxlLm1hZT4nLCAnLW9tYWUnLCAnPG91dGZpbGUubWFlPic=

>  <s_epik_input>  (1) 
W0NIMl0xW0NIMl1DMTJbQ0BASF0zTihDKD1PKVtOSF1DMj1PKVtDSDJdW0NAQF0oW0NIM10pKFtDSDJdW0NIMl0zKU4oW09IXSlbQ0gyXVtDSDJdTihbQ0gzXSlbQ0gyXVtDQF0oTzQpKFtPSF0pW0NAQF0oW09IXSkoW0NIM10pW0NAQEhdKFtDQF00NUNsKVtDSDJdW0NIMl1bQ0gyXVtDQEhdNVtDSDNd

>  <s_glide_docking_method>  (1) 
confgen

>  <s_i_glide_gridfile>  (1) 
gpcr_drd2_6luq_protein_autoprepared_prepared

>  <s_lp_Force_Field>  (1) 
S-OPLS

>  <s_lp_Variant>  (1) 
DiffSBDD_43-3

>  <s_m_source_file>  (1) 
generated_generic_title2_ligand_DiffSBDD_2026-06-23_prepared.sdf

>  <GenAI_Model>  (1) 
DiffSBDD

>  <Protein>  (1) 
generic_title2

$$$$
DiffSBDD_1
     RDKit          3D

  0  0  0  0  0  0  0  0  0  0999 V3000
M  V30 BEGIN CTAB
M  V30 COUNTS 89 91 0 0 1
M  V30 BEGIN ATOM
M  V30 1 O 8.653172 6.165796 -13.105901 0
M  V30 2 O 11.965607 7.990185 -10.323456 0
M  V30 3 C 7.775276 2.942773 -17.106424 0 CFG=2
M  V30 4 C 9.726962 1.464072 -17.998448 0
M  V30 5 C 7.771108 -3.097026 -18.498125 0
M  V30 6 C 8.719761 6.486278 -6.479405 0
M  V30 7 C 4.819007 -1.347321 -18.016513 0
M  V30 8 C 10.558907 7.815547 -10.337742 0 CFG=1
M  V30 9 C 8.617997 4.248855 -16.921844 0 CFG=1
M  V30 10 C 5.914840 0.950260 -18.560541 0 CFG=2
M  V30 11 C 9.675330 -0.050425 -18.225891 0
M  V30 12 O 6.494112 4.741109 -19.530591 0 CHG=-1
M  V30 13 C 7.967869 -1.712621 -19.149693 0
M  V30 14 C 7.639146 2.191950 -15.748105 0
M  V30 15 C 10.172096 7.147257 -11.668822 0
M  V30 16 C 5.165500 -2.769690 -18.507494 0
M  V30 17 C 8.312891 2.024211 -18.260907 0 CFG=1
M  V30 18 C 6.409116 -3.366150 -17.821856 0
M  V30 19 C 10.162469 6.980444 -9.115862 0
M  V30 20 C 8.075880 4.313342 -14.424742 0 CFG=2
M  V30 21 C 10.701897 7.396115 -5.281929 0
M  V30 22 F 3.775525 0.312121 -19.185038 0
M  V30 23 C 10.221469 6.741597 -6.575408 0
M  V30 24 C 7.189090 3.079924 -14.582083 0
M  V30 25 C 7.841782 8.175461 -12.064547 0
M  V30 26 F 5.588878 1.997166 -19.316603 0
M  V30 27 O 6.575529 6.707581 -17.960341 0 CHG=-1
M  V30 28 O 7.880300 6.755156 -20.104207 0
M  V30 29 P 7.322238 5.887755 -18.993936 0
M  V30 30 C 10.566875 7.622027 -7.782109 0
M  V30 31 C 8.671700 6.895348 -11.895198 0 CFG=1
M  V30 32 C 7.460681 0.801488 -18.729794 0 CFG=1
M  V30 33 O 7.831588 -0.737256 -16.886179 0
M  V30 34 C 7.640391 5.189916 -13.243640 0
M  V30 35 C 8.811949 5.147517 -18.181126 0
M  V30 36 C 8.192124 -0.474507 -18.227510 0 CFG=2
M  V30 37 C 8.076620 5.089725 -15.746397 0
M  V30 38 C 4.996557 -0.200422 -19.036941 0 CFG=2
M  V30 39 H 12.183188 8.783282 -10.788561 0
M  V30 40 H 6.779072 3.273967 -17.392230 0
M  V30 41 H 10.452888 1.929478 -18.665700 0
M  V30 42 H 10.079247 1.672367 -16.990880 0
M  V30 43 H 7.889627 -3.840605 -19.287974 0
M  V30 44 H 8.575390 -3.297648 -17.789785 0
M  V30 45 H 8.175432 7.427220 -6.404653 0
M  V30 46 H 8.321644 5.917290 -7.318614 0
M  V30 47 H 8.499408 5.924060 -5.585028 0
M  V30 48 H 3.775389 -1.364726 -17.711572 0
M  V30 49 H 5.327668 -1.114734 -17.082665 0
M  V30 50 H 10.082466 8.790217 -10.258428 0
M  V30 51 H 9.622950 3.942087 -16.631676 0
M  V30 52 H 5.637020 1.220417 -17.545637 0
M  V30 53 H 10.132163 -0.238659 -19.197459 0
M  V30 54 H 10.270298 -0.599412 -17.494758 0
M  V30 55 H 7.154599 -1.536109 -19.844360 0
M  V30 56 H 8.815490 -1.806974 -19.827157 0
M  V30 57 H 8.575411 1.719797 -15.464202 0
M  V30 58 H 6.922410 1.380229 -15.827659 0
M  V30 59 H 10.554519 7.724635 -12.506658 0
M  V30 60 H 10.680145 6.186736 -11.737142 0
M  V30 61 H 5.231291 -2.832999 -19.593898 0
M  V30 62 H 4.321827 -3.409550 -18.243099 0
M  V30 63 H 8.368310 2.661042 -19.142844 0
M  V30 64 H 6.283484 -4.448114 -17.759956 0
M  V30 65 H 6.423842 -3.039480 -16.785047 0
M  V30 66 H 9.081107 6.860397 -9.127610 0
M  V30 67 H 10.575429 5.976965 -9.185126 0
M  V30 68 H 9.093049 3.990278 -14.213556 0
M  V30 69 H 10.253210 8.383669 -5.181974 0
M  V30 70 H 10.446498 6.790211 -4.410992 0
M  V30 71 H 11.775422 7.527854 -5.282734 0
M  V30 72 H 10.729051 5.782613 -6.683060 0
M  V30 73 H 7.175981 2.499204 -13.658657 0
M  V30 74 H 6.175407 3.416603 -14.758468 0
M  V30 75 H 7.904393 8.814482 -11.185034 0
M  V30 76 H 8.175392 8.758508 -12.920336 0
M  V30 77 H 6.789888 7.933063 -12.213711 0
M  V30 78 H 11.640916 7.811556 -7.774892 0
M  V30 79 H 10.079799 8.593665 -7.685256 0
M  V30 80 H 8.269681 6.290198 -11.082607 0
M  V30 81 H 7.608627 0.774923 -19.811572 0
M  V30 82 H 8.172651 -1.579816 -16.619570 0
M  V30 83 H 7.573804 4.578825 -12.342226 0
M  V30 84 H 6.668238 5.654463 -13.412811 0
M  V30 85 H 9.467371 5.972435 -17.903024 0
M  V30 86 H 9.382273 4.602035 -18.930110 0
M  V30 87 H 7.059091 5.420386 -15.948989 0
M  V30 88 H 8.680398 5.990157 -15.640338 0
M  V30 89 H 5.260275 -0.542825 -20.035748 0
M  V30 END ATOM
M  V30 BEGIN BOND
M  V30 1 1 8 2
M  V30 2 1 9 3
M  V30 3 1 11 4
M  V30 4 1 13 5
M  V30 5 1 14 3
M  V30 6 1 15 8
M  V30 7 1 16 7
M  V30 8 1 17 3
M  V30 9 1 17 4
M  V30 10 1 18 5
M  V30 11 1 18 16
M  V30 12 1 19 8
M  V30 13 1 23 6
M  V30 14 1 23 21
M  V30 15 1 24 14
M  V30 16 1 24 20
M  V30 17 1 26 10
M  V30 18 1 29 12
M  V30 19 1 29 27
M  V30 20 2 29 28
M  V30 21 1 30 19
M  V30 22 1 30 23
M  V30 23 1 31 1
M  V30 24 1 31 15
M  V30 25 1 31 25
M  V30 26 1 32 10
M  V30 27 1 32 17
M  V30 28 1 34 1
M  V30 29 1 34 20
M  V30 30 1 35 9
M  V30 31 1 35 29
M  V30 32 1 36 11
M  V30 33 1 36 13
M  V30 34 1 36 32
M  V30 35 1 36 33 CFG=1
M  V30 36 1 37 9
M  V30 37 1 37 20
M  V30 38 1 38 7
M  V30 39 1 38 10
M  V30 40 1 38 22
M  V30 41 1 39 2
M  V30 42 1 3 40 CFG=3
M  V30 43 1 41 4
M  V30 44 1 42 4
M  V30 45 1 43 5
M  V30 46 1 44 5
M  V30 47 1 45 6
M  V30 48 1 46 6
M  V30 49 1 47 6
M  V30 50 1 48 7
M  V30 51 1 49 7
M  V30 52 1 8 50 CFG=1
M  V30 53 1 9 51 CFG=1
M  V30 54 1 10 52 CFG=1
M  V30 55 1 53 11
M  V30 56 1 54 11
M  V30 57 1 55 13
M  V30 58 1 56 13
M  V30 59 1 57 14
M  V30 60 1 58 14
M  V30 61 1 59 15
M  V30 62 1 60 15
M  V30 63 1 61 16
M  V30 64 1 62 16
M  V30 65 1 17 63 CFG=3
M  V30 66 1 64 18
M  V30 67 1 65 18
M  V30 68 1 66 19
M  V30 69 1 67 19
M  V30 70 1 20 68 CFG=1
M  V30 71 1 69 21
M  V30 72 1 70 21
M  V30 73 1 71 21
M  V30 74 1 72 23
M  V30 75 1 73 24
M  V30 76 1 74 24
M  V30 77 1 75 25
M  V30 78 1 76 25
M  V30 79 1 77 25
M  V30 80 1 78 30
M  V30 81 1 79 30
M  V30 82 1 31 80 CFG=1
M  V30 83 1 32 81 CFG=3
M  V30 84 1 82 33
M  V30 85 1 83 34
M  V30 86 1 84 34
M  V30 87 1 85 35
M  V30 88 1 86 35
M  V30 89 1 87 37
M  V30 90 1 88 37
M  V30 91 1 38 89 CFG=3
M  V30 END BOND
M  V30 END CTAB
M  END
>  <i_epik_Tot_Q>  (1) 
-2

>  <i_epik_Tot_abs_Q>  (1) 
2

>  <i_i_glide_confnum>  (1) 
2059

>  <i_i_glide_lignum>  (1) 
19

>  <i_i_glide_posenum>  (1) 
317

>  <i_i_glide_rotatable_bonds>  (1) 
13

>  <i_lp_mmshare_version>  (1) 
72125

>  <i_m_source_file_index>  (1) 
2

>  <i_f3d_flags>  (1) 
0

>  <num_sample>  (1) 
50

>  <b_lp_Chiralities_Consistent>  (1) 
1

>  <r_epik_Charging_Adjusted_Penalty>  (1) 
1.8994269935217587

>  <r_epik_Ionization_Penalty>  (1) 
0.94971411018702601

>  <r_epik_Ionization_Penalty_Charging>  (1) 
0.94971349676087924

>  <r_epik_Ionization_Penalty_Neutral>  (1) 
6.1342614676121867e-07

>  <r_epik_State_Penalty>  (1) 
0.94971349676087935

>  <r_glide_ring_energy>  (1) 
0

>  <r_i_docking_score>  (1) 
-3.1222721214482956

>  <r_i_glide_ecoul>  (1) 
-1.3923006117913217

>  <r_i_glide_eff_state_penalty>  (1) 
0.94971349676087935

>  <r_i_glide_einternal>  (1) 
11.42364745252056

>  <r_i_glide_emodel>  (1) 
-36.376043242562062

>  <r_i_glide_emodel_strain>  (1) 
0.52343211015023883

>  <r_i_glide_energy>  (1) 
-34.245259381562867

>  <r_i_glide_erotb>  (1) 
0.50299043937721266

>  <r_i_glide_esite>  (1) 
0

>  <r_i_glide_evdw>  (1) 
-32.852958769771547

>  <r_i_glide_gscore>  (1) 
-4.0719856182091752

>  <r_i_glide_gscore_strain>  (1) 
0

>  <r_i_glide_hbond>  (1) 
-0.057008206769512779

>  <r_i_glide_ligand_efficiency>  (1) 
-0.082165055827586722

>  <r_i_glide_ligand_efficiency_ln>  (1) 
-0.67325371732446848

>  <r_i_glide_ligand_efficiency_sa>  (1) 
-0.27623689699061049

>  <r_i_glide_lipo>  (1) 
-1.810603839953274

>  <r_i_glide_metal>  (1) 
-0

>  <r_i_glide_rewards>  (1) 
-0.8558709806063256

>  <r_lp_Energy>  (1) 
46.940445999999994

>  <s_epik_cmdline>  (1) 
J2VwaWtfcHl0aG9uJywgJy1waHQnLCAnMS4wJywgJy1waCcsICc3LjQnLCAnLXRuJywgJzgnLCAnLW1hJywgJzUwMCcsICctaW1hZScsICc8aW5maWxlLm1hZT4nLCAnLW9tYWUnLCAnPG91dGZpbGUubWFlPic=

>  <s_epik_input>  (1) 
W0NIM11bQ0hdKFtDSDNdKVtDSDJdW0NIMl1bQ0BASF0oW09IXSlbQ0gyXVtDQEBIXShbQ0gzXSlPW0NIMl1bQ0BASF0oW0NIMl1bQ0gyXTEpW0NIMl1bQ0BIXShbQ0gyXVAoPU8pKFtPSF0pW09IXSlbQ0BIXTFbQ0BASF0oW0NIMl1bQ0gyXTIpW0NAQEhdKFtDQF0yM1tPSF0pW0NAQEhdKEYpW0NASF0oRilbQ0gyXVtDSDJdW0NIMl1bQ0gyXVtDSDJdMw==

>  <s_glide_docking_method>  (1) 
confgen

>  <s_i_glide_gridfile>  (1) 
gpcr_drd2_6luq_protein_autoprepared_prepared

>  <s_lp_Force_Field>  (1) 
S-OPLS

>  <s_lp_Variant>  (1) 
DiffSBDD_1-3

>  <s_m_source_file>  (1) 
generated_generic_title2_ligand_DiffSBDD_2026-06-23_prepared.sdf

>  <GenAI_Model>  (1) 
DiffSBDD

>  <Protein>  (1) 
generic_title2

$$$$
DiffSBDD_8
     RDKit          3D

  0  0  0  0  0  0  0  0  0  0999 V3000
M  V30 BEGIN CTAB
M  V30 COUNTS 70 73 0 0 1
M  V30 BEGIN ATOM
M  V30 1 N 7.084896 5.279928 -15.973494 0
M  V30 2 C 8.745634 4.123653 -18.938790 0
M  V30 3 C 9.369459 5.990163 -13.485999 0 CFG=1
M  V30 4 N 10.871218 4.040044 -17.875659 0
M  V30 5 O 6.711881 4.390536 -12.291532 0
M  V30 6 C 8.877807 6.348758 -8.995150 0
M  V30 7 F 10.699793 5.843349 -16.487032 0
M  V30 8 C 10.224819 5.960851 -8.434138 0
M  V30 9 N 8.975316 6.657464 -10.455152 0 CHG=1
M  V30 10 C 7.833696 6.210057 -11.340863 0 CFG=1
M  V30 11 C 10.314169 5.366893 -17.671687 0 CFG=2
M  V30 12 C 12.198489 8.613436 -4.302144 0
M  V30 13 C 8.012435 6.307594 -12.874863 0 CFG=2
M  V30 14 O 8.591144 3.990239 -11.007578 0
M  V30 15 O 12.247287 4.234900 -18.244986 0
M  V30 16 C 11.218445 7.133534 -8.569472 0
M  V30 17 C 5.634146 5.787297 -13.889003 0
M  V30 18 C 6.437341 6.401546 -16.669836 0
M  V30 19 C 6.478908 4.854087 -14.735112 0 CFG=2
M  V30 20 C 8.788337 5.170110 -17.812397 0 CFG=2
M  V30 21 C 8.138986 4.610161 -16.510490 0
M  V30 22 C 10.714641 6.420658 -12.921189 0
M  V30 23 C 7.421308 4.751364 -11.149358 0 CFG=2
M  V30 24 C 6.961764 5.307460 -13.351534 0 CFG=2
M  V30 25 O 11.776769 9.375493 -3.191119 0
M  V30 26 O 8.600959 3.599490 -15.984691 0
M  V30 27 C 11.004319 7.911900 -4.974004 0
M  V30 28 C 13.035758 3.673038 -17.210013 0
M  V30 29 C 10.186178 3.598197 -19.084005 0
M  V30 30 O 11.337188 7.261522 -6.184872 0
M  V30 31 C 11.374607 7.978170 -7.313342 0
M  V30 32 N 10.175349 5.087789 -12.753384 0 CHG=1
M  V30 33 O 11.518875 9.190528 -7.369605 0
M  V30 34 H 8.064230 3.301832 -18.712690 0
M  V30 35 H 8.407461 4.562777 -19.877753 0
M  V30 36 H 9.362555 5.659161 -14.510109 0
M  V30 37 H 8.154283 5.564680 -8.778296 0
M  V30 38 H 8.575686 7.211513 -8.404363 0
M  V30 39 H 10.575163 5.070618 -8.934061 0
M  V30 40 H 10.087433 5.634830 -7.403493 0
M  V30 41 H 9.020148 7.664925 -10.520896 0
M  V30 42 H 6.929746 6.790615 -11.185036 0
M  V30 43 H 10.683765 6.062715 -18.427692 0
M  V30 44 H 12.693135 9.291681 -4.997869 0
M  V30 45 H 12.942331 7.891231 -3.968740 0
M  V30 46 H 7.738070 7.303920 -13.223897 0
M  V30 47 H 8.335784 3.094344 -10.824501 0
M  V30 48 H 10.908682 7.812324 -9.362527 0
M  V30 49 H 12.175506 6.790719 -8.909697 0
M  V30 50 H 4.721475 5.351647 -13.496548 0
M  V30 51 H 5.568195 6.844017 -14.138992 0
M  V30 52 H 6.324454 6.220291 -17.738979 0
M  V30 53 H 5.412237 6.556719 -16.336146 0
M  V30 54 H 6.972346 7.331299 -16.508553 0
M  V30 55 H 6.173933 3.808972 -14.745001 0
M  V30 56 H 8.382569 6.117623 -18.153297 0
M  V30 57 H 11.584293 6.390147 -13.574358 0
M  V30 58 H 10.862497 6.900098 -11.961872 0
M  V30 59 H 6.796378 4.590729 -10.268015 0
M  V30 60 H 11.619039 8.801282 -2.456565 0
M  V30 61 H 10.578059 7.148929 -4.326202 0
M  V30 62 H 10.208423 8.628561 -5.184199 0
M  V30 63 H 14.091070 3.781289 -17.457433 0
M  V30 64 H 12.863041 4.181267 -16.261080 0
M  V30 65 H 12.831544 2.609791 -17.078145 0
M  V30 66 H 10.230682 2.513741 -19.191995 0
M  V30 67 H 10.652203 4.045972 -19.964383 0
M  V30 68 H 9.727882 4.772309 -11.894649 0
M  V30 69 H 9.838224 6.255572 -10.771334 0
M  V30 70 H 10.735043 4.411563 -13.278460 0
M  V30 END ATOM
M  V30 BEGIN BOND
M  V30 1 1 8 6
M  V30 2 1 9 6
M  V30 3 1 10 9
M  V30 4 1 11 4
M  V30 5 1 11 7
M  V30 6 1 13 3
M  V30 7 1 13 10
M  V30 8 1 15 4
M  V30 9 1 16 8
M  V30 10 1 18 1
M  V30 11 1 19 1
M  V30 12 1 19 17
M  V30 13 1 20 2
M  V30 14 1 20 11
M  V30 15 1 21 1
M  V30 16 1 21 20
M  V30 17 1 22 3
M  V30 18 1 23 5
M  V30 19 1 23 10
M  V30 20 1 23 14
M  V30 21 1 24 5 CFG=1
M  V30 22 1 24 13
M  V30 23 1 24 17
M  V30 24 1 24 19
M  V30 25 1 25 12
M  V30 26 2 26 21
M  V30 27 1 27 12
M  V30 28 1 28 15
M  V30 29 1 29 2
M  V30 30 1 29 4
M  V30 31 1 30 27
M  V30 32 1 31 16
M  V30 33 1 31 30
M  V30 34 1 32 3
M  V30 35 1 32 22
M  V30 36 2 33 31
M  V30 37 1 34 2
M  V30 38 1 35 2
M  V30 39 1 3 36 CFG=3
M  V30 40 1 37 6
M  V30 41 1 38 6
M  V30 42 1 39 8
M  V30 43 1 40 8
M  V30 44 1 41 9
M  V30 45 1 10 42 CFG=1
M  V30 46 1 11 43 CFG=3
M  V30 47 1 44 12
M  V30 48 1 45 12
M  V30 49 1 13 46 CFG=3
M  V30 50 1 47 14
M  V30 51 1 48 16
M  V30 52 1 49 16
M  V30 53 1 50 17
M  V30 54 1 51 17
M  V30 55 1 52 18
M  V30 56 1 53 18
M  V30 57 1 54 18
M  V30 58 1 19 55 CFG=1
M  V30 59 1 20 56 CFG=3
M  V30 60 1 57 22
M  V30 61 1 58 22
M  V30 62 1 23 59 CFG=1
M  V30 63 1 60 25
M  V30 64 1 61 27
M  V30 65 1 62 27
M  V30 66 1 63 28
M  V30 67 1 64 28
M  V30 68 1 65 28
M  V30 69 1 66 29
M  V30 70 1 67 29
M  V30 71 1 68 32
M  V30 72 1 69 9
M  V30 73 1 70 32
M  V30 END BOND
M  V30 END CTAB
M  END
>  <i_epik_Tot_Q>  (1) 
2

>  <i_epik_Tot_abs_Q>  (1) 
2

>  <i_i_glide_confnum>  (1) 
4259

>  <i_i_glide_lignum>  (1) 
42

>  <i_i_glide_posenum>  (1) 
11

>  <i_i_glide_rotatable_bonds>  (1) 
15

>  <i_lp_mmshare_version>  (1) 
72125

>  <i_m_source_file_index>  (1) 
9

>  <i_f3d_flags>  (1) 
0

>  <num_sample>  (1) 
50

>  <b_lp_Chiralities_Consistent>  (1) 
1

>  <r_epik_Charging_Adjusted_Penalty>  (1) 
2.8797985042560583

>  <r_epik_Ionization_Penalty>  (1) 
1.6442763990741283

>  <r_epik_Ionization_Penalty_Charging>  (1) 
1.6439676131770962

>  <r_epik_Ionization_Penalty_Neutral>  (1) 
0.00030878589703216643

>  <r_epik_State_Penalty>  (1) 
1.2358308910789622

>  <r_glide_ring_energy>  (1) 
0

>  <r_i_docking_score>  (1) 
-3.1137403150333829

>  <r_i_glide_ecoul>  (1) 
-11.34732250631755

>  <r_i_glide_eff_state_penalty>  (1) 
1.2358308910789622

>  <r_i_glide_einternal>  (1) 
37.83834241269431

>  <r_i_glide_emodel>  (1) 
-19.90653932599766

>  <r_i_glide_emodel_strain>  (1) 
3.5501846792281384

>  <r_i_glide_energy>  (1) 
-29.852720084568411

>  <r_i_glide_erotb>  (1) 
1.0700444368793263

>  <r_i_glide_esite>  (1) 
-0.14723642194513245

>  <r_i_glide_evdw>  (1) 
-18.505397578250861

>  <r_i_glide_gscore>  (1) 
-4.349571206112345

>  <r_i_glide_gscore_strain>  (1) 
0

>  <r_i_glide_hbond>  (1) 
0

>  <r_i_glide_ligand_efficiency>  (1) 
-0.094355767122223724

>  <r_i_glide_ligand_efficiency_ln>  (1) 
-0.69247972397890856

>  <r_i_glide_ligand_efficiency_sa>  (1) 
-0.30264936227762412

>  <r_i_glide_lipo>  (1) 
-1.329299089574594

>  <r_i_glide_metal>  (1) 
-0

>  <r_i_glide_rewards>  (1) 
-1.3157118766117695

>  <r_lp_Energy>  (1) 
51.627417999999999

>  <s_epik_Chemistry_Notes>  (1) 
This compound has an ester and may undergo hydrolysis at high or low pH. This compound contains an acetal/aminal-like group ( X-CH(R)-Y where X, Y are N, S, or O) that may be acid/base labile, releasing an aldehyde. This compound has a N-S or N-O group and may undergo hydrolysis at high or low pH.

>  <s_epik_cmdline>  (1) 
J2VwaWtfcHl0aG9uJywgJy1waHQnLCAnMS4wJywgJy1waCcsICc3LjQnLCAnLXRuJywgJzgnLCAnLW1hJywgJzUwMCcsICctaW1hZScsICc8aW5maWxlLm1hZT4nLCAnLW9tYWUnLCAnPG91dGZpbGUubWFlPic=

>  <s_epik_input>  (1) 
W0NIM11PTjFbQ0BIXShGKVtDQEBIXShbQ0gyXVtDSDJdMSlDKD1PKU4oW0NIM10pW0NASF0yW0NIMl1DMjNPW0NAQEhdKFtPSF0pW0NASF0oW0NASF0zW0NASF00W0NIMl1bTkhdNClbTkhdW0NIMl1bQ0gyXVtDSDJdQyg9TylPW0NIMl1bQ0gyXVtPSF0=

>  <s_glide_docking_method>  (1) 
confgen

>  <s_i_glide_gridfile>  (1) 
gpcr_drd2_6luq_protein_autoprepared_prepared

>  <s_lp_Force_Field>  (1) 
S-OPLS

>  <s_lp_Variant>  (1) 
DiffSBDD_8-11

>  <s_m_source_file>  (1) 
generated_generic_title2_ligand_DiffSBDD_2026-06-23_prepared.sdf

>  <GenAI_Model>  (1) 
DiffSBDD

>  <Protein>  (1) 
generic_title2

$$$$
DiffSBDD_43
     RDKit          3D

  0  0  0  0  0  0  0  0  0  0999 V3000
M  V30 BEGIN CTAB
M  V30 COUNTS 78 82 0 0 1
M  V30 BEGIN ATOM
M  V30 1 N 7.869859 0.171515 -17.545179 0
M  V30 2 C 8.862411 1.063083 -18.199667 0 CFG=1
M  V30 3 C 8.202432 -5.895683 -20.978993 0
M  V30 4 C 8.058567 3.755304 -19.246436 0 CFG=1
M  V30 5 C 4.846771 -3.664120 -18.419378 0 CFG=2
M  V30 6 Cl 8.045356 -4.100210 -18.374122 0
M  V30 7 C 7.767358 6.352733 -19.145121 0
M  V30 8 C 6.747059 -6.923638 -19.104301 0
M  V30 9 N 7.526847 2.520899 -19.773969 0
M  V30 10 C 5.049286 -2.616794 -17.296158 0
M  V30 11 C 7.317352 4.982534 -19.644270 0
M  V30 12 O 8.471838 -0.407385 -16.355827 0
M  V30 13 C 7.370461 -4.586635 -20.947041 0 CFG=1
M  V30 14 C 4.351899 -0.688851 -18.706993 0
M  V30 15 C 5.862017 4.770701 -19.900993 0
M  V30 16 C 6.359847 -4.513455 -22.109048 0
M  V30 17 C 5.894660 -5.650628 -19.181225 0 CFG=1
M  V30 18 O 5.757603 -5.318185 -16.774230 0
M  V30 19 C 3.749945 -5.964695 -17.804072 0
M  V30 20 C 6.616874 0.765458 -17.072462 0
M  V30 21 C 5.063290 -5.169140 -17.995073 0 CFG=1
M  V30 22 C 7.434332 -7.141932 -20.471435 0
M  V30 23 C 8.424490 1.360693 -19.672162 0
M  V30 24 C 6.730693 -4.429522 -19.550542 0 CFG=1
M  V30 25 C 6.250501 2.379089 -20.246989 0
M  V30 26 N 5.348141 -1.241761 -17.767028 0 CFG=1 CHG=1
M  V30 27 O 5.786942 -3.380658 -19.428962 0
M  V30 28 C 9.110569 2.374299 -17.387968 0
M  V30 29 C 7.966627 5.986478 -20.587979 0
M  V30 30 O 3.544990 -3.519382 -18.931766 0
M  V30 31 N 5.468636 3.508085 -20.229122 0
M  V30 32 C 8.176071 3.561236 -17.722700 0
M  V30 33 O 5.056862 5.697980 -19.851367 0
M  V30 34 C 10.201143 0.276322 -18.304074 0
M  V30 35 C 5.627275 -0.326719 -16.637276 0
M  V30 36 O 5.812355 1.301187 -20.640010 0
M  V30 37 H 8.575845 -6.076424 -21.987826 0
M  V30 38 H 9.091020 -5.766614 -20.360874 0
M  V30 39 H 9.071253 3.856403 -19.642594 0
M  V30 40 H 7.013703 7.108146 -18.921476 0
M  V30 41 H 8.654327 6.398464 -18.516602 0
M  V30 42 H 6.126282 -7.783815 -18.853916 0
M  V30 43 H 7.492456 -6.834555 -18.313086 0
M  V30 44 H 5.901542 -2.916782 -16.694378 0
M  V30 45 H 4.176257 -2.600199 -16.653051 0
M  V30 46 H 8.475000 -1.338241 -16.546212 0
M  V30 47 H 8.056127 -3.750848 -21.091858 0
M  V30 48 H 3.375759 -0.961417 -18.345827 0
M  V30 49 H 4.380424 0.396769 -18.769386 0
M  V30 50 H 4.481947 -1.094727 -19.711324 0
M  V30 51 H 5.652603 -5.341657 -22.108075 0
M  V30 52 H 5.781131 -3.590373 -22.065831 0
M  V30 53 H 6.872926 -4.527774 -23.071708 0
M  V30 54 H 5.177809 -5.818904 -19.984568 0
M  V30 55 H 5.212074 -4.956680 -16.072674 0
M  V30 56 H 3.163106 -6.034001 -18.720525 0
M  V30 57 H 3.961120 -6.987448 -17.492154 0
M  V30 58 H 3.118762 -5.516182 -17.034101 0
M  V30 59 H 6.808397 1.431879 -16.231214 0
M  V30 60 H 6.159198 1.369800 -17.846987 0
M  V30 61 H 6.685046 -7.426537 -21.212094 0
M  V30 62 H 8.121438 -7.984088 -20.403136 0
M  V30 63 H 9.296472 1.608461 -20.277728 0
M  V30 64 H 8.024303 0.456938 -20.131951 0
M  V30 65 H 9.082085 2.174966 -16.319252 0
M  V30 66 H 10.129586 2.710384 -17.584627 0
M  V30 67 H 8.979616 5.784799 -20.931004 0
M  V30 68 H 7.333684 6.491831 -21.316485 0
M  V30 69 H 3.336731 -4.290048 -19.438783 0
M  V30 70 H 4.502729 3.391217 -20.492589 0
M  V30 71 H 8.577127 4.456897 -17.249206 0
M  V30 72 H 7.188770 3.416021 -17.286285 0
M  V30 73 H 10.936476 0.814533 -18.903263 0
M  V30 74 H 10.676022 0.114131 -17.332461 0
M  V30 75 H 10.055683 -0.694810 -18.777392 0
M  V30 76 H 6.029468 -0.871159 -15.780186 0
M  V30 77 H 4.693522 0.120361 -16.287088 0
M  V30 78 H 6.216286 -1.312062 -18.282133 0
M  V30 END ATOM
M  V30 BEGIN BOND
M  V30 1 1 2 1 CFG=1
M  V30 2 1 9 4
M  V30 3 1 10 5
M  V30 4 1 11 4
M  V30 5 1 11 7
M  V30 6 1 12 1
M  V30 7 1 13 3
M  V30 8 1 15 11
M  V30 9 1 16 13
M  V30 10 1 17 8
M  V30 11 1 20 1
M  V30 12 1 21 5
M  V30 13 1 21 17
M  V30 14 1 21 18 CFG=1
M  V30 15 1 21 19
M  V30 16 1 22 3
M  V30 17 1 22 8
M  V30 18 1 23 2
M  V30 19 1 23 9
M  V30 20 1 24 6 CFG=1
M  V30 21 1 24 13
M  V30 22 1 24 17
M  V30 23 1 25 9
M  V30 24 1 26 10
M  V30 25 1 26 14
M  V30 26 1 27 5
M  V30 27 1 27 24
M  V30 28 1 28 2
M  V30 29 1 29 7
M  V30 30 1 29 11
M  V30 31 1 5 30 CFG=3
M  V30 32 1 31 15
M  V30 33 1 31 25
M  V30 34 1 32 4
M  V30 35 1 32 28
M  V30 36 2 33 15
M  V30 37 1 34 2
M  V30 38 1 35 20
M  V30 39 1 35 26
M  V30 40 2 36 25
M  V30 41 1 37 3
M  V30 42 1 38 3
M  V30 43 1 4 39 CFG=3
M  V30 44 1 40 7
M  V30 45 1 41 7
M  V30 46 1 42 8
M  V30 47 1 43 8
M  V30 48 1 44 10
M  V30 49 1 45 10
M  V30 50 1 46 12
M  V30 51 1 13 47 CFG=3
M  V30 52 1 48 14
M  V30 53 1 49 14
M  V30 54 1 50 14
M  V30 55 1 51 16
M  V30 56 1 52 16
M  V30 57 1 53 16
M  V30 58 1 17 54 CFG=3
M  V30 59 1 55 18
M  V30 60 1 56 19
M  V30 61 1 57 19
M  V30 62 1 58 19
M  V30 63 1 59 20
M  V30 64 1 60 20
M  V30 65 1 61 22
M  V30 66 1 62 22
M  V30 67 1 63 23
M  V30 68 1 64 23
M  V30 69 1 65 28
M  V30 70 1 66 28
M  V30 71 1 67 29
M  V30 72 1 68 29
M  V30 73 1 69 30
M  V30 74 1 70 31
M  V30 75 1 71 32
M  V30 76 1 72 32
M  V30 77 1 73 34
M  V30 78 1 74 34
M  V30 79 1 75 34
M  V30 80 1 76 35
M  V30 81 1 77 35
M  V30 82 1 26 78 CFG=3
M  V30 END BOND
M  V30 END CTAB
M  END
>  <i_epik_Tot_Q>  (1) 
1

>  <i_epik_Tot_abs_Q>  (1) 
1

>  <i_i_glide_confnum>  (1) 
150

>  <i_i_glide_lignum>  (1) 
117

>  <i_i_glide_posenum>  (1) 
120

>  <i_i_glide_rotatable_bonds>  (1) 
9

>  <i_lp_mmshare_version>  (1) 
72125

>  <i_m_source_file_index>  (1) 
44

>  <i_f3d_flags>  (1) 
0

>  <num_sample>  (1) 
50

>  <b_lp_Chiralities_Consistent>  (1) 
1

>  <r_epik_Charging_Adjusted_Penalty>  (1) 
0.34224393187987273

>  <r_epik_Ionization_Penalty>  (1) 
0.17191807241559104

>  <r_epik_Ionization_Penalty_Charging>  (1) 
0.17112196593993639

>  <r_epik_Ionization_Penalty_Neutral>  (1) 
0.00079610647565464391

>  <r_epik_State_Penalty>  (1) 
0.17112196593993634

>  <r_glide_ring_energy>  (1) 
0

>  <r_i_docking_score>  (1) 
-3.101296652211682

>  <r_i_glide_ecoul>  (1) 
-6.8470922519791904

>  <r_i_glide_eff_state_penalty>  (1) 
0.17112196593993634

>  <r_i_glide_einternal>  (1) 
41.145723933219159

>  <r_i_glide_emodel>  (1) 
-17.308576852209562

>  <r_i_glide_emodel_strain>  (1) 
0.11493545702542463

>  <r_i_glide_energy>  (1) 
-32.777303280979133

>  <r_i_glide_erotb>  (1) 
0.44011442581216542

>  <r_i_glide_esite>  (1) 
-0.049987229433091751

>  <r_i_glide_evdw>  (1) 
-25.930211028999945

>  <r_i_glide_gscore>  (1) 
-3.2724186181516184

>  <r_i_glide_gscore_strain>  (1) 
0

>  <r_i_glide_hbond>  (1) 
-0.16

>  <r_i_glide_ligand_efficiency>  (1) 
-0.086147129228102276

>  <r_i_glide_ligand_efficiency_ln>  (1) 
-0.67661914215986807

>  <r_i_glide_ligand_efficiency_sa>  (1) 
-0.2844515534123177

>  <r_i_glide_lipo>  (1) 
-0.98058319176672959

>  <r_i_glide_metal>  (1) 
-0

>  <r_i_glide_rewards>  (1) 
-0.19838823351708645

>  <r_lp_Energy>  (1) 
45.907455999999996

>  <r_lp_tautomer_probability>  (1) 
0.99999999996150013

>  <s_epik_Chemistry_Notes>  (1) 
This compound has a N-S or N-O group and may undergo hydrolysis at high or low pH.

>  <s_epik_cmdline>  (1) 
J2VwaWtfcHl0aG9uJywgJy1waHQnLCAnMS4wJywgJy1waCcsICc3LjQnLCAnLXRuJywgJzgnLCAnLW1hJywgJzUwMCcsICctaW1hZScsICc8aW5maWxlLm1hZT4nLCAnLW9tYWUnLCAnPG91dGZpbGUubWFlPic=

>  <s_epik_input>  (1) 
W0NIMl0xW0NIMl1DMTJbQ0BASF0zTihDKD1PKVtOSF1DMj1PKVtDSDJdW0NAQF0oW0NIM10pKFtDSDJdW0NIMl0zKU4oW09IXSlbQ0gyXVtDSDJdTihbQ0gzXSlbQ0gyXVtDQF0oTzQpKFtPSF0pW0NAQF0oW09IXSkoW0NIM10pW0NAQEhdKFtDQF00NUNsKVtDSDJdW0NIMl1bQ0gyXVtDQEhdNVtDSDNd

>  <s_glide_docking_method>  (1) 
confgen

>  <s_i_glide_gridfile>  (1) 
gpcr_drd2_6luq_protein_autoprepared_prepared

>  <s_lp_Force_Field>  (1) 
S-OPLS

>  <s_lp_Variant>  (1) 
DiffSBDD_43-1

>  <s_m_source_file>  (1) 
generated_generic_title2_ligand_DiffSBDD_2026-06-23_prepared.sdf

>  <GenAI_Model>  (1) 
DiffSBDD

>  <Protein>  (1) 
generic_title2

$$$$
DiffSBDD_44
     RDKit          3D

  0  0  0  0  0  0  0  0  0  0999 V3000
M  V30 BEGIN CTAB
M  V30 COUNTS 60 62 0 0 1
M  V30 BEGIN ATOM
M  V30 1 C 5.881083 2.493435 -20.509187 0
M  V30 2 C 7.961683 3.761434 -14.308451 0
M  V30 3 O 7.834113 2.964051 -22.833975 0
M  V30 4 O 4.975410 3.214608 -20.925569 0
M  V30 5 O 8.047167 1.012679 -14.845246 0
M  V30 6 C 7.292265 1.746898 -18.251195 0 CFG=2
M  V30 7 C 8.215879 2.428876 -21.581540 0
M  V30 8 C 8.561710 6.135563 -11.235069 0
M  V30 9 C 9.764318 3.947739 -17.315637 0
M  V30 10 C 6.597473 0.574656 -18.962715 0
M  V30 11 C 7.446360 4.961602 -17.019553 0
M  V30 12 C 6.106825 6.719523 -20.058783 0
M  V30 13 O 7.986130 2.543604 -19.218209 0
M  V30 14 C 6.700848 5.467497 -19.384618 0 CFG=1
M  V30 15 C 5.615641 1.041159 -20.058239 0 CFG=1
M  V30 16 N 9.375410 6.328515 -8.834457 0
M  V30 17 F 9.375423 8.294295 -10.632367 0
M  V30 18 C 7.617924 3.124510 -13.114946 0
M  V30 19 S 8.181302 5.497650 -14.000482 0
M  V30 20 O 4.293137 0.884526 -19.585026 0
M  V30 21 C 8.948913 7.402332 -11.543450 0
M  V30 22 C 7.424380 4.581176 -20.453722 0 CFG=1
M  V30 23 C 8.383304 4.064349 -16.659169 0
M  V30 24 C 8.575428 5.590185 -9.797439 0
M  V30 25 C 8.106716 5.190490 -12.284663 0
M  V30 26 N 7.625729 3.990226 -12.014128 0
M  V30 27 C 7.580013 5.915800 -18.180362 0
M  V30 28 F 8.944540 7.902372 -12.785025 0
M  V30 29 C 8.175392 1.821242 -15.761946 0
M  V30 30 C 8.344233 1.287592 -17.208098 0
M  V30 31 O 8.229058 1.016042 -21.622123 0
M  V30 32 F 8.690613 4.986929 -20.582307 0
M  V30 33 N 8.172345 3.195581 -15.565478 0
M  V30 34 C 7.338881 3.007039 -20.412508 0 CFG=2
M  V30 35 H 8.571230 2.927183 -23.423775 0
M  V30 36 H 6.523012 2.353710 -17.770670 0
M  V30 37 H 9.249996 2.731981 -21.411217 0
M  V30 38 H 9.743320 3.770663 -18.386184 0
M  V30 39 H 10.403983 3.204125 -16.840646 0
M  V30 40 H 10.278758 4.899065 -17.178929 0
M  V30 41 H 7.352264 -0.071939 -19.410300 0
M  V30 42 H 6.086315 -0.047716 -18.226188 0
M  V30 43 H 6.510286 4.994035 -16.482476 0
M  V30 44 H 6.888611 7.348647 -20.486091 0
M  V30 45 H 5.542186 7.324333 -19.348365 0
M  V30 46 H 5.418013 6.449684 -20.860088 0
M  V30 47 H 5.842606 4.915726 -18.999061 0
M  V30 48 H 5.715016 0.397420 -20.932775 0
M  V30 49 H 8.874238 7.206131 -8.728198 0
M  V30 50 H 9.299632 5.874465 -7.936142 0
M  V30 51 H 7.406246 2.081337 -12.948790 0
M  V30 52 H 4.122942 -0.034118 -19.443654 0
M  V30 53 H 6.992114 4.862639 -21.414338 0
M  V30 54 H 7.549411 5.498144 -9.438178 0
M  V30 55 H 8.996508 4.584600 -9.823283 0
M  V30 56 H 8.618865 6.078319 -18.464010 0
M  V30 57 H 7.229127 6.875119 -17.803809 0
M  V30 58 H 8.262980 0.203845 -17.114511 0
M  V30 59 H 9.361616 1.415000 -17.571487 0
M  V30 60 H 9.001635 0.730882 -22.084949 0
M  V30 END ATOM
M  V30 BEGIN BOND
M  V30 1 2 4 1
M  V30 2 1 7 3
M  V30 3 1 10 6
M  V30 4 1 13 6
M  V30 5 1 14 12
M  V30 6 1 15 1
M  V30 7 1 15 10
M  V30 8 2 18 2
M  V30 9 1 19 2
M  V30 10 1 20 15
M  V30 11 2 21 8
M  V30 12 1 21 17
M  V30 13 1 22 14
M  V30 14 1 23 9
M  V30 15 2 23 11
M  V30 16 1 24 8
M  V30 17 1 24 16
M  V30 18 1 25 8
M  V30 19 1 25 19
M  V30 20 1 26 18
M  V30 21 2 26 25
M  V30 22 1 27 11
M  V30 23 1 27 14
M  V30 24 1 28 21
M  V30 25 2 29 5
M  V30 26 1 30 6
M  V30 27 1 30 29
M  V30 28 1 31 7
M  V30 29 1 32 22
M  V30 30 1 33 2
M  V30 31 1 33 23
M  V30 32 1 33 29
M  V30 33 1 34 1
M  V30 34 1 34 7 CFG=3
M  V30 35 1 34 13
M  V30 36 1 34 22
M  V30 37 1 35 3
M  V30 38 1 6 36 CFG=1
M  V30 39 1 37 7
M  V30 40 1 38 9
M  V30 41 1 39 9
M  V30 42 1 40 9
M  V30 43 1 41 10
M  V30 44 1 42 10
M  V30 45 1 43 11
M  V30 46 1 44 12
M  V30 47 1 45 12
M  V30 48 1 46 12
M  V30 49 1 14 47 CFG=1
M  V30 50 1 15 48 CFG=3
M  V30 51 1 49 16
M  V30 52 1 50 16
M  V30 53 1 51 18
M  V30 54 1 52 20
M  V30 55 1 22 53 CFG=3
M  V30 56 1 54 24
M  V30 57 1 55 24
M  V30 58 1 56 27
M  V30 59 1 57 27
M  V30 60 1 58 30
M  V30 61 1 59 30
M  V30 62 1 60 31
M  V30 END BOND
M  V30 END CTAB
M  END
>  <i_epik_Tot_Q>  (1) 
0

>  <i_epik_Tot_abs_Q>  (1) 
0

>  <i_i_glide_confnum>  (1) 
23

>  <i_i_glide_lignum>  (1) 
120

>  <i_i_glide_posenum>  (1) 
346

>  <i_i_glide_rotatable_bonds>  (1) 
7

>  <i_lp_mmshare_version>  (1) 
72125

>  <i_m_source_file_index>  (1) 
45

>  <i_f3d_flags>  (1) 
0

>  <num_sample>  (1) 
50

>  <b_lp_Chiralities_Consistent>  (1) 
1

>  <r_epik_Charging_Adjusted_Penalty>  (1) 
0.14846023016517132

>  <r_epik_Ionization_Penalty>  (1) 
0.1486405622074061

>  <r_epik_Ionization_Penalty_Charging>  (1) 
0

>  <r_epik_Ionization_Penalty_Neutral>  (1) 
0.1486405622074061

>  <r_epik_State_Penalty>  (1) 
0.14846023016517132

>  <r_glide_ring_energy>  (1) 
0

>  <r_i_docking_score>  (1) 
-3.0989193356568556

>  <r_i_glide_ecoul>  (1) 
-3.273474942341001

>  <r_i_glide_eff_state_penalty>  (1) 
0.14846023016517132

>  <r_i_glide_einternal>  (1) 
11.118425842559775

>  <r_i_glide_emodel>  (1) 
-27.016994938197904

>  <r_i_glide_emodel_strain>  (1) 
0.82891012373258377

>  <r_i_glide_energy>  (1) 
-28.606858261170199

>  <r_i_glide_erotb>  (1) 
0.32015763248640533

>  <r_i_glide_esite>  (1) 
-0.12179660408209803

>  <r_i_glide_evdw>  (1) 
-25.333383318829199

>  <r_i_glide_gscore>  (1) 
-3.247379565822027

>  <r_i_glide_gscore_strain>  (1) 
0

>  <r_i_glide_hbond>  (1) 
-0.077488800786547213

>  <r_i_glide_ligand_efficiency>  (1) 
-0.091144686342848696

>  <r_i_glide_ligand_efficiency_ln>  (1) 
-0.68463820298972899

>  <r_i_glide_ligand_efficiency_sa>  (1) 
-0.29527340150002734

>  <r_i_glide_lipo>  (1) 
-1.0532860002552928

>  <r_i_glide_metal>  (1) 
-0

>  <r_i_glide_rewards>  (1) 
-0.55727538589188419

>  <r_lp_Energy>  (1) 
44.606941999999997

>  <s_epik_Chemistry_Notes>  (1) 
This compound contains an acetal/aminal-like group ( X-CH(R)-Y where X, Y are N, S, or O) that may be acid/base labile, releasing an aldehyde.

>  <s_epik_cmdline>  (1) 
J2VwaWtfcHl0aG9uJywgJy1waHQnLCAnMS4wJywgJy1waCcsICc3LjQnLCAnLXRuJywgJzgnLCAnLW1hJywgJzUwMCcsICctaW1hZScsICc8aW5maWxlLm1hZT4nLCAnLW9tYWUnLCAnPG91dGZpbGUubWFlPic=

>  <s_epik_input>  (1) 
W09IXVtDSF0oW09IXSlbQ0BAXTEyQyg9TylbQ0BIXShbT0hdKVtDSDJdW0NASF0oTzEpW0NIMl1DKD1PKU4oQyhcW0NIM10pPVtDSF1cW0NIMl1bQ0BASF0oW0NIM10pW0NASF0yRiljM1tjSF1uYyhzMylDKD1DKEYpRilbQ0gyXVtOSDJd

>  <s_glide_docking_method>  (1) 
confgen

>  <s_i_glide_gridfile>  (1) 
gpcr_drd2_6luq_protein_autoprepared_prepared

>  <s_lp_Force_Field>  (1) 
S-OPLS

>  <s_lp_Variant>  (1) 
DiffSBDD_44-1

>  <s_m_source_file>  (1) 
generated_generic_title2_ligand_DiffSBDD_2026-06-23_prepared.sdf

>  <GenAI_Model>  (1) 
DiffSBDD

>  <Protein>  (1) 
generic_title2

$$$$
DiffSBDD_48
     RDKit          3D

  0  0  0  0  0  0  0  0  0  0999 V3000
M  V30 BEGIN CTAB
M  V30 COUNTS 43 43 0 0 1
M  V30 BEGIN ATOM
M  V30 1 C 7.113914 3.651700 -13.404997 0 CFG=2
M  V30 2 C 10.052996 7.378259 -8.721320 0
M  V30 3 C 7.504945 4.601704 -12.238518 0 CFG=1
M  V30 4 C 9.375370 5.646350 -10.843800 0
M  V30 5 O 9.437434 4.051332 -16.738983 0 CHG=-1
M  V30 6 O 6.601755 1.389889 -15.150776 0
M  V30 7 F 10.389290 7.190056 -12.373808 0
M  V30 8 C 7.699214 4.916127 -15.357967 0
M  V30 9 C 9.033113 5.308841 -9.516484 0
M  V30 10 C 7.167852 2.181530 -12.937934 0
M  V30 11 C 6.643017 1.147469 -13.946690 0
M  V30 12 C 9.020809 4.701604 -11.988596 0
M  V30 13 C 8.459269 4.829739 -16.686508 0
M  V30 14 C 5.141320 5.730529 -10.785045 0
M  V30 15 C 10.391554 7.720633 -10.043464 0
M  V30 16 C 6.174548 -0.205256 -13.400109 0
M  V30 17 O 8.044293 5.548256 -17.623472 0
M  V30 18 O 7.988012 3.800946 -14.519376 0
M  V30 19 O 6.175518 -0.281537 -11.984695 0
M  V30 20 C 5.621905 6.149578 -12.185122 0
M  V30 21 O 7.009546 5.926823 -12.413436 0
M  V30 22 F 10.379481 8.209297 -7.702455 0
M  V30 23 C 9.375153 6.173079 -8.457375 0
M  V30 24 C 10.054617 6.858187 -11.105327 0
M  V30 25 H 6.083924 3.839208 -13.709626 0
M  V30 26 H 7.085687 4.195802 -11.319964 0
M  V30 27 H 6.632829 4.960182 -15.585359 0
M  V30 28 H 7.972595 5.845216 -14.856800 0
M  V30 29 H 8.510175 4.390332 -9.311143 0
M  V30 30 H 6.556635 2.103629 -12.041502 0
M  V30 31 H 8.185374 1.906678 -12.660892 0
M  V30 32 H 9.422212 3.714794 -11.755958 0
M  V30 33 H 9.529100 5.021809 -12.898382 0
M  V30 34 H 4.204861 6.220553 -10.522935 0
M  V30 35 H 4.975795 4.655894 -10.721854 0
M  V30 36 H 5.870179 5.990215 -10.020887 0
M  V30 37 H 10.911564 8.644903 -10.243551 0
M  V30 38 H 6.824083 -0.980812 -13.802209 0
M  V30 39 H 5.170353 -0.409773 -13.772993 0
M  V30 40 H 5.820779 -1.130121 -11.754642 0
M  V30 41 H 5.456486 7.220201 -12.306209 0
M  V30 42 H 5.025574 5.662856 -12.956211 0
M  V30 43 H 9.111813 5.913598 -7.442842 0
M  V30 END ATOM
M  V30 BEGIN BOND
M  V30 1 1 3 1
M  V30 2 1 9 4
M  V30 3 1 10 1
M  V30 4 2 11 6
M  V30 5 1 11 10
M  V30 6 1 12 3
M  V30 7 1 12 4
M  V30 8 1 13 5
M  V30 9 1 13 8
M  V30 10 2 15 2
M  V30 11 1 16 11
M  V30 12 2 17 13
M  V30 13 1 18 1
M  V30 14 1 18 8
M  V30 15 1 19 16
M  V30 16 1 20 14
M  V30 17 1 21 3
M  V30 18 1 21 20
M  V30 19 1 22 2
M  V30 20 1 23 2
M  V30 21 2 23 9
M  V30 22 2 24 4
M  V30 23 1 24 7
M  V30 24 1 24 15
M  V30 25 1 1 25 CFG=3
M  V30 26 1 3 26 CFG=1
M  V30 27 1 27 8
M  V30 28 1 28 8
M  V30 29 1 29 9
M  V30 30 1 30 10
M  V30 31 1 31 10
M  V30 32 1 32 12
M  V30 33 1 33 12
M  V30 34 1 34 14
M  V30 35 1 35 14
M  V30 36 1 36 14
M  V30 37 1 37 15
M  V30 38 1 38 16
M  V30 39 1 39 16
M  V30 40 1 40 19
M  V30 41 1 41 20
M  V30 42 1 42 20
M  V30 43 1 43 23
M  V30 END BOND
M  V30 END CTAB
M  END
>  <i_epik_Tot_Q>  (1) 
-1

>  <i_epik_Tot_abs_Q>  (1) 
1

>  <i_i_glide_confnum>  (1) 
1389

>  <i_i_glide_lignum>  (1) 
126

>  <i_i_glide_posenum>  (1) 
392

>  <i_i_glide_rotatable_bonds>  (1) 
12

>  <i_lp_mmshare_version>  (1) 
72125

>  <i_m_source_file_index>  (1) 
49

>  <i_f3d_flags>  (1) 
0

>  <num_sample>  (1) 
50

>  <b_lp_Chiralities_Consistent>  (1) 
1

>  <r_epik_Charging_Adjusted_Penalty>  (1) 
7.9156217055703786e-05

>  <r_epik_Ionization_Penalty>  (1) 
8.8264238192330274e-05

>  <r_epik_Ionization_Penalty_Charging>  (1) 
7.9156217055703786e-05

>  <r_epik_Ionization_Penalty_Neutral>  (1) 
9.1080211366264862e-06

>  <r_epik_State_Penalty>  (1) 
-0

>  <r_glide_ring_energy>  (1) 
0

>  <r_i_docking_score>  (1) 
-3.0923711231407034

>  <r_i_glide_ecoul>  (1) 
-0.87927509968778206

>  <r_i_glide_eff_state_penalty>  (1) 
-0

>  <r_i_glide_einternal>  (1) 
7.9607433877964571

>  <r_i_glide_emodel>  (1) 
-31.519999898623588

>  <r_i_glide_emodel_strain>  (1) 
0.89525517150005385

>  <r_i_glide_energy>  (1) 
-30.445341864013393

>  <r_i_glide_erotb>  (1) 
1.2745455854061123

>  <r_i_glide_esite>  (1) 
0

>  <r_i_glide_evdw>  (1) 
-29.566066764325612

>  <r_i_glide_gscore>  (1) 
-3.0923711231407034

>  <r_i_glide_gscore_strain>  (1) 
0

>  <r_i_glide_hbond>  (1) 
-0.012122084000740422

>  <r_i_glide_ligand_efficiency>  (1) 
-0.12884879679752931

>  <r_i_glide_ligand_efficiency_ln>  (1) 
-0.74014630943210535

>  <r_i_glide_ligand_efficiency_sa>  (1) 
-0.37166424363172645

>  <r_i_glide_lipo>  (1) 
-0.68763620996719954

>  <r_i_glide_metal>  (1) 
-0

>  <r_i_glide_rewards>  (1) 
-2.0569638114094273

>  <r_lp_Energy>  (1) 
21.997854

>  <r_lp_tautomer_probability>  (1) 
1

>  <s_epik_cmdline>  (1) 
J2VwaWtfcHl0aG9uJywgJy1waHQnLCAnMS4wJywgJy1waCcsICc3LjQnLCAnLXRuJywgJzgnLCAnLW1hJywgJzUwMCcsICctaW1hZScsICc8aW5maWxlLm1hZT4nLCAnLW9tYWUnLCAnPG91dGZpbGUubWFlPic=

>  <s_epik_input>  (1) 
W09IXUMoPU8pW0NIMl1PW0NAQEhdKFtDSDJdQyg9TylbQ0gyXVtPSF0pW0NASF0oT1tDSDJdW0NIM10pW0NIMl1jKFtjSF1bY0hdMSljKEYpW2NIXWMxRg==

>  <s_glide_docking_method>  (1) 
confgen

>  <s_i_glide_gridfile>  (1) 
gpcr_drd2_6luq_protein_autoprepared_prepared

>  <s_lp_Force_Field>  (1) 
S-OPLS

>  <s_lp_Variant>  (1) 
DiffSBDD_48-1

>  <s_m_source_file>  (1) 
generated_generic_title2_ligand_DiffSBDD_2026-06-23_prepared.sdf

>  <GenAI_Model>  (1) 
DiffSBDD

>  <Protein>  (1) 
generic_title2

$$$$
DiffSBDD_28
     RDKit          3D

  0  0  0  0  0  0  0  0  0  0999 V3000
M  V30 BEGIN CTAB
M  V30 COUNTS 79 86 0 0 1
M  V30 BEGIN ATOM
M  V30 1 F 8.750672 0.581723 -22.233894 0
M  V30 2 C 7.266471 5.593999 -11.450776 0 CFG=1
M  V30 3 C 7.098052 3.645920 -14.708840 0 CFG=2
M  V30 4 C 9.437806 7.337053 -10.976850 0 CFG=2
M  V30 5 C 8.635194 0.975438 -18.751353 0 CFG=1
M  V30 6 C 6.342986 6.710953 -11.981480 0
M  V30 7 C 7.666894 2.563575 -16.847030 0 CFG=2
M  V30 8 C 7.798029 -1.813124 -20.383689 0 CFG=1
M  V30 9 C 6.632140 2.624794 -13.674570 0
M  V30 10 C 7.455332 0.007041 -18.661361 0 CFG=1
M  V30 11 C 8.413530 5.261332 -9.575853 0 CFG=1
M  V30 12 C 9.015342 4.332937 -15.747020 0
M  V30 13 C 8.575578 6.106049 -10.811783 0 CFG=1
M  V30 14 O 8.575363 5.873239 -8.315178 0
M  V30 15 C 9.155601 -0.739356 -22.282288 0 CFG=1
M  V30 16 C 8.775834 2.175816 -17.827326 0 CFG=1
M  V30 17 O 9.477322 0.957824 -17.584875 0
M  V30 18 N 8.156827 3.165832 -15.590736 0
M  V30 19 O 11.226171 8.790075 -9.985021 0
M  V30 20 C 9.911684 -1.140739 -23.488553 0
M  V30 21 O 9.802391 6.059636 -11.543829 0
M  V30 22 C 6.286671 0.684357 -17.917946 0
M  V30 23 C 6.994436 4.971546 -10.060454 0
M  V30 24 N 7.449918 4.474971 -12.439676 0 CFG=1 CHG=1
M  V30 25 C 10.206121 7.838254 -9.749131 0
M  V30 26 N 6.881700 -2.558924 -21.281854 0 CHG=1
M  V30 27 C 6.755732 1.331376 -16.615061 0
M  V30 28 C 5.644330 -1.778270 -21.430043 0
M  V30 29 C 5.649943 -0.837984 -20.236159 0
M  V30 30 O 10.936086 -1.811496 -23.380831 0
M  V30 31 C 9.087392 4.953970 -14.345220 0
M  V30 32 C 9.185747 -1.586739 -21.018083 0
M  V30 33 O 8.642716 -1.484164 -23.440939 0
M  V30 34 N 7.085704 -0.556819 -20.001046 0 CFG=2 CHG=1
M  V30 35 C 6.329267 3.494030 -12.475870 0
M  V30 36 C 12.447601 8.203447 -10.386665 0
M  V30 37 C 7.641842 4.824362 -13.876113 0 CFG=1
M  V30 38 H 6.248290 4.018136 -15.279901 0
M  V30 39 H 9.105751 8.089254 -11.689132 0
M  V30 40 H 9.190729 1.001904 -19.685493 0
M  V30 41 H 5.869439 7.279132 -11.185245 0
M  V30 42 H 6.883403 7.423743 -12.605131 0
M  V30 43 H 5.514701 6.318474 -12.570525 0
M  V30 44 H 7.066657 3.314517 -17.363507 0
M  V30 45 H 7.915137 -2.442854 -19.499924 0
M  V30 46 H 7.439402 1.932022 -13.428945 0
M  V30 47 H 5.775450 2.029575 -13.974215 0
M  V30 48 H 7.775015 -0.820622 -18.026082 0
M  V30 49 H 9.023389 4.364952 -9.624589 0
M  V30 50 H 10.003479 4.062522 -16.121045 0
M  V30 51 H 8.571349 5.044045 -16.446371 0
M  V30 52 H 7.961782 6.606586 -8.293402 0
M  V30 53 H 9.406745 2.989485 -18.179165 0
M  V30 54 H 5.518131 -0.045359 -17.661180 0
M  V30 55 H 5.811258 1.442271 -18.542932 0
M  V30 56 H 6.717797 3.931501 -9.948119 0
M  V30 57 H 6.245560 5.590230 -9.585022 0
M  V30 58 H 9.483806 8.322051 -9.091172 0
M  V30 59 H 10.625062 6.998286 -9.194465 0
M  V30 60 H 6.663620 -3.452565 -20.860990 0
M  V30 61 H 7.271136 0.594003 -15.997072 0
M  V30 62 H 5.854096 1.590326 -16.076924 0
M  V30 63 H 4.755215 -2.408998 -21.471431 0
M  V30 64 H 5.700083 -1.207685 -22.358086 0
M  V30 65 H 5.222710 -1.371394 -19.385217 0
M  V30 66 H 5.060809 0.064071 -20.408666 0
M  V30 67 H 9.769455 4.390219 -13.708044 0
M  V30 68 H 9.411451 5.990116 -14.338691 0
M  V30 69 H 9.848762 -1.105116 -20.300435 0
M  V30 70 H 9.646263 -2.553162 -21.228738 0
M  V30 71 H 6.176621 2.865369 -11.602587 0
M  V30 72 H 5.386479 4.018621 -12.638100 0
M  V30 73 H 13.167086 8.981660 -10.634625 0
M  V30 74 H 12.874100 7.591306 -9.591732 0
M  V30 75 H 12.302650 7.590235 -11.275768 0
M  V30 76 H 7.085484 5.711157 -14.176076 0
M  V30 77 H 8.271262 3.957879 -12.156947 0
M  V30 78 H 7.300041 -2.713914 -22.190865 0
M  V30 79 H 7.326105 0.148044 -20.686256 0
M  V30 END ATOM
M  V30 BEGIN BOND
M  V30 1 1 2 6 CFG=3
M  V30 2 1 9 3
M  V30 3 1 10 5
M  V30 4 1 13 2
M  V30 5 1 13 4
M  V30 6 1 13 11
M  V30 7 1 14 11
M  V30 8 1 15 1 CFG=1
M  V30 9 1 16 5
M  V30 10 1 16 7
M  V30 11 1 17 5
M  V30 12 1 17 16
M  V30 13 1 18 3
M  V30 14 1 18 7
M  V30 15 1 18 12
M  V30 16 1 20 15
M  V30 17 1 21 4
M  V30 18 1 13 21 CFG=3
M  V30 19 1 22 10
M  V30 20 1 23 2
M  V30 21 1 23 11
M  V30 22 1 24 2
M  V30 23 1 25 4
M  V30 24 1 25 19
M  V30 25 1 26 8
M  V30 26 1 27 7
M  V30 27 1 27 22
M  V30 28 1 28 26
M  V30 29 1 29 28
M  V30 30 2 30 20
M  V30 31 1 31 12
M  V30 32 1 32 8
M  V30 33 1 32 15
M  V30 34 1 33 15
M  V30 35 1 33 20
M  V30 36 1 34 8
M  V30 37 1 34 10
M  V30 38 1 34 29
M  V30 39 1 35 9
M  V30 40 1 35 24
M  V30 41 1 36 19
M  V30 42 1 37 3
M  V30 43 1 37 24
M  V30 44 1 37 31
M  V30 45 1 3 38 CFG=3
M  V30 46 1 4 39 CFG=3
M  V30 47 1 5 40 CFG=3
M  V30 48 1 41 6
M  V30 49 1 42 6
M  V30 50 1 43 6
M  V30 51 1 7 44 CFG=3
M  V30 52 1 8 45 CFG=1
M  V30 53 1 46 9
M  V30 54 1 47 9
M  V30 55 1 10 48 CFG=1
M  V30 56 1 11 49 CFG=3
M  V30 57 1 50 12
M  V30 58 1 51 12
M  V30 59 1 52 14
M  V30 60 1 16 53 CFG=3
M  V30 61 1 54 22
M  V30 62 1 55 22
M  V30 63 1 56 23
M  V30 64 1 57 23
M  V30 65 1 58 25
M  V30 66 1 59 25
M  V30 67 1 60 26
M  V30 68 1 61 27
M  V30 69 1 62 27
M  V30 70 1 63 28
M  V30 71 1 64 28
M  V30 72 1 65 29
M  V30 73 1 66 29
M  V30 74 1 67 31
M  V30 75 1 68 31
M  V30 76 1 69 32
M  V30 77 1 70 32
M  V30 78 1 71 35
M  V30 79 1 72 35
M  V30 80 1 73 36
M  V30 81 1 74 36
M  V30 82 1 75 36
M  V30 83 1 37 76 CFG=3
M  V30 84 1 24 77 CFG=1
M  V30 85 1 78 26
M  V30 86 1 34 79 CFG=3
M  V30 END BOND
M  V30 END CTAB
M  END
>  <i_epik_Tot_Q>  (1) 
3

>  <i_epik_Tot_abs_Q>  (1) 
3

>  <i_i_glide_confnum>  (1) 
1

>  <i_i_glide_lignum>  (1) 
84

>  <i_i_glide_posenum>  (1) 
337

>  <i_i_glide_rotatable_bonds>  (1) 
8

>  <i_lp_mmshare_version>  (1) 
72125

>  <i_m_source_file_index>  (1) 
29

>  <i_f3d_flags>  (1) 
0

>  <num_sample>  (1) 
50

>  <b_lp_Chiralities_Consistent>  (1) 
1

>  <r_epik_Charging_Adjusted_Penalty>  (1) 
2.5479580004866769

>  <r_epik_Ionization_Penalty>  (1) 
1.853674345886815

>  <r_epik_Ionization_Penalty_Charging>  (1) 
1.8530809818743854

>  <r_epik_Ionization_Penalty_Neutral>  (1) 
0.00059336401242958479

>  <r_epik_State_Penalty>  (1) 
0.69487701861229134

>  <r_glide_ring_energy>  (1) 
0.81914574756083292

>  <r_i_docking_score>  (1) 
-3.0918992368838483

>  <r_i_glide_ecoul>  (1) 
-10.487821210462346

>  <r_i_glide_eff_state_penalty>  (1) 
0.69487701861229134

>  <r_i_glide_einternal>  (1) 
5.7972256093705141

>  <r_i_glide_emodel>  (1) 
-33.114380541707945

>  <r_i_glide_emodel_strain>  (1) 
5.7883394790135867

>  <r_i_glide_energy>  (1) 
-34.749719270809976

>  <r_i_glide_erotb>  (1) 
0.44698704239028575

>  <r_i_glide_esite>  (1) 
0

>  <r_i_glide_evdw>  (1) 
-24.261898060347633

>  <r_i_glide_gscore>  (1) 
-3.7867762554961395

>  <r_i_glide_gscore_strain>  (1) 
0.44708486975339667

>  <r_i_glide_hbond>  (1) 
-0.26460935955846038

>  <r_i_glide_ligand_efficiency>  (1) 
-0.083564844240104005

>  <r_i_glide_ligand_efficiency_ln>  (1) 
-0.67056046007783654

>  <r_i_glide_ligand_efficiency_sa>  (1) 
-0.2784566000062651

>  <r_i_glide_lipo>  (1) 
-1.096183966848995

>  <r_i_glide_metal>  (1) 
-0

>  <r_i_glide_rewards>  (1) 
-0.53378675664563391

>  <r_lp_Energy>  (1) 
62.908856

>  <s_epik_Chemistry_Notes>  (1) 
This compound has an ester and may undergo hydrolysis at high or low pH. This compound contains an acetal/aminal-like group ( X-CH(R)-Y where X, Y are N, S, or O) that may be acid/base labile, releasing an aldehyde.

>  <s_epik_cmdline>  (1) 
J2VwaWtfcHl0aG9uJywgJy1waHQnLCAnMS4wJywgJy1waCcsICc3LjQnLCAnLXRuJywgJzgnLCAnLW1hJywgJzUwMCcsICctaW1hZScsICc8aW5maWxlLm1hZT4nLCAnLW9tYWUnLCAnPG91dGZpbGUubWFlPic=

>  <s_epik_input>  (1) 
Tz1DKE8xKUMxKEYpW0NIMl1bQ0BASF0yW05IXVtDSDJdW0NIMl1OMltDQEBIXTNbQ0gyXVtDSDJdW0NASF0oW0NAQEhdKE80KVtDQEhdMzQpTjVbQ0gyXVtDSDJdW0NAQEhdKFtDQEhdNTYpTihbQ0gyXVtDSDJdNilbQ0BAXShbQ0gzXSkoW0NIMl1bQ0BASF03W09IXSlbQ0BAXTc4W0NASF0oTzgpW0NIMl1PW0NIM10=

>  <s_glide_docking_method>  (1) 
confgen

>  <s_i_glide_gridfile>  (1) 
gpcr_drd2_6luq_protein_autoprepared_prepared

>  <s_lp_Force_Field>  (1) 
S-OPLS

>  <s_lp_Variant>  (1) 
DiffSBDD_28-7

>  <s_m_source_file>  (1) 
generated_generic_title2_ligand_DiffSBDD_2026-06-23_prepared.sdf

>  <GenAI_Model>  (1) 
DiffSBDD

>  <Protein>  (1) 
generic_title2

$$$$
DiffSBDD_22
     RDKit          3D

  0  0  0  0  0  0  0  0  0  0999 V3000
M  V30 BEGIN CTAB
M  V30 COUNTS 59 63 0 0 1
M  V30 BEGIN ATOM
M  V30 1 C 9.355224 2.873658 -19.604715 0
M  V30 2 C 8.654607 3.523888 -20.831574 0 CFG=1
M  V30 3 C 10.098057 1.552095 -19.935536 0 CFG=2
M  V30 4 C 5.204202 4.819962 -21.886061 0 CFG=1
M  V30 5 C 12.063837 1.353443 -18.377150 0 CFG=2
M  V30 6 C 13.114770 0.316490 -18.707194 0
M  V30 7 N 10.722678 0.937261 -18.732550 0
M  V30 8 C 11.035980 1.653330 -21.163486 0
M  V30 9 O 8.938393 -0.410029 -18.290739 0
M  V30 10 C 9.728921 3.668021 -21.940400 0
M  V30 11 C 12.688996 2.731598 -18.573779 0 CFG=1
M  V30 12 C 6.020907 2.354395 -19.072335 0
M  V30 13 C 7.308314 2.835650 -21.280817 0 CFG=2
M  V30 14 C 6.889007 3.167491 -22.729082 0
M  V30 15 Cl 15.781766 0.390205 -19.342059 0
M  V30 16 C 3.891256 8.372687 -22.535490 0
M  V30 17 C 10.326762 2.312822 -22.352080 0
M  V30 18 C 4.323581 9.050801 -21.379250 0
M  V30 19 C 4.175476 7.001704 -22.697757 0
M  V30 20 C 12.221447 2.316920 -17.200417 0
M  V30 21 C 5.332269 6.990805 -20.544594 0
M  V30 22 C 10.069676 -0.009670 -18.024265 0
M  V30 23 F 6.497770 1.118432 -19.211212 0
M  V30 24 C 14.259116 1.245395 -18.944658 0
M  V30 25 N 5.268078 4.102099 -20.607980 0
M  V30 26 N 14.101089 2.495272 -18.852140 0
M  V30 27 C 4.895587 6.305450 -21.702586 0
M  V30 28 C 5.043739 8.360743 -20.385037 0
M  V30 29 C 6.120225 3.182267 -20.343708 0
M  V30 30 C 6.426329 4.620829 -22.800447 0
M  V30 31 H 8.655129 2.701196 -18.793153 0
M  V30 32 H 10.058540 3.598321 -19.201317 0
M  V30 33 H 8.395932 4.542626 -20.537534 0
M  V30 34 H 9.321793 0.871336 -20.286698 0
M  V30 35 H 4.348156 4.403388 -22.419891 0
M  V30 36 H 13.300184 -0.353315 -17.866884 0
M  V30 37 H 12.877555 -0.242610 -19.612488 0
M  V30 38 H 11.930263 2.233849 -20.956810 0
M  V30 39 H 11.381896 0.659414 -21.449481 0
M  V30 40 H 10.534723 4.303113 -21.569022 0
M  V30 41 H 9.349126 4.200350 -22.810668 0
M  V30 42 H 12.219458 3.531961 -19.138569 0
M  V30 43 H 6.540011 2.841386 -18.248518 0
M  V30 44 H 4.975444 2.248677 -18.785104 0
M  V30 45 H 7.461549 1.757797 -21.270085 0
M  V30 46 H 7.673504 2.962968 -23.454965 0
M  V30 47 H 6.062761 2.517743 -23.024222 0
M  V30 48 H 3.339970 8.903186 -23.298051 0
M  V30 49 H 11.035459 2.453328 -23.168711 0
M  V30 50 H 9.547025 1.652901 -22.732709 0
M  V30 51 H 4.103339 10.100650 -21.255289 0
M  V30 52 H 3.842088 6.484047 -23.585746 0
M  V30 53 H 11.327566 2.809746 -16.823028 0
M  V30 54 H 12.975413 2.091542 -16.446990 0
M  V30 55 H 5.886547 6.466343 -19.780282 0
M  V30 56 H 10.682578 -0.371993 -17.185030 0
M  V30 57 H 5.375410 8.882331 -19.499386 0
M  V30 58 H 6.175402 4.893305 -23.826184 0
M  V30 59 H 7.233146 5.288254 -22.497142 0
M  V30 END ATOM
M  V30 BEGIN BOND
M  V30 1 1 2 1
M  V30 2 1 3 1
M  V30 3 1 6 5
M  V30 4 1 7 3
M  V30 5 1 5 7 CFG=3
M  V30 6 1 8 3
M  V30 7 1 10 2
M  V30 8 1 11 5
M  V30 9 1 13 2
M  V30 10 1 14 13
M  V30 11 1 17 8
M  V30 12 1 17 10
M  V30 13 2 18 16
M  V30 14 1 19 16
M  V30 15 1 20 5
M  V30 16 1 20 11
M  V30 17 1 22 7
M  V30 18 2 22 9
M  V30 19 1 23 12
M  V30 20 1 24 6
M  V30 21 1 24 15
M  V30 22 1 25 4
M  V30 23 1 26 11
M  V30 24 2 26 24
M  V30 25 1 27 4
M  V30 26 2 27 19
M  V30 27 1 27 21
M  V30 28 1 28 18
M  V30 29 2 28 21
M  V30 30 1 29 12
M  V30 31 1 29 13
M  V30 32 2 29 25
M  V30 33 1 30 4
M  V30 34 1 30 14
M  V30 35 1 31 1
M  V30 36 1 32 1
M  V30 37 1 2 33 CFG=1
M  V30 38 1 3 34 CFG=3
M  V30 39 1 4 35 CFG=3
M  V30 40 1 36 6
M  V30 41 1 37 6
M  V30 42 1 38 8
M  V30 43 1 39 8
M  V30 44 1 40 10
M  V30 45 1 41 10
M  V30 46 1 11 42 CFG=3
M  V30 47 1 43 12
M  V30 48 1 44 12
M  V30 49 1 13 45 CFG=3
M  V30 50 1 46 14
M  V30 51 1 47 14
M  V30 52 1 48 16
M  V30 53 1 49 17
M  V30 54 1 50 17
M  V30 55 1 51 18
M  V30 56 1 52 19
M  V30 57 1 53 20
M  V30 58 1 54 20
M  V30 59 1 55 21
M  V30 60 1 56 22
M  V30 61 1 57 28
M  V30 62 1 58 30
M  V30 63 1 59 30
M  V30 END BOND
M  V30 END CTAB
M  END
>  <i_epik_Tot_Q>  (1) 
0

>  <i_epik_Tot_abs_Q>  (1) 
0

>  <i_i_glide_confnum>  (1) 
105

>  <i_i_glide_lignum>  (1) 
69

>  <i_i_glide_posenum>  (1) 
240

>  <i_i_glide_rotatable_bonds>  (1) 
6

>  <i_lp_mmshare_version>  (1) 
72125

>  <i_m_source_file_index>  (1) 
23

>  <i_f3d_flags>  (1) 
0

>  <num_sample>  (1) 
50

>  <b_lp_Chiralities_Consistent>  (1) 
1

>  <r_epik_Charging_Adjusted_Penalty>  (1) 
0

>  <r_epik_Ionization_Penalty>  (1) 
0.00052212265616106849

>  <r_epik_Ionization_Penalty_Charging>  (1) 
0

>  <r_epik_Ionization_Penalty_Neutral>  (1) 
0.00052212265616106849

>  <r_epik_State_Penalty>  (1) 
-0

>  <r_glide_ring_energy>  (1) 
1.9780561898571851

>  <r_i_docking_score>  (1) 
-3.0806461149587454

>  <r_i_glide_ecoul>  (1) 
-0.27135419280001799

>  <r_i_glide_eff_state_penalty>  (1) 
-0

>  <r_i_glide_einternal>  (1) 
9.0089440334973716

>  <r_i_glide_emodel>  (1) 
-25.160914705358511

>  <r_i_glide_emodel_strain>  (1) 
0.15932231924463736

>  <r_i_glide_energy>  (1) 
-24.903301560459013

>  <r_i_glide_erotb>  (1) 
0.43006818046137463

>  <r_i_glide_esite>  (1) 
0

>  <r_i_glide_evdw>  (1) 
-24.631947367658995

>  <r_i_glide_gscore>  (1) 
-3.0806461149587454

>  <r_i_glide_gscore_strain>  (1) 
0

>  <r_i_glide_hbond>  (1) 
0

>  <r_i_glide_ligand_efficiency>  (1) 
-0.10268820383195817

>  <r_i_glide_ligand_efficiency_ln>  (1) 
-0.69995636364650127

>  <r_i_glide_ligand_efficiency_sa>  (1) 
-0.31907612492467613

>  <r_i_glide_lipo>  (1) 
-1.3622185219710328

>  <r_i_glide_metal>  (1) 
-0

>  <r_i_glide_rewards>  (1) 
-0.87619527614613468

>  <r_lp_Energy>  (1) 
30.166556

>  <r_lp_tautomer_probability>  (1) 
1

>  <s_epik_Chemistry_Notes>  (1) 
This compound has an imine and may undergo hydrolysis.

>  <s_epik_cmdline>  (1) 
J2VwaWtfcHl0aG9uJywgJy1waHQnLCAnMS4wJywgJy1waCcsICc3LjQnLCAnLXRuJywgJzgnLCAnLW1hJywgJzUwMCcsICctaW1hZScsICc8aW5maWxlLm1hZT4nLCAnLW9tYWUnLCAnPG91dGZpbGUubWFlPic=

>  <s_epik_input>  (1) 
W0NIMl0xQyhDbCk9TltDQEhdKFtDSDJdMilbQ0BAXTEyTihbQ0hdPU8pW0NASF0oW0NIMl1bQ0gyXVtDSDJdMylbQ0gyXVtDQEBIXTNbQ0BIXShbQ0gyXVtDSDJdNClDKFtDSDJdRik9TltDQEhdNGM1W2NIXVtjSF1bY0hdW2NIXVtjSF01

>  <s_glide_docking_method>  (1) 
confgen

>  <s_i_glide_gridfile>  (1) 
gpcr_drd2_6luq_protein_autoprepared_prepared

>  <s_lp_Force_Field>  (1) 
S-OPLS

>  <s_lp_Variant>  (1) 
DiffSBDD_22-1

>  <s_m_source_file>  (1) 
generated_generic_title2_ligand_DiffSBDD_2026-06-23_prepared.sdf

>  <GenAI_Model>  (1) 
DiffSBDD

>  <Protein>  (1) 
generic_title2

$$$$
DiffSBDD_24
     RDKit          3D

  0  0  0  0  0  0  0  0  0  0999 V3000
M  V30 BEGIN CTAB
M  V30 COUNTS 79 83 0 0 1
M  V30 BEGIN ATOM
M  V30 1 C 7.469338 -4.505281 -18.689001 0 CFG=2
M  V30 2 C 8.164721 5.187595 -19.432525 0
M  V30 3 C 7.234169 -5.691848 -17.736728 0
M  V30 4 C 9.750904 7.185849 -11.444302 0
M  V30 5 C 5.172132 -0.696229 -18.404545 0
M  V30 6 C 8.813735 5.458239 -9.425485 0
M  V30 7 C 9.892154 6.334684 -9.159639 0
M  V30 8 O 8.042514 5.107642 -13.712676 0
M  V30 9 C 6.933521 5.577621 -15.825579 0
M  V30 10 C 5.912076 7.235125 -14.226197 0
M  V30 11 C 11.241340 8.977313 -8.911159 0
M  V30 12 C 6.974712 5.592544 -17.234358 0
M  V30 13 C 7.398073 3.993515 -20.047602 0
M  V30 14 N 7.610835 1.514074 -20.121842 0
M  V30 15 O 10.487061 6.348293 -7.920215 0
M  V30 16 O 8.575541 -4.826548 -19.505080 0
M  V30 17 C 7.758185 -3.176424 -17.964082 0
M  V30 18 C 8.066909 5.145323 -15.090099 0
M  V30 19 C 8.200746 5.457176 -10.690408 0
M  V30 20 C 5.672912 6.015554 -15.110493 0
M  V30 21 O 7.581677 -0.711196 -18.281881 0
M  V30 22 C 9.262733 4.751287 -17.184995 0
M  V30 23 C 8.660061 6.328242 -11.696353 0
M  V30 24 C 9.587758 6.444234 -6.823985 0
M  V30 25 C 6.169197 1.346854 -19.885323 0 CFG=1
M  V30 26 C 9.227356 4.734277 -15.776407 0
M  V30 27 O 9.456800 2.790247 -20.379833 0
M  V30 28 C 8.244088 2.707924 -20.195799 0
M  V30 29 C 5.879242 -5.651523 -17.017886 0
M  V30 30 C 7.970400 6.362745 -13.041193 0 CFG=2
M  V30 31 O 11.429498 8.034904 -9.953132 0
M  V30 32 O 5.385016 1.957821 -20.899339 0
M  V30 33 C 5.705580 -0.105341 -19.774716 0 CFG=1
M  V30 34 O 4.175175 -1.683493 -18.410537 0
M  V30 35 O 5.377949 -0.009617 -17.189727 0
M  V30 36 C 8.135364 5.178102 -17.914041 0
M  V30 37 C 6.523791 6.842309 -12.885788 0
M  V30 38 C 7.704531 -1.976213 -18.885453 0 CFG=2
M  V30 39 C 10.367884 7.192913 -10.181648 0
M  V30 40 C 6.422841 -1.176564 -19.030892 0 CFG=2
M  V30 41 H 6.600885 -4.387856 -19.339033 0
M  V30 42 H 7.698514 6.116776 -19.761231 0
M  V30 43 H 9.194031 5.243275 -19.788778 0
M  V30 44 H 7.282812 -6.621616 -18.305343 0
M  V30 45 H 8.037633 -5.735823 -17.002457 0
M  V30 46 H 10.107001 7.848470 -12.218875 0
M  V30 47 H 8.452213 4.793503 -8.658388 0
M  V30 48 H 4.975227 7.738932 -14.026957 0
M  V30 49 H 6.525942 7.971752 -14.747309 0
M  V30 50 H 11.725604 9.913848 -9.186662 0
M  V30 51 H 11.689591 8.636507 -7.978800 0
M  V30 52 H 10.182933 9.184978 -8.742327 0
M  V30 53 H 6.110788 5.918100 -17.796156 0
M  V30 54 H 7.094761 4.263973 -21.059881 0
M  V30 55 H 6.479524 3.859317 -19.481036 0
M  V30 56 H 8.163037 0.674505 -20.217169 0
M  V30 57 H 9.300020 -5.058293 -18.945972 0
M  V30 58 H 7.015287 -3.015750 -17.185586 0
M  V30 59 H 8.725081 -3.200577 -17.459676 0
M  V30 60 H 7.367288 4.798718 -10.884629 0
M  V30 61 H 4.915211 6.257708 -15.856161 0
M  V30 62 H 5.275501 5.185471 -14.527523 0
M  V30 63 H 10.153907 4.431625 -17.705550 0
M  V30 64 H 10.152878 6.490952 -5.894004 0
M  V30 65 H 8.916444 5.590531 -6.760018 0
M  V30 66 H 8.984564 7.350026 -6.897842 0
M  V30 67 H 5.926288 1.827188 -18.937895 0
M  V30 68 H 10.090493 4.396137 -15.220961 0
M  V30 69 H 5.742036 -6.529277 -16.385847 0
M  V30 70 H 5.056658 -5.633735 -17.731608 0
M  V30 71 H 5.783988 -4.770609 -16.385055 0
M  V30 72 H 8.493388 7.127234 -13.597756 0
M  V30 73 H 4.859093 1.295301 -21.329063 0
M  V30 74 H 5.237119 -0.481185 -20.683189 0
M  V30 75 H 3.331396 -1.255478 -18.339915 0
M  V30 76 H 6.217438 -0.291154 -16.851352 0
M  V30 77 H 6.512721 7.719858 -12.237303 0
M  V30 78 H 5.913789 6.089172 -12.384032 0
M  V30 79 H 8.379008 -1.998130 -19.740461 0
M  V30 END ATOM
M  V30 BEGIN BOND
M  V30 1 1 3 1
M  V30 2 1 7 6
M  V30 3 1 12 9
M  V30 4 1 13 2
M  V30 5 1 15 7
M  V30 6 1 16 1
M  V30 7 1 17 1
M  V30 8 1 18 8
M  V30 9 2 18 9
M  V30 10 2 19 6
M  V30 11 1 20 9
M  V30 12 1 20 10
M  V30 13 2 23 4
M  V30 14 1 23 19
M  V30 15 1 24 15
M  V30 16 1 25 14
M  V30 17 1 26 18
M  V30 18 2 26 22
M  V30 19 1 28 13
M  V30 20 1 28 14
M  V30 21 2 28 27
M  V30 22 1 29 3
M  V30 23 1 30 8
M  V30 24 1 30 23
M  V30 25 1 31 11
M  V30 26 1 32 25
M  V30 27 1 33 5
M  V30 28 1 33 25
M  V30 29 1 34 5
M  V30 30 1 35 5
M  V30 31 1 36 2
M  V30 32 2 36 12
M  V30 33 1 36 22
M  V30 34 1 37 10
M  V30 35 1 37 30
M  V30 36 1 38 17
M  V30 37 1 38 21
M  V30 38 1 39 4
M  V30 39 2 39 7
M  V30 40 1 39 31
M  V30 41 1 40 5
M  V30 42 1 40 21 CFG=1
M  V30 43 1 40 33
M  V30 44 1 40 38
M  V30 45 1 1 41 CFG=3
M  V30 46 1 42 2
M  V30 47 1 43 2
M  V30 48 1 44 3
M  V30 49 1 45 3
M  V30 50 1 46 4
M  V30 51 1 47 6
M  V30 52 1 48 10
M  V30 53 1 49 10
M  V30 54 1 50 11
M  V30 55 1 51 11
M  V30 56 1 52 11
M  V30 57 1 53 12
M  V30 58 1 54 13
M  V30 59 1 55 13
M  V30 60 1 56 14
M  V30 61 1 57 16
M  V30 62 1 58 17
M  V30 63 1 59 17
M  V30 64 1 60 19
M  V30 65 1 61 20
M  V30 66 1 62 20
M  V30 67 1 63 22
M  V30 68 1 64 24
M  V30 69 1 65 24
M  V30 70 1 66 24
M  V30 71 1 25 67 CFG=1
M  V30 72 1 68 26
M  V30 73 1 69 29
M  V30 74 1 70 29
M  V30 75 1 71 29
M  V30 76 1 30 72 CFG=3
M  V30 77 1 73 32
M  V30 78 1 33 74 CFG=3
M  V30 79 1 75 34
M  V30 80 1 76 35
M  V30 81 1 77 37
M  V30 82 1 78 37
M  V30 83 1 38 79 CFG=3
M  V30 END BOND
M  V30 END CTAB
M  END
>  <i_epik_Tot_Q>  (1) 
0

>  <i_epik_Tot_abs_Q>  (1) 
0

>  <i_i_glide_confnum>  (1) 
1176

>  <i_i_glide_lignum>  (1) 
71

>  <i_i_glide_posenum>  (1) 
187

>  <i_i_glide_rotatable_bonds>  (1) 
16

>  <i_lp_mmshare_version>  (1) 
72125

>  <i_m_source_file_index>  (1) 
25

>  <i_f3d_flags>  (1) 
0

>  <num_sample>  (1) 
50

>  <b_lp_Chiralities_Consistent>  (1) 
1

>  <r_epik_Charging_Adjusted_Penalty>  (1) 
0

>  <r_epik_Ionization_Penalty>  (1) 
7.7966095074424399e-05

>  <r_epik_Ionization_Penalty_Charging>  (1) 
0

>  <r_epik_Ionization_Penalty_Neutral>  (1) 
7.7966095074424399e-05

>  <r_epik_State_Penalty>  (1) 
-0

>  <r_glide_ring_energy>  (1) 
0

>  <r_i_docking_score>  (1) 
-3.0794074108052985

>  <r_i_glide_ecoul>  (1) 
-4.5658762708149325

>  <r_i_glide_eff_state_penalty>  (1) 
-0

>  <r_i_glide_einternal>  (1) 
15.80777478519747

>  <r_i_glide_emodel>  (1) 
-44.34530879475161

>  <r_i_glide_emodel_strain>  (1) 
1.694811233624165

>  <r_i_glide_energy>  (1) 
-46.270685252441375

>  <r_i_glide_erotb>  (1) 
0.5242298981819471

>  <r_i_glide_esite>  (1) 
0

>  <r_i_glide_evdw>  (1) 
-41.704808981626442

>  <r_i_glide_gscore>  (1) 
-3.0794074108052985

>  <r_i_glide_gscore_strain>  (1) 
0

>  <r_i_glide_hbond>  (1) 
-0.36264821174064055

>  <r_i_glide_ligand_efficiency>  (1) 
-0.076985185270132456

>  <r_i_glide_ligand_efficiency_ln>  (1) 
-0.65674697781012126

>  <r_i_glide_ligand_efficiency_sa>  (1) 
-0.26328563012475137

>  <r_i_glide_lipo>  (1) 
-1.0867707510028286

>  <r_i_glide_metal>  (1) 
-0

>  <r_i_glide_rewards>  (1) 
0.61590354345978526

>  <r_lp_Energy>  (1) 
27.684539999999998

>  <r_lp_tautomer_probability>  (1) 
1

>  <s_epik_Chemistry_Notes>  (1) 
This compound contains an acetal/aminal-like group ( X-CH(R)-Y where X, Y are N, S, or O) that may be acid/base labile, releasing an aldehyde.

>  <s_epik_cmdline>  (1) 
J2VwaWtfcHl0aG9uJywgJy1waHQnLCAnMS4wJywgJy1waCcsICc3LjQnLCAnLXRuJywgJzgnLCAnLW1hJywgJzUwMCcsICctaW1hZScsICc8aW5maWxlLm1hZT4nLCAnLW9tYWUnLCAnPG91dGZpbGUubWFlPic=

>  <s_epik_input>  (1) 
W0NIM11bQ0gyXVtDQEhdKFtPSF0pW0NIMl1bQ0BASF0xT1tDQF0xMkMoW09IXSkoW09IXSlbQ0BIXTJbQ0BIXShbT0hdKVtOSF1DKD1PKVtDSDJdW0NIMl1jKFtjSF0zKVtjSF1bY0hdYyhjMzQpT1tDQEBIXShbQ0gyXVtDSDJdW0NIMl00KWMoW2NIXWM1T1tDSDNdKVtjSF1bY0hdYzVPW0NIM10=

>  <s_glide_docking_method>  (1) 
confgen

>  <s_i_glide_gridfile>  (1) 
gpcr_drd2_6luq_protein_autoprepared_prepared

>  <s_lp_Force_Field>  (1) 
S-OPLS

>  <s_lp_Variant>  (1) 
DiffSBDD_24-1

>  <s_m_source_file>  (1) 
generated_generic_title2_ligand_DiffSBDD_2026-06-23_prepared.sdf

>  <GenAI_Model>  (1) 
DiffSBDD

>  <Protein>  (1) 
generic_title2

$$$$
DiffSBDD_26
     RDKit          3D

  0  0  0  0  0  0  0  0  0  0999 V3000
M  V30 BEGIN CTAB
M  V30 COUNTS 76 80 0 0 1
M  V30 BEGIN ATOM
M  V30 1 C 9.664170 7.551440 -10.217897 0
M  V30 2 C 15.503262 3.307257 -20.109730 0
M  V30 3 O 5.420599 5.989677 -11.184963 0
M  V30 4 C 8.975475 8.692225 -10.977336 0
M  V30 5 N 9.605434 2.858109 -18.485808 0
M  V30 6 C 11.107275 7.942208 -9.874931 0
M  V30 7 F 16.524958 4.019405 -20.612223 0
M  V30 8 C 11.951537 2.917207 -20.648258 0
M  V30 9 C 8.090764 4.636705 -19.168784 0 CFG=1
M  V30 10 C 7.146668 2.858020 -17.731718 0
M  V30 11 C 14.288395 3.459267 -20.642473 0
M  V30 12 C 11.291498 0.375123 -18.495286 0
M  V30 13 C 8.606255 2.317166 -17.541693 0
M  V30 14 C 7.584468 5.846612 -12.034325 0 CFG=1
M  V30 15 C 7.096982 5.612849 -14.444001 0
M  V30 16 C 9.363111 4.225076 -11.834597 0
M  V30 17 O 6.399076 5.095679 -11.793076 0
M  V30 18 C 8.260244 4.957076 -9.665641 0
M  V30 19 C 6.550005 6.827885 -17.561172 0
M  V30 20 C 10.159243 0.643231 -19.498362 0
M  V30 21 C 6.748533 5.409127 -17.010273 0 CFG=2
M  V30 22 C 7.725272 5.339590 -15.820543 0
M  V30 23 C 8.720280 5.406293 -11.070947 0 CFG=2
M  V30 24 C 14.743395 1.632203 -18.461773 0
M  V30 25 C 10.643394 2.886003 -20.761998 0
M  V30 26 C 6.998532 4.362326 -18.145878 0 CFG=1
M  V30 27 O 9.775426 6.377248 -11.015452 0
M  V30 28 C 9.745984 2.135117 -19.764964 0 CFG=2
M  V30 29 C 13.373304 1.782673 -19.067697 0
M  V30 30 C 9.371211 5.433946 -19.354976 0
M  V30 31 C 9.378063 4.298523 -18.399769 0 CFG=2
M  V30 32 C 13.156692 2.734395 -20.150561 0
M  V30 33 O 15.003683 0.865389 -17.530393 0
M  V30 34 C 8.664455 4.190806 -13.190167 0
M  V30 35 C 12.446208 0.992581 -18.563764 0
M  V30 36 O 15.701330 2.441671 -19.058073 0
M  V30 37 N 8.063541 5.495069 -13.356536 0
M  V30 38 H 9.158302 7.367464 -9.273133 0
M  V30 39 H 5.812498 6.146020 -10.333349 0
M  V30 40 H 8.975402 9.589735 -10.361810 0
M  V30 41 H 9.451768 8.853800 -11.943530 0
M  V30 42 H 7.924100 8.545774 -11.185016 0
M  V30 43 H 11.140547 8.867667 -9.299719 0
M  V30 44 H 11.591238 7.165447 -9.282753 0
M  V30 45 H 11.699869 8.086185 -10.779145 0
M  V30 46 H 7.863095 4.109846 -20.092993 0
M  V30 47 H 6.575428 2.641883 -16.831178 0
M  V30 48 H 6.688185 2.256076 -18.517088 0
M  V30 49 H 14.156996 4.150602 -21.462997 0
M  V30 50 H 11.122113 -0.409916 -17.773653 0
M  V30 51 H 8.956119 2.578123 -16.544042 0
M  V30 52 H 8.594075 1.229672 -17.529740 0
M  V30 53 H 7.348498 6.899143 -12.019364 0
M  V30 54 H 6.266500 4.925570 -14.278837 0
M  V30 55 H 6.673488 6.617424 -14.437394 0
M  V30 56 H 9.252681 3.269670 -11.321751 0
M  V30 57 H 10.430588 4.390215 -11.984398 0
M  V30 58 H 7.536014 4.145924 -9.731535 0
M  V30 59 H 9.105162 4.602479 -9.074741 0
M  V30 60 H 7.774485 5.747133 -9.101209 0
M  V30 61 H 7.418472 7.183822 -18.107331 0
M  V30 62 H 5.704340 6.862273 -18.249186 0
M  V30 63 H 6.343372 7.540061 -16.762427 0
M  V30 64 H 9.289719 0.079887 -19.161529 0
M  V30 65 H 10.429386 0.168248 -20.442796 0
M  V30 66 H 5.775617 5.190228 -16.582295 0
M  V30 67 H 8.581927 5.990167 -15.980854 0
M  V30 68 H 8.125045 4.336169 -15.767674 0
M  V30 69 H 10.138118 3.464365 -21.520923 0
M  V30 70 H 6.073761 4.400955 -18.724024 0
M  V30 71 H 8.766040 2.098401 -20.241709 0
M  V30 72 H 9.402375 6.434705 -18.931414 0
M  V30 73 H 9.900226 5.342927 -20.297773 0
M  V30 74 H 9.555584 4.714292 -17.414974 0
M  V30 75 H 7.900913 3.411514 -13.199493 0
M  V30 76 H 9.375398 3.990230 -13.987062 0
M  V30 END ATOM
M  V30 BEGIN BOND
M  V30 1 1 4 1
M  V30 2 1 6 1
M  V30 3 1 7 2
M  V30 4 2 11 2
M  V30 5 1 13 5
M  V30 6 1 13 10
M  V30 7 1 17 3
M  V30 8 1 17 14
M  V30 9 1 20 12
M  V30 10 1 21 19
M  V30 11 1 22 15
M  V30 12 1 22 21
M  V30 13 1 23 14
M  V30 14 1 23 16
M  V30 15 1 23 18
M  V30 16 2 25 8
M  V30 17 1 26 9
M  V30 18 1 26 10
M  V30 19 1 26 21
M  V30 20 1 27 1
M  V30 21 1 23 27 CFG=1
M  V30 22 1 28 5
M  V30 23 1 28 20
M  V30 24 1 28 25
M  V30 25 1 29 24
M  V30 26 1 30 9
M  V30 27 1 31 5
M  V30 28 1 31 9
M  V30 29 1 31 30
M  V30 30 2 32 8
M  V30 31 1 32 11
M  V30 32 1 32 29
M  V30 33 2 33 24
M  V30 34 1 34 16
M  V30 35 2 35 12
M  V30 36 2 35 29
M  V30 37 1 36 2
M  V30 38 1 36 24
M  V30 39 1 37 14
M  V30 40 1 37 15
M  V30 41 1 37 34
M  V30 42 1 38 1
M  V30 43 1 39 3
M  V30 44 1 40 4
M  V30 45 1 41 4
M  V30 46 1 42 4
M  V30 47 1 43 6
M  V30 48 1 44 6
M  V30 49 1 45 6
M  V30 50 1 9 46 CFG=3
M  V30 51 1 47 10
M  V30 52 1 48 10
M  V30 53 1 49 11
M  V30 54 1 50 12
M  V30 55 1 51 13
M  V30 56 1 52 13
M  V30 57 1 14 53 CFG=3
M  V30 58 1 54 15
M  V30 59 1 55 15
M  V30 60 1 56 16
M  V30 61 1 57 16
M  V30 62 1 58 18
M  V30 63 1 59 18
M  V30 64 1 60 18
M  V30 65 1 61 19
M  V30 66 1 62 19
M  V30 67 1 63 19
M  V30 68 1 64 20
M  V30 69 1 65 20
M  V30 70 1 21 66 CFG=1
M  V30 71 1 67 22
M  V30 72 1 68 22
M  V30 73 1 69 25
M  V30 74 1 26 70 CFG=3
M  V30 75 1 28 71 CFG=3
M  V30 76 1 72 30
M  V30 77 1 73 30
M  V30 78 1 31 74 CFG=1
M  V30 79 1 75 34
M  V30 80 1 76 34
M  V30 END BOND
M  V30 END CTAB
M  END
>  <i_epik_Tot_Q>  (1) 
0

>  <i_epik_Tot_abs_Q>  (1) 
0

>  <i_i_glide_confnum>  (1) 
260

>  <i_i_glide_lignum>  (1) 
76

>  <i_i_glide_posenum>  (1) 
393

>  <i_i_glide_rotatable_bonds>  (1) 
9

>  <i_lp_mmshare_version>  (1) 
72125

>  <i_m_source_file_index>  (1) 
27

>  <i_f3d_flags>  (1) 
0

>  <num_sample>  (1) 
50

>  <b_lp_Chiralities_Consistent>  (1) 
1

>  <r_epik_Charging_Adjusted_Penalty>  (1) 
0

>  <r_epik_Ionization_Penalty>  (1) 
0.071693018493777738

>  <r_epik_Ionization_Penalty_Charging>  (1) 
0

>  <r_epik_Ionization_Penalty_Neutral>  (1) 
0.071693018493777738

>  <r_epik_State_Penalty>  (1) 
-0

>  <r_glide_ring_energy>  (1) 
1.2337109712795384

>  <r_i_docking_score>  (1) 
-3.0715891876834833

>  <r_i_glide_ecoul>  (1) 
-3.406557908354384

>  <r_i_glide_eff_state_penalty>  (1) 
-0

>  <r_i_glide_einternal>  (1) 
9.6409634666486763

>  <r_i_glide_emodel>  (1) 
-30.336083060103917

>  <r_i_glide_emodel_strain>  (1) 
1.8663423494734559

>  <r_i_glide_energy>  (1) 
-31.97620615810153

>  <r_i_glide_erotb>  (1) 
0.54216957858083481

>  <r_i_glide_esite>  (1) 
-0.1367460889127326

>  <r_i_glide_evdw>  (1) 
-28.569648249747146

>  <r_i_glide_gscore>  (1) 
-3.0715891876834833

>  <r_i_glide_gscore_strain>  (1) 
0

>  <r_i_glide_hbond>  (1) 
-0.06813169736083366

>  <r_i_glide_ligand_efficiency>  (1) 
-0.0830159239914455

>  <r_i_glide_ligand_efficiency_ln>  (1) 
-0.66615568654138513

>  <r_i_glide_ligand_efficiency_sa>  (1) 
-0.27662747595887427

>  <r_i_glide_lipo>  (1) 
-1.423133728080753

>  <r_i_glide_metal>  (1) 
-0

>  <r_i_glide_rewards>  (1) 
-0.046281153169484085

>  <r_lp_Energy>  (1) 
45.427697999999999

>  <r_lp_tautomer_probability>  (1) 
1

>  <s_epik_Chemistry_Notes>  (1) 
This compound contains an acetal/aminal-like group ( X-CH(R)-Y where X, Y are N, S, or O) that may be acid/base labile, releasing an aldehyde.

>  <s_epik_cmdline>  (1) 
J2VwaWtfcHl0aG9uJywgJy1waHQnLCAnMS4wJywgJy1waCcsICc3LjQnLCAnLXRuJywgJzgnLCAnLW1hJywgJzUwMCcsICctaW1hZScsICc8aW5maWxlLm1hZT4nLCAnLW9tYWUnLCAnPG91dGZpbGUubWFlPic=

>  <s_epik_input>  (1) 
W0NIM11bQ0hdKFtDSDNdKU9bQ0BAXTEoW0NIM10pW0NASF0oT1tPSF0pTihbQ0gyXVtDSDJdMSlbQ0gyXVtDSDJdW0NAQEhdKFtDSDNdKVtDQEBIXTJbQ0gyXVtDSDJdTihbQ0BIXShbQ0BASF0yMylbQ0gyXTMpW0NASF0oW0NIMl1bQ0hdPUM0KVtDSF09Qz1jKGM9NDUpW2NIXWMoRilvYzU9Tw==

>  <s_glide_docking_method>  (1) 
confgen

>  <s_i_glide_gridfile>  (1) 
gpcr_drd2_6luq_protein_autoprepared_prepared

>  <s_lp_Force_Field>  (1) 
S-OPLS

>  <s_lp_Variant>  (1) 
DiffSBDD_26-1

>  <s_m_source_file>  (1) 
generated_generic_title2_ligand_DiffSBDD_2026-06-23_prepared.sdf

>  <GenAI_Model>  (1) 
DiffSBDD

>  <Protein>  (1) 
generic_title2

$$$$
DiffSBDD_35
     RDKit          3D

  0  0  0  0  0  0  0  0  0  0999 V3000
M  V30 BEGIN CTAB
M  V30 COUNTS 81 86 0 0 1
M  V30 BEGIN ATOM
M  V30 1 C 14.244996 3.021152 -19.749492 0
M  V30 2 O 14.217628 5.404160 -19.438117 0
M  V30 3 C 7.723692 -0.156722 -18.664190 0
M  V30 4 C 7.432997 4.975479 -13.287500 0
M  V30 5 O 15.115568 2.260837 -19.318047 0
M  V30 6 C 6.771256 2.835135 -13.461988 0
M  V30 7 C 7.673261 4.559138 -14.507209 0
M  V30 8 C 7.716601 1.306312 -19.146380 0
M  V30 9 C 10.490771 3.539974 -19.515821 0
M  V30 10 C 6.422023 0.066684 -16.408339 0
M  V30 11 C 18.069314 5.484496 -18.554685 0
M  V30 12 F 7.735473 6.221413 -12.888929 0
M  V30 13 C 13.033114 5.912528 -23.434770 0
M  V30 14 O 9.495625 3.852450 -16.683625 0
M  V30 15 C 14.162755 4.561531 -21.796403 0
M  V30 16 N 14.000988 5.806589 -22.325346 0
M  V30 17 C 12.471958 1.409229 -19.100348 0
M  V30 18 C 6.757512 3.970395 -12.356363 0
M  V30 19 C 17.967541 6.098019 -19.969308 0 CFG=2
M  V30 20 N 12.901237 2.701796 -19.684909 0
M  V30 21 C 6.943940 1.235548 -16.112545 0
M  V30 22 O 17.955600 8.327534 -20.972419 0
M  V30 23 F 5.066981 1.154648 -13.593807 0
M  V30 24 O 7.295960 4.158006 -17.932685 0
M  V30 25 N 8.749564 2.087745 -18.441332 0
M  V30 26 F 7.138853 0.471047 -13.505819 0
M  V30 27 C 14.671382 4.415469 -20.369347 0 CFG=2
M  V30 28 C 10.072624 2.125847 -19.108501 0
M  V30 29 C 18.413431 7.570779 -19.875223 0
M  V30 30 O 14.023661 8.076365 -22.204307 0
M  V30 31 C 16.594104 5.920391 -20.651490 0
M  V30 32 S 8.270315 3.283395 -17.262023 0
M  V30 33 F 6.175409 1.191234 -11.831596 0
M  V30 34 C 16.126167 4.503787 -20.704835 0
M  V30 35 C 15.913107 7.020406 -21.134046 0
M  V30 36 C 6.541534 4.018948 -10.850398 0
M  V30 37 C 5.486852 4.545314 -11.784271 0
M  V30 38 C 7.274906 3.243293 -14.646660 0
M  V30 39 C 6.513271 -0.557326 -17.796162 0
M  V30 40 C 14.565399 7.016175 -21.882689 0
M  V30 41 O 13.823427 3.547688 -22.418608 0
M  V30 42 C 6.276718 1.408075 -13.117230 0
M  V30 43 C 11.184336 1.509964 -18.258093 0
M  V30 44 C 11.821607 3.560186 -20.259828 0
M  V30 45 C 7.395785 2.449285 -15.893657 0
M  V30 46 C 16.541520 8.401039 -20.977907 0
M  V30 47 H 13.287317 5.298592 -19.306931 0
M  V30 48 H 7.712488 -0.793827 -19.547641 0
M  V30 49 H 8.655691 -0.407403 -18.153020 0
M  V30 50 H 8.125260 5.162036 -15.276311 0
M  V30 51 H 6.735656 1.762898 -18.997340 0
M  V30 52 H 7.887049 1.343533 -20.223733 0
M  V30 53 H 9.712066 3.995888 -20.128481 0
M  V30 54 H 10.624888 4.201784 -18.667204 0
M  V30 55 H 5.858704 -0.488410 -15.670860 0
M  V30 56 H 18.164733 4.400977 -18.576402 0
M  V30 57 H 18.954653 5.850981 -18.030269 0
M  V30 58 H 17.199269 5.736811 -17.946127 0
M  V30 59 H 13.221139 6.768575 -24.080137 0
M  V30 60 H 13.009251 5.038277 -24.082687 0
M  V30 61 H 12.028776 6.035719 -23.026938 0
M  V30 62 H 12.315243 0.707088 -19.920268 0
M  V30 63 H 13.242842 0.962658 -18.470043 0
M  V30 64 H 18.680819 5.579686 -20.612362 0
M  V30 65 H 10.017291 1.531869 -20.023607 0
M  V30 66 H 18.048202 8.027574 -18.954472 0
M  V30 67 H 19.500960 7.627958 -19.841038 0
M  V30 68 H 16.688901 3.917753 -19.988821 0
M  V30 69 H 16.458944 4.060006 -21.651021 0
M  V30 70 H 6.172124 3.190085 -10.260709 0
M  V30 71 H 7.116261 4.753902 -10.288091 0
M  V30 72 H 5.370234 5.627152 -11.815127 0
M  V30 73 H 4.576820 3.990230 -11.974117 0
M  V30 74 H 5.587064 -0.338026 -18.332193 0
M  V30 75 H 6.535222 -1.640114 -17.664053 0
M  V30 76 H 10.890332 0.515207 -17.921020 0
M  V30 77 H 11.366407 2.098561 -17.356970 0
M  V30 78 H 12.053265 4.618657 -20.326969 0
M  V30 79 H 11.623880 3.206320 -21.272184 0
M  V30 80 H 16.275396 9.051808 -21.810684 0
M  V30 81 H 16.165333 8.879938 -20.072649 0
M  V30 END ATOM
M  V30 BEGIN BOND
M  V30 1 2 5 1
M  V30 2 2 7 4
M  V30 3 1 8 3
M  V30 4 1 12 4
M  V30 5 1 16 13
M  V30 6 1 16 15
M  V30 7 1 18 4
M  V30 8 1 18 6
M  V30 9 1 19 11
M  V30 10 1 20 1
M  V30 11 1 20 17
M  V30 12 2 21 10
M  V30 13 1 25 8
M  V30 14 1 27 1
M  V30 15 1 27 2 CFG=1
M  V30 16 1 27 15
M  V30 17 1 28 9
M  V30 18 1 28 25
M  V30 19 1 29 19
M  V30 20 1 29 22
M  V30 21 1 31 19
M  V30 22 2 32 14
M  V30 23 2 32 24
M  V30 24 1 32 25
M  V30 25 1 34 27
M  V30 26 1 34 31
M  V30 27 2 35 31
M  V30 28 1 36 18
M  V30 29 1 37 18
M  V30 30 1 37 36
M  V30 31 2 38 6
M  V30 32 1 38 7
M  V30 33 1 39 3
M  V30 34 1 39 10
M  V30 35 1 40 16
M  V30 36 2 40 30
M  V30 37 1 40 35
M  V30 38 2 41 15
M  V30 39 1 42 6
M  V30 40 1 42 23
M  V30 41 1 42 26
M  V30 42 1 42 33
M  V30 43 1 43 17
M  V30 44 1 43 28
M  V30 45 1 44 9
M  V30 46 1 44 20
M  V30 47 2 45 21
M  V30 48 1 45 32
M  V30 49 1 45 38
M  V30 50 1 46 22
M  V30 51 1 46 35
M  V30 52 1 47 2
M  V30 53 1 48 3
M  V30 54 1 49 3
M  V30 55 1 50 7
M  V30 56 1 51 8
M  V30 57 1 52 8
M  V30 58 1 53 9
M  V30 59 1 54 9
M  V30 60 1 55 10
M  V30 61 1 56 11
M  V30 62 1 57 11
M  V30 63 1 58 11
M  V30 64 1 59 13
M  V30 65 1 60 13
M  V30 66 1 61 13
M  V30 67 1 62 17
M  V30 68 1 63 17
M  V30 69 1 19 64 CFG=3
M  V30 70 1 65 28
M  V30 71 1 66 29
M  V30 72 1 67 29
M  V30 73 1 68 34
M  V30 74 1 69 34
M  V30 75 1 70 36
M  V30 76 1 71 36
M  V30 77 1 72 37
M  V30 78 1 73 37
M  V30 79 1 74 39
M  V30 80 1 75 39
M  V30 81 1 76 43
M  V30 82 1 77 43
M  V30 83 1 78 44
M  V30 84 1 79 44
M  V30 85 1 80 46
M  V30 86 1 81 46
M  V30 END BOND
M  V30 END CTAB
M  END
>  <i_epik_Tot_Q>  (1) 
0

>  <i_epik_Tot_abs_Q>  (1) 
0

>  <i_i_glide_confnum>  (1) 
79

>  <i_i_glide_lignum>  (1) 
98

>  <i_i_glide_posenum>  (1) 
32

>  <i_i_glide_rotatable_bonds>  (1) 
6

>  <i_lp_mmshare_version>  (1) 
72125

>  <i_m_source_file_index>  (1) 
36

>  <i_f3d_flags>  (1) 
0

>  <num_sample>  (1) 
50

>  <b_lp_Chiralities_Consistent>  (1) 
1

>  <r_epik_Charging_Adjusted_Penalty>  (1) 
0.04028888123744899

>  <r_epik_Ionization_Penalty>  (1) 
0.040288881244714927

>  <r_epik_Ionization_Penalty_Charging>  (1) 
0

>  <r_epik_Ionization_Penalty_Neutral>  (1) 
0.040288881244714927

>  <r_epik_State_Penalty>  (1) 
0.04028888123744899

>  <r_glide_ring_energy>  (1) 
0

>  <r_i_docking_score>  (1) 
-3.0651621517257324

>  <r_i_glide_ecoul>  (1) 
-0.31366634299879698

>  <r_i_glide_eff_state_penalty>  (1) 
0.04028888123744899

>  <r_i_glide_einternal>  (1) 
10.887039549046907

>  <r_i_glide_emodel>  (1) 
-17.539418957769328

>  <r_i_glide_emodel_strain>  (1) 
6.6161837089671849

>  <r_i_glide_energy>  (1) 
-24.281202763185394

>  <r_i_glide_erotb>  (1) 
0.028804905803733735

>  <r_i_glide_esite>  (1) 
-0.029232795712814449

>  <r_i_glide_evdw>  (1) 
-23.967536420186597

>  <r_i_glide_gscore>  (1) 
-3.1054510329631815

>  <r_i_glide_gscore_strain>  (1) 
0.65404592724179622

>  <r_i_glide_hbond>  (1) 
0

>  <r_i_glide_ligand_efficiency>  (1) 
-0.066633959820124614

>  <r_i_glide_ligand_efficiency_ln>  (1) 
-0.63478769700197901

>  <r_i_glide_ligand_efficiency_sa>  (1) 
-0.23875266787085966

>  <r_i_glide_lipo>  (1) 
-1.4209740563788023

>  <r_i_glide_metal>  (1) 
-0

>  <r_i_glide_rewards>  (1) 
-1.0926682414579452

>  <r_lp_Energy>  (1) 
64.057782000000003

>  <s_epik_cmdline>  (1) 
J2VwaWtfcHl0aG9uJywgJy1waHQnLCAnMS4wJywgJy1waCcsICc3LjQnLCAnLXRuJywgJzgnLCAnLW1hJywgJzUwMCcsICctaW1hZScsICc8aW5maWxlLm1hZT4nLCAnLW9tYWUnLCAnPG91dGZpbGUubWFlPic=

>  <s_epik_input>  (1) 
W0NIM11bQ0BASF0xW0NIMl1PW0NIMl1DKD1DMTIpQyg9TylOKFtDSDNdKUMoPU8pW0NAXShbT0hdKShbQ0gyXTIpQyg9TylOM1tDSDJdW0NIMl1bQ0hdKFtDSDJdW0NIMl0zKU4oUzQoPU8pPU8pW0NIMl1bQ0gyXVtDSDJdW0NIXT1DPUM0Qyg9QzVDKEYpKEYpRilbQ0hdPUMoRilDNTZbQ0gyXVtDSDJdNg==

>  <s_glide_docking_method>  (1) 
confgen

>  <s_i_glide_gridfile>  (1) 
gpcr_drd2_6luq_protein_autoprepared_prepared

>  <s_lp_Force_Field>  (1) 
S-OPLS

>  <s_lp_Variant>  (1) 
DiffSBDD_35-1

>  <s_m_source_file>  (1) 
generated_generic_title2_ligand_DiffSBDD_2026-06-23_prepared.sdf

>  <GenAI_Model>  (1) 
DiffSBDD

>  <Protein>  (1) 
generic_title2

$$$$
DiffSBDD_18
     RDKit          3D

  0  0  0  0  0  0  0  0  0  0999 V3000
M  V30 BEGIN CTAB
M  V30 COUNTS 61 65 0 0 1
M  V30 BEGIN ATOM
M  V30 1 C 9.672799 2.833674 -23.433869 0
M  V30 2 C 11.207499 0.739181 -17.971979 0
M  V30 3 C 7.950652 4.301468 -20.834661 0 CFG=2
M  V30 4 C 7.929062 2.909244 -21.503218 0 CFG=2
M  V30 5 C 7.501301 0.656967 -17.129182 0 CFG=2
M  V30 6 C 6.269191 1.225534 -17.852411 0
M  V30 7 C 10.250710 1.608372 -18.806803 0 CFG=1
M  V30 8 C 9.366706 2.511076 -21.963905 0 CFG=1
M  V30 9 C 5.655287 5.196871 -21.595915 0
M  V30 10 O 8.053467 2.644776 -15.828490 0
M  V30 11 O 11.192000 2.436244 -19.456192 0
M  V30 12 C 5.428616 2.817541 -22.122844 0
M  V30 13 O 6.576052 3.139537 -13.981580 0
M  V30 14 S 9.384645 0.477881 -19.948957 0
M  V30 15 C 7.116994 -0.115877 -15.855617 0
M  V30 16 C 9.755157 1.050283 -21.643178 0
M  V30 17 C 6.876984 2.756601 -22.625916 0
M  V30 18 O 8.893203 4.303816 -19.751841 0
M  V30 19 C 7.968507 1.183784 -13.710991 0
M  V30 20 O 4.856134 4.120754 -22.072824 0
M  V30 21 C 6.567816 4.848311 -20.406961 0
M  V30 22 C 8.514969 3.691191 -18.519969 0 CFG=2
M  V30 23 C 7.368576 2.191666 -14.657118 0 CFG=2
M  V30 24 C 9.685229 3.918683 -17.602515 0
M  V30 25 C 9.270333 2.483927 -17.945511 0 CFG=2
M  V30 26 C 8.582949 1.710483 -16.780879 0 CFG=2
M  V30 27 C 6.839116 0.777813 -14.663862 0 CFG=1
M  V30 28 H 9.108011 2.177835 -24.090449 0
M  V30 29 H 9.428363 3.867976 -23.678660 0
M  V30 30 H 10.729594 2.682957 -23.656232 0
M  V30 31 H 11.725111 1.327850 -17.212911 0
M  V30 32 H 10.691106 -0.073422 -17.460212 0
M  V30 33 H 11.967590 0.269969 -18.598167 0
M  V30 34 H 8.362841 5.002665 -21.562204 0
M  V30 35 H 7.605850 2.230217 -20.722321 0
M  V30 36 H 7.931742 -0.092864 -17.787192 0
M  V30 37 H 5.775889 1.990016 -17.257819 0
M  V30 38 H 6.533211 1.667244 -18.809610 0
M  V30 39 H 5.535793 0.443279 -18.050224 0
M  V30 40 H 10.072607 3.145920 -21.442212 0
M  V30 41 H 4.965901 5.988519 -21.300984 0
M  V30 42 H 6.237863 5.606694 -22.421351 0
M  V30 43 H 10.787299 3.286389 -19.568823 0
M  V30 44 H 5.339613 2.340658 -21.146311 0
M  V30 45 H 4.799066 2.232298 -22.792160 0
M  V30 46 H 7.150317 3.736672 -13.525452 0
M  V30 47 H 6.246621 -0.747851 -16.037665 0
M  V30 48 H 7.926991 -0.795208 -15.584937 0
M  V30 49 H 9.237289 0.376267 -22.325823 0
M  V30 50 H 10.821153 0.907010 -21.821975 0
M  V30 51 H 7.010561 1.772292 -23.076688 0
M  V30 52 H 7.029446 3.478350 -23.428315 0
M  V30 53 H 8.999273 0.850899 -13.861316 0
M  V30 54 H 7.697636 1.256051 -12.660059 0
M  V30 55 H 6.048120 4.167225 -19.733313 0
M  V30 56 H 6.738303 5.763292 -19.839800 0
M  V30 57 H 7.552732 3.991984 -18.116308 0
M  V30 58 H 9.463806 4.329499 -16.621061 0
M  V30 59 H 10.585329 4.345180 -18.040221 0
M  V30 60 H 9.375191 1.189066 -16.271191 0
M  V30 61 H 5.867847 0.610194 -14.198276 0
M  V30 END ATOM
M  V30 BEGIN BOND
M  V30 1 1 4 3
M  V30 2 1 6 5
M  V30 3 1 7 2
M  V30 4 1 8 1
M  V30 5 1 8 4
M  V30 6 1 7 11 CFG=3
M  V30 7 1 14 7
M  V30 8 1 15 5
M  V30 9 1 16 8
M  V30 10 1 16 14
M  V30 11 1 17 4
M  V30 12 1 17 12
M  V30 13 1 18 3
M  V30 14 1 20 9
M  V30 15 1 20 12
M  V30 16 1 21 3
M  V30 17 1 21 9
M  V30 18 1 22 18
M  V30 19 1 23 10
M  V30 20 1 23 13 CFG=1
M  V30 21 1 23 19
M  V30 22 1 24 22
M  V30 23 1 25 7
M  V30 24 1 25 22
M  V30 25 1 25 24 CFG=1
M  V30 26 1 26 5
M  V30 27 1 26 10
M  V30 28 1 26 25
M  V30 29 1 27 15
M  V30 30 1 27 19
M  V30 31 1 27 23
M  V30 32 1 28 1
M  V30 33 1 29 1
M  V30 34 1 30 1
M  V30 35 1 31 2
M  V30 36 1 32 2
M  V30 37 1 33 2
M  V30 38 1 3 34 CFG=3
M  V30 39 1 4 35 CFG=1
M  V30 40 1 5 36 CFG=3
M  V30 41 1 37 6
M  V30 42 1 38 6
M  V30 43 1 39 6
M  V30 44 1 8 40 CFG=1
M  V30 45 1 41 9
M  V30 46 1 42 9
M  V30 47 1 43 11
M  V30 48 1 44 12
M  V30 49 1 45 12
M  V30 50 1 46 13
M  V30 51 1 47 15
M  V30 52 1 48 15
M  V30 53 1 49 16
M  V30 54 1 50 16
M  V30 55 1 51 17
M  V30 56 1 52 17
M  V30 57 1 53 19
M  V30 58 1 54 19
M  V30 59 1 55 21
M  V30 60 1 56 21
M  V30 61 1 22 57 CFG=1
M  V30 62 1 58 24
M  V30 63 1 59 24
M  V30 64 1 26 60 CFG=1
M  V30 65 1 27 61 CFG=1
M  V30 END BOND
M  V30 END CTAB
M  END
>  <i_epik_Tot_Q>  (1) 
0

>  <i_epik_Tot_abs_Q>  (1) 
0

>  <i_i_glide_confnum>  (1) 
3

>  <i_i_glide_lignum>  (1) 
61

>  <i_i_glide_posenum>  (1) 
334

>  <i_i_glide_rotatable_bonds>  (1) 
3

>  <i_lp_mmshare_version>  (1) 
72125

>  <i_m_source_file_index>  (1) 
19

>  <i_f3d_flags>  (1) 
0

>  <num_sample>  (1) 
50

>  <b_lp_Chiralities_Consistent>  (1) 
1

>  <r_epik_Charging_Adjusted_Penalty>  (1) 
0

>  <r_epik_Ionization_Penalty>  (1) 
6.7783705848961877e-07

>  <r_epik_Ionization_Penalty_Charging>  (1) 
0

>  <r_epik_Ionization_Penalty_Neutral>  (1) 
6.7783705848961877e-07

>  <r_epik_State_Penalty>  (1) 
-0

>  <r_glide_ring_energy>  (1) 
0

>  <r_i_docking_score>  (1) 
-3.0608494351526154

>  <r_i_glide_ecoul>  (1) 
-2.0287649745936949

>  <r_i_glide_eff_state_penalty>  (1) 
-0

>  <r_i_glide_einternal>  (1) 
0.26039829960615002

>  <r_i_glide_emodel>  (1) 
-27.711024395469948

>  <r_i_glide_emodel_strain>  (1) 
0.028851173786719642

>  <r_i_glide_energy>  (1) 
-22.972999243558224

>  <r_i_glide_erotb>  (1) 
0.12329427839652905

>  <r_i_glide_esite>  (1) 
0

>  <r_i_glide_evdw>  (1) 
-20.944234268964529

>  <r_i_glide_gscore>  (1) 
-3.0608494351526154

>  <r_i_glide_gscore_strain>  (1) 
0

>  <r_i_glide_hbond>  (1) 
0

>  <r_i_glide_ligand_efficiency>  (1) 
-0.11336479389454131

>  <r_i_glide_ligand_efficiency_ln>  (1) 
-0.71251528645676721

>  <r_i_glide_ligand_efficiency_sa>  (1) 
-0.34009438168362399

>  <r_i_glide_lipo>  (1) 
-0.94627887991599757

>  <r_i_glide_metal>  (1) 
-0

>  <r_i_glide_rewards>  (1) 
-0.88633837399586612

>  <r_lp_Energy>  (1) 
44.784799999999997

>  <r_lp_tautomer_probability>  (1) 
1

>  <s_epik_cmdline>  (1) 
J2VwaWtfcHl0aG9uJywgJy1waHQnLCAnMS4wJywgJy1waCcsICc3LjQnLCAnLXRuJywgJzgnLCAnLW1hJywgJzUwMCcsICctaW1hZScsICc8aW5maWxlLm1hZT4nLCAnLW9tYWUnLCAnPG91dGZpbGUubWFlPic=

>  <s_epik_input>  (1) 
W0NIM11bQ0BAXTEoW09IXSlTW0NIMl1bQ0BASF0oW0NIM10pW0NASF0oW0NIMl1bQ0gyXU9bQ0gyXVtDSDJdMilbQ0BASF0yT1tDQEhdKFtDSDJdMylDMTNbQ0BASF0oTzQpW0NASF0oW0NIM10pW0NIMl1bQ0BASF0oW0NIMl01KUM0NVtPSF0=

>  <s_glide_docking_method>  (1) 
confgen

>  <s_i_glide_gridfile>  (1) 
gpcr_drd2_6luq_protein_autoprepared_prepared

>  <s_lp_Force_Field>  (1) 
S-OPLS

>  <s_lp_Variant>  (1) 
DiffSBDD_18-1

>  <s_m_source_file>  (1) 
generated_generic_title2_ligand_DiffSBDD_2026-06-23_prepared.sdf

>  <GenAI_Model>  (1) 
DiffSBDD

>  <Protein>  (1) 
generic_title2

$$$$
DiffSBDD_26
     RDKit          3D

  0  0  0  0  0  0  0  0  0  0999 V3000
M  V30 BEGIN CTAB
M  V30 COUNTS 76 80 0 0 1
M  V30 BEGIN ATOM
M  V30 1 C 9.692908 7.067224 -7.022389 0
M  V30 2 C 8.450270 1.941529 -22.017170 0
M  V30 3 O 11.692773 6.496516 -12.384891 0
M  V30 4 C 10.202871 6.726246 -5.620512 0
M  V30 5 N 6.288562 5.590362 -17.147942 0
M  V30 6 C 8.907074 5.878704 -7.594664 0
M  V30 7 F 9.335490 1.046511 -22.487283 0
M  V30 8 C 8.347609 4.650902 -19.626080 0
M  V30 9 C 8.061007 5.495920 -15.426313 0 CFG=1
M  V30 10 C 6.261751 7.219813 -15.166856 0
M  V30 11 C 8.853287 2.825114 -21.100145 0
M  V30 12 C 5.198386 5.785409 -20.120097 0
M  V30 13 C 5.476209 6.519399 -16.331506 0
M  V30 14 C 10.806368 6.917114 -10.127539 0 CFG=1
M  V30 15 C 8.956417 6.233582 -11.700949 0
M  V30 16 C 9.895828 9.011893 -9.406409 0
M  V30 17 O 11.727369 7.330138 -11.177048 0
M  V30 18 C 12.378872 8.574651 -8.952581 0
M  V30 19 C 5.389377 5.396345 -12.956174 0
M  V30 20 C 6.089191 6.776907 -19.362989 0
M  V30 21 C 6.900830 5.562531 -13.118215 0 CFG=2
M  V30 22 C 7.428865 6.240615 -11.840220 0
M  V30 23 C 10.958966 7.969390 -9.019033 0 CFG=2
M  V30 24 C 6.150016 2.834808 -22.092857 0
M  V30 25 C 8.328797 5.548874 -18.668860 0
M  V30 26 C 7.320488 6.341313 -14.407801 0 CFG=1
M  V30 27 O 10.899370 7.379827 -7.714912 0
M  V30 28 C 7.039563 6.268736 -18.220583 0 CFG=2
M  V30 29 C 6.594595 3.832183 -21.054504 0
M  V30 30 C 8.169953 4.048883 -15.910892 0
M  V30 31 C 6.895672 4.769367 -16.092028 0 CFG=2
M  V30 32 C 7.960105 3.802238 -20.554554 0
M  V30 33 O 5.016823 2.807215 -22.576389 0
M  V30 34 C 9.246089 8.462390 -10.689132 0
M  V30 35 C 5.678246 4.702765 -20.680978 0
M  V30 36 O 7.148887 1.945985 -22.467473 0
M  V30 37 N 9.436224 7.046608 -10.591684 0
M  V30 38 H 9.036167 7.930673 -6.934005 0
M  V30 39 H 10.994712 6.909468 -12.868477 0
M  V30 40 H 9.411652 6.297053 -5.014037 0
M  V30 41 H 11.005503 5.990190 -5.666680 0
M  V30 42 H 10.589475 7.611883 -5.116109 0
M  V30 43 H 8.114108 5.590169 -6.905364 0
M  V30 44 H 8.398618 6.122463 -8.521261 0
M  V30 45 H 9.542830 5.013084 -7.769350 0
M  V30 46 H 8.769146 6.084441 -15.986647 0
M  V30 47 H 5.564855 7.685280 -14.471246 0
M  V30 48 H 6.798232 8.059752 -15.607777 0
M  V30 49 H 9.878542 2.797305 -20.759649 0
M  V30 50 H 4.175464 6.084408 -20.279023 0
M  V30 51 H 4.657333 5.953069 -15.894780 0
M  V30 52 H 4.978497 7.269719 -16.941491 0
M  V30 53 H 10.961644 5.990223 -9.585042 0
M  V30 54 H 9.380716 6.592158 -12.630605 0
M  V30 55 H 9.297349 5.204904 -11.572155 0
M  V30 56 H 10.389366 9.958741 -9.585025 0
M  V30 57 H 9.139093 9.171851 -8.643570 0
M  V30 58 H 12.611848 9.194001 -9.819087 0
M  V30 59 H 12.493892 9.190212 -8.061690 0
M  V30 60 H 13.136865 7.793964 -8.894061 0
M  V30 61 H 4.975398 6.373851 -12.727180 0
M  V30 62 H 4.900442 4.998634 -13.841769 0
M  V30 63 H 5.150226 4.734549 -12.122648 0
M  V30 64 H 5.429613 7.552485 -18.975716 0
M  V30 65 H 6.692009 7.298183 -20.108163 0
M  V30 66 H 7.334258 4.562058 -13.153775 0
M  V30 67 H 7.010110 5.757529 -10.955642 0
M  V30 68 H 7.050013 7.261353 -11.820847 0
M  V30 69 H 9.225286 5.782258 -18.116298 0
M  V30 70 H 8.046073 7.083873 -14.090862 0
M  V30 71 H 7.375368 7.190240 -17.770190 0
M  V30 72 H 8.191480 3.275461 -15.145767 0
M  V30 73 H 8.799547 3.838263 -16.769091 0
M  V30 74 H 6.175483 4.296490 -15.431961 0
M  V30 75 H 9.761559 8.790281 -11.587572 0
M  V30 76 H 8.205373 8.767906 -10.785045 0
M  V30 END ATOM
M  V30 BEGIN BOND
M  V30 1 1 4 1
M  V30 2 1 6 1
M  V30 3 1 7 2
M  V30 4 2 11 2
M  V30 5 1 13 5
M  V30 6 1 13 10
M  V30 7 1 17 3
M  V30 8 1 17 14
M  V30 9 1 20 12
M  V30 10 1 21 19
M  V30 11 1 22 15
M  V30 12 1 22 21
M  V30 13 1 23 14
M  V30 14 1 23 16
M  V30 15 1 23 18
M  V30 16 2 25 8
M  V30 17 1 26 9
M  V30 18 1 26 10
M  V30 19 1 26 21
M  V30 20 1 27 1
M  V30 21 1 23 27 CFG=1
M  V30 22 1 28 5
M  V30 23 1 28 20
M  V30 24 1 28 25
M  V30 25 1 29 24
M  V30 26 1 30 9
M  V30 27 1 31 5
M  V30 28 1 31 9
M  V30 29 1 31 30
M  V30 30 2 32 8
M  V30 31 1 32 11
M  V30 32 1 32 29
M  V30 33 2 33 24
M  V30 34 1 34 16
M  V30 35 2 35 12
M  V30 36 2 35 29
M  V30 37 1 36 2
M  V30 38 1 36 24
M  V30 39 1 37 14
M  V30 40 1 37 15
M  V30 41 1 37 34
M  V30 42 1 38 1
M  V30 43 1 39 3
M  V30 44 1 40 4
M  V30 45 1 41 4
M  V30 46 1 42 4
M  V30 47 1 43 6
M  V30 48 1 44 6
M  V30 49 1 45 6
M  V30 50 1 9 46 CFG=3
M  V30 51 1 47 10
M  V30 52 1 48 10
M  V30 53 1 49 11
M  V30 54 1 50 12
M  V30 55 1 51 13
M  V30 56 1 52 13
M  V30 57 1 14 53 CFG=1
M  V30 58 1 54 15
M  V30 59 1 55 15
M  V30 60 1 56 16
M  V30 61 1 57 16
M  V30 62 1 58 18
M  V30 63 1 59 18
M  V30 64 1 60 18
M  V30 65 1 61 19
M  V30 66 1 62 19
M  V30 67 1 63 19
M  V30 68 1 64 20
M  V30 69 1 65 20
M  V30 70 1 21 66 CFG=3
M  V30 71 1 67 22
M  V30 72 1 68 22
M  V30 73 1 69 25
M  V30 74 1 26 70 CFG=1
M  V30 75 1 28 71 CFG=1
M  V30 76 1 72 30
M  V30 77 1 73 30
M  V30 78 1 31 74 CFG=1
M  V30 79 1 75 34
M  V30 80 1 76 34
M  V30 END BOND
M  V30 END CTAB
M  END
>  <i_epik_Tot_Q>  (1) 
0

>  <i_epik_Tot_abs_Q>  (1) 
0

>  <i_i_glide_confnum>  (1) 
95

>  <i_i_glide_lignum>  (1) 
76

>  <i_i_glide_posenum>  (1) 
16

>  <i_i_glide_rotatable_bonds>  (1) 
9

>  <i_lp_mmshare_version>  (1) 
72125

>  <i_m_source_file_index>  (1) 
27

>  <i_f3d_flags>  (1) 
0

>  <num_sample>  (1) 
50

>  <b_lp_Chiralities_Consistent>  (1) 
1

>  <r_epik_Charging_Adjusted_Penalty>  (1) 
0

>  <r_epik_Ionization_Penalty>  (1) 
0.071693018493777738

>  <r_epik_Ionization_Penalty_Charging>  (1) 
0

>  <r_epik_Ionization_Penalty_Neutral>  (1) 
0.071693018493777738

>  <r_epik_State_Penalty>  (1) 
-0

>  <r_glide_ring_energy>  (1) 
1.2337109712795384

>  <r_i_docking_score>  (1) 
-3.034644767364858

>  <r_i_glide_ecoul>  (1) 
-0.11653165906738636

>  <r_i_glide_eff_state_penalty>  (1) 
-0

>  <r_i_glide_einternal>  (1) 
15.632445986912048

>  <r_i_glide_emodel>  (1) 
-13.42926790524168

>  <r_i_glide_emodel_strain>  (1) 
4.280969449913357

>  <r_i_glide_energy>  (1) 
-20.54046000800917

>  <r_i_glide_erotb>  (1) 
0.54216957858083481

>  <r_i_glide_esite>  (1) 
-0.0089011461429143474

>  <r_i_glide_evdw>  (1) 
-20.423928348941782

>  <r_i_glide_gscore>  (1) 
-3.034644767364858

>  <r_i_glide_gscore_strain>  (1) 
0.07024236247833926

>  <r_i_glide_hbond>  (1) 
0

>  <r_i_glide_ligand_efficiency>  (1) 
-0.082017426144996158

>  <r_i_glide_ligand_efficiency_ln>  (1) 
-0.6581433078743707

>  <r_i_glide_ligand_efficiency_sa>  (1) 
-0.27330025961611437

>  <r_i_glide_lipo>  (1) 
-2.3042245437656677

>  <r_i_glide_metal>  (1) 
-0

>  <r_i_glide_rewards>  (1) 
-0.29525485220825265

>  <r_lp_Energy>  (1) 
45.427697999999999

>  <r_lp_tautomer_probability>  (1) 
1

>  <s_epik_Chemistry_Notes>  (1) 
This compound contains an acetal/aminal-like group ( X-CH(R)-Y where X, Y are N, S, or O) that may be acid/base labile, releasing an aldehyde.

>  <s_epik_cmdline>  (1) 
J2VwaWtfcHl0aG9uJywgJy1waHQnLCAnMS4wJywgJy1waCcsICc3LjQnLCAnLXRuJywgJzgnLCAnLW1hJywgJzUwMCcsICctaW1hZScsICc8aW5maWxlLm1hZT4nLCAnLW9tYWUnLCAnPG91dGZpbGUubWFlPic=

>  <s_epik_input>  (1) 
W0NIM11bQ0hdKFtDSDNdKU9bQ0BAXTEoW0NIM10pW0NASF0oT1tPSF0pTihbQ0gyXVtDSDJdMSlbQ0gyXVtDSDJdW0NAQEhdKFtDSDNdKVtDQEBIXTJbQ0gyXVtDSDJdTihbQ0BIXShbQ0BASF0yMylbQ0gyXTMpW0NASF0oW0NIMl1bQ0hdPUM0KVtDSF09Qz1jKGM9NDUpW2NIXWMoRilvYzU9Tw==

>  <s_glide_docking_method>  (1) 
confgen

>  <s_i_glide_gridfile>  (1) 
gpcr_drd2_6luq_protein_autoprepared_prepared

>  <s_lp_Force_Field>  (1) 
S-OPLS

>  <s_lp_Variant>  (1) 
DiffSBDD_26-1

>  <s_m_source_file>  (1) 
generated_generic_title2_ligand_DiffSBDD_2026-06-23_prepared.sdf

>  <GenAI_Model>  (1) 
DiffSBDD

>  <Protein>  (1) 
generic_title2

$$$$
DiffSBDD_44
     RDKit          3D

  0  0  0  0  0  0  0  0  0  0999 V3000
M  V30 BEGIN CTAB
M  V30 COUNTS 60 62 0 0 1
M  V30 BEGIN ATOM
M  V30 1 C 6.170329 2.041814 -20.739157 0
M  V30 2 C 7.986765 3.626819 -14.406121 0
M  V30 3 O 8.342038 2.352310 -22.896568 0
M  V30 4 O 5.375456 2.695117 -21.412624 0
M  V30 5 O 7.958190 0.850555 -14.807434 0
M  V30 6 C 7.386623 1.432144 -18.284806 0 CFG=2
M  V30 7 C 8.568924 1.860500 -21.590185 0
M  V30 8 C 8.458381 6.309441 -11.569949 0
M  V30 9 C 9.854814 3.630798 -17.343171 0
M  V30 10 C 6.694354 0.248179 -18.959680 0
M  V30 11 C 7.535486 4.671368 -17.229789 0
M  V30 12 C 6.431304 6.254861 -20.469364 0
M  V30 13 O 8.170985 2.119547 -19.261722 0
M  V30 14 C 6.957541 5.043056 -19.676795 0 CFG=1
M  V30 15 C 5.761678 0.703607 -20.091555 0 CFG=1
M  V30 16 N 9.760074 6.744244 -9.440599 0
M  V30 17 F 8.825887 8.627684 -11.177380 0
M  V30 18 C 7.816805 3.049120 -13.146134 0
M  V30 19 S 8.010198 5.394229 -14.237012 0
M  V30 20 O 4.446867 0.790589 -19.584870 0
M  V30 21 C 8.488256 7.602947 -11.977579 0
M  V30 22 C 7.755821 4.092757 -20.634165 0 CFG=1
M  V30 23 C 8.443577 3.792550 -16.766962 0
M  V30 24 C 8.809604 5.884331 -10.134834 0
M  V30 25 C 8.091838 5.221977 -12.503731 0
M  V30 26 N 7.829701 3.989578 -12.110223 0
M  V30 27 C 7.744527 5.559137 -18.434233 0
M  V30 28 F 8.175377 8.000859 -13.217558 0
M  V30 29 C 8.150116 1.606783 -15.756731 0
M  V30 30 C 8.363402 0.994829 -17.163784 0
M  V30 31 O 8.509806 0.450360 -21.577061 0
M  V30 32 F 9.038899 4.461602 -20.665726 0
M  V30 33 N 8.175329 2.989485 -15.632967 0
M  V30 34 C 7.626485 2.525455 -20.524826 0 CFG=2
M  V30 35 H 7.427988 2.236147 -23.110961 0
M  V30 36 H 6.617284 2.099293 -17.892312 0
M  V30 37 H 9.600269 2.114400 -21.341296 0
M  V30 38 H 9.882959 3.406518 -18.404414 0
M  V30 39 H 10.456890 2.897086 -16.808410 0
M  V30 40 H 10.377049 4.579868 -17.220978 0
M  V30 41 H 7.446453 -0.433534 -19.357043 0
M  V30 42 H 6.138946 -0.330777 -18.219641 0
M  V30 43 H 6.575644 4.743158 -16.746020 0
M  V30 44 H 7.250875 6.850084 -20.873779 0
M  V30 45 H 5.822593 6.907332 -19.842731 0
M  V30 46 H 5.803654 5.939849 -21.303937 0
M  V30 47 H 6.067285 4.517714 -19.328482 0
M  V30 48 H 5.754865 -0.059893 -20.870292 0
M  V30 49 H 9.245182 7.599360 -9.258537 0
M  V30 50 H 9.944382 6.347361 -8.530755 0
M  V30 51 H 7.756985 2.005052 -12.888978 0
M  V30 52 H 3.860830 0.865449 -20.324837 0
M  V30 53 H 7.424180 4.338881 -21.643162 0
M  V30 54 H 7.899577 5.744435 -9.550571 0
M  V30 55 H 9.297338 4.910656 -10.182469 0
M  V30 56 H 8.801540 5.706507 -18.651937 0
M  V30 57 H 7.379521 6.542011 -18.134291 0
M  V30 58 H 8.245004 -0.080355 -17.021288 0
M  V30 59 H 9.402215 1.077979 -17.476461 0
M  V30 60 H 9.263240 0.121913 -22.044135 0
M  V30 END ATOM
M  V30 BEGIN BOND
M  V30 1 2 4 1
M  V30 2 1 7 3
M  V30 3 1 10 6
M  V30 4 1 13 6
M  V30 5 1 14 12
M  V30 6 1 15 1
M  V30 7 1 15 10
M  V30 8 2 18 2
M  V30 9 1 19 2
M  V30 10 1 20 15
M  V30 11 2 21 8
M  V30 12 1 21 17
M  V30 13 1 22 14
M  V30 14 1 23 9
M  V30 15 2 23 11
M  V30 16 1 24 8
M  V30 17 1 24 16
M  V30 18 1 25 8
M  V30 19 1 25 19
M  V30 20 1 26 18
M  V30 21 2 26 25
M  V30 22 1 27 11
M  V30 23 1 27 14
M  V30 24 1 28 21
M  V30 25 2 29 5
M  V30 26 1 30 6
M  V30 27 1 30 29
M  V30 28 1 31 7
M  V30 29 1 32 22
M  V30 30 1 33 2
M  V30 31 1 33 23
M  V30 32 1 33 29
M  V30 33 1 34 1
M  V30 34 1 34 7 CFG=3
M  V30 35 1 34 13
M  V30 36 1 34 22
M  V30 37 1 35 3
M  V30 38 1 6 36 CFG=1
M  V30 39 1 37 7
M  V30 40 1 38 9
M  V30 41 1 39 9
M  V30 42 1 40 9
M  V30 43 1 41 10
M  V30 44 1 42 10
M  V30 45 1 43 11
M  V30 46 1 44 12
M  V30 47 1 45 12
M  V30 48 1 46 12
M  V30 49 1 14 47 CFG=1
M  V30 50 1 15 48 CFG=3
M  V30 51 1 49 16
M  V30 52 1 50 16
M  V30 53 1 51 18
M  V30 54 1 52 20
M  V30 55 1 22 53 CFG=3
M  V30 56 1 54 24
M  V30 57 1 55 24
M  V30 58 1 56 27
M  V30 59 1 57 27
M  V30 60 1 58 30
M  V30 61 1 59 30
M  V30 62 1 60 31
M  V30 END BOND
M  V30 END CTAB
M  END
>  <i_epik_Tot_Q>  (1) 
0

>  <i_epik_Tot_abs_Q>  (1) 
0

>  <i_i_glide_confnum>  (1) 
23

>  <i_i_glide_lignum>  (1) 
120

>  <i_i_glide_posenum>  (1) 
349

>  <i_i_glide_rotatable_bonds>  (1) 
7

>  <i_lp_mmshare_version>  (1) 
72125

>  <i_m_source_file_index>  (1) 
45

>  <i_f3d_flags>  (1) 
0

>  <num_sample>  (1) 
50

>  <b_lp_Chiralities_Consistent>  (1) 
1

>  <r_epik_Charging_Adjusted_Penalty>  (1) 
0.14846023016517132

>  <r_epik_Ionization_Penalty>  (1) 
0.1486405622074061

>  <r_epik_Ionization_Penalty_Charging>  (1) 
0

>  <r_epik_Ionization_Penalty_Neutral>  (1) 
0.1486405622074061

>  <r_epik_State_Penalty>  (1) 
0.14846023016517132

>  <r_glide_ring_energy>  (1) 
0

>  <r_i_docking_score>  (1) 
-3.0243077013282051

>  <r_i_glide_ecoul>  (1) 
-3.1707306284159045

>  <r_i_glide_eff_state_penalty>  (1) 
0.14846023016517132

>  <r_i_glide_einternal>  (1) 
10.36539550627573

>  <r_i_glide_emodel>  (1) 
-27.465073862746145

>  <r_i_glide_emodel_strain>  (1) 
1.0862892015110788

>  <r_i_glide_energy>  (1) 
-29.046045676420423

>  <r_i_glide_erotb>  (1) 
0.32015763248640533

>  <r_i_glide_esite>  (1) 
-0.1105389880926456

>  <r_i_glide_evdw>  (1) 
-25.87531504800452

>  <r_i_glide_gscore>  (1) 
-3.1727679314933765

>  <r_i_glide_gscore_strain>  (1) 
0

>  <r_i_glide_hbond>  (1) 
-0.16231721296268814

>  <r_i_glide_ligand_efficiency>  (1) 
-0.088950226509653091

>  <r_i_glide_ligand_efficiency_ln>  (1) 
-0.66815440018107453

>  <r_i_glide_ligand_efficiency_sa>  (1) 
-0.28816420352697747

>  <r_i_glide_lipo>  (1) 
-0.90183298917821275

>  <r_i_glide_metal>  (1) 
-0

>  <r_i_glide_rewards>  (1) 
-0.54886102708362361

>  <r_lp_Energy>  (1) 
44.606941999999997

>  <s_epik_Chemistry_Notes>  (1) 
This compound contains an acetal/aminal-like group ( X-CH(R)-Y where X, Y are N, S, or O) that may be acid/base labile, releasing an aldehyde.

>  <s_epik_cmdline>  (1) 
J2VwaWtfcHl0aG9uJywgJy1waHQnLCAnMS4wJywgJy1waCcsICc3LjQnLCAnLXRuJywgJzgnLCAnLW1hJywgJzUwMCcsICctaW1hZScsICc8aW5maWxlLm1hZT4nLCAnLW9tYWUnLCAnPG91dGZpbGUubWFlPic=

>  <s_epik_input>  (1) 
W09IXVtDSF0oW09IXSlbQ0BAXTEyQyg9TylbQ0BIXShbT0hdKVtDSDJdW0NASF0oTzEpW0NIMl1DKD1PKU4oQyhcW0NIM10pPVtDSF1cW0NIMl1bQ0BASF0oW0NIM10pW0NASF0yRiljM1tjSF1uYyhzMylDKD1DKEYpRilbQ0gyXVtOSDJd

>  <s_glide_docking_method>  (1) 
confgen

>  <s_i_glide_gridfile>  (1) 
gpcr_drd2_6luq_protein_autoprepared_prepared

>  <s_lp_Force_Field>  (1) 
S-OPLS

>  <s_lp_Variant>  (1) 
DiffSBDD_44-1

>  <s_m_source_file>  (1) 
generated_generic_title2_ligand_DiffSBDD_2026-06-23_prepared.sdf

>  <GenAI_Model>  (1) 
DiffSBDD

>  <Protein>  (1) 
generic_title2

$$$$
DiffSBDD_4
     RDKit          3D

  0  0  0  0  0  0  0  0  0  0999 V3000
M  V30 BEGIN CTAB
M  V30 COUNTS 69 73 0 0 1
M  V30 BEGIN ATOM
M  V30 1 O 4.383161 -5.617469 -17.185020 0
M  V30 2 C 7.694850 2.405658 -20.501334 0
M  V30 3 C 6.681030 1.046191 -16.343267 0
M  V30 4 C 4.511980 -4.089651 -20.223934 0
M  V30 5 C 5.725839 -0.640267 -18.795119 0
M  V30 6 C 7.493864 -0.114562 -16.961197 0 CFG=2
M  V30 7 C 6.923855 2.282162 -17.234939 0
M  V30 8 C 2.799022 -6.009766 -21.397792 0
M  V30 9 C 8.132710 -5.446322 -17.961999 0
M  V30 10 C 3.635541 -4.869859 -19.403538 0
M  V30 11 O 5.323289 6.693598 -20.701658 0
M  V30 12 F 4.175401 4.790098 -21.545785 0
M  V30 13 C 7.269744 -4.786150 -19.045707 0
M  V30 14 C 8.215204 2.020535 -17.981077 0 CFG=2
M  V30 15 C 7.416793 5.138414 -19.603611 0
M  V30 16 C 6.346330 3.112240 -20.720416 0 CFG=2
M  V30 17 C 9.435156 1.572756 -17.208156 0
M  V30 18 C 6.494850 -3.535072 -18.566790 0 CFG=1
M  V30 19 C 8.460479 2.861159 -19.238662 0 CFG=2
M  V30 20 C 7.429410 -2.383879 -18.152767 0
M  V30 21 C 4.509847 -4.288155 -21.623293 0
M  V30 22 C 5.456285 -3.034633 -19.619994 0 CFG=2
M  V30 23 C 4.733286 -1.716619 -19.247776 0
M  V30 24 C 2.787398 -5.824153 -20.003607 0
M  V30 25 F 5.862995 2.704423 -21.894869 0
M  V30 26 N 5.145414 5.264790 -20.581713 0
M  V30 27 C 8.290130 4.345146 -18.959166 0
M  V30 28 C 3.657027 -5.243680 -22.204951 0
M  V30 29 C 6.473132 4.657487 -20.706507 0 CFG=1
M  V30 30 C 8.525726 0.557198 -17.843657 0 CFG=1
M  V30 31 C 3.592904 -4.690832 -17.889887 0
M  V30 32 C 6.613371 -1.173613 -17.654592 0 CFG=2
M  V30 33 H 4.390618 -5.318819 -16.275118 0
M  V30 34 H 7.572303 1.323584 -20.510771 0
M  V30 35 H 8.319895 2.625236 -21.367955 0
M  V30 36 H 7.060857 1.249551 -15.341396 0
M  V30 37 H 5.622295 0.809220 -16.229093 0
M  V30 38 H 6.343611 -0.339559 -19.639347 0
M  V30 39 H 5.168042 0.243181 -18.487356 0
M  V30 40 H 8.030656 -0.621921 -16.158260 0
M  V30 41 H 6.107354 2.390393 -17.942101 0
M  V30 42 H 6.990384 3.198282 -16.647338 0
M  V30 43 H 2.145748 -6.742035 -21.849427 0
M  V30 44 H 8.532690 -6.396169 -18.318558 0
M  V30 45 H 7.549037 -5.651448 -17.063802 0
M  V30 46 H 8.974357 -4.816080 -17.678296 0
M  V30 47 H 5.450465 6.789256 -21.633412 0
M  V30 48 H 7.889702 -4.537282 -19.907104 0
M  V30 49 H 6.562870 -5.541211 -19.389891 0
M  V30 50 H 7.365329 6.185688 -19.343606 0
M  V30 51 H 5.619539 2.781191 -19.980806 0
M  V30 52 H 10.424524 1.697791 -17.642535 0
M  V30 53 H 9.375371 1.663181 -16.127463 0
M  V30 54 H 5.991203 -3.810174 -17.649231 0
M  V30 55 H 9.516110 2.738152 -19.485406 0
M  V30 56 H 8.096435 -2.715649 -17.357000 0
M  V30 57 H 8.066413 -2.102259 -18.991231 0
M  V30 58 H 5.165031 -3.702804 -22.252403 0
M  V30 59 H 6.087228 -2.741569 -20.461522 0
M  V30 60 H 4.183275 -1.342566 -20.110840 0
M  V30 61 H 3.984436 -1.851308 -18.472694 0
M  V30 62 H 2.124004 -6.414393 -19.389459 0
M  V30 63 H 8.923012 4.766113 -18.190492 0
M  V30 64 H 3.661256 -5.388117 -23.274965 0
M  V30 65 H 6.909191 4.975752 -21.654794 0
M  V30 66 H 8.911867 0.011716 -18.702117 0
M  V30 67 H 3.832483 -3.689980 -17.557496 0
M  V30 68 H 2.575447 -4.856676 -17.546850 0
M  V30 69 H 5.944509 -1.544175 -16.874731 0
M  V30 END ATOM
M  V30 BEGIN BOND
M  V30 1 1 6 3
M  V30 2 1 7 3
M  V30 3 1 10 4
M  V30 4 1 13 9
M  V30 5 1 14 7 CFG=1
M  V30 6 1 16 2
M  V30 7 1 17 14
M  V30 8 1 18 13
M  V30 9 1 19 2
M  V30 10 1 19 14
M  V30 11 1 20 18
M  V30 12 2 21 4
M  V30 13 1 22 4
M  V30 14 1 22 18
M  V30 15 1 23 5
M  V30 16 1 23 22
M  V30 17 1 24 8
M  V30 18 2 24 10
M  V30 19 1 25 16
M  V30 20 1 26 11
M  V30 21 1 26 12
M  V30 22 2 27 15
M  V30 23 1 27 19
M  V30 24 2 28 8
M  V30 25 1 28 21
M  V30 26 1 29 15
M  V30 27 1 29 16
M  V30 28 1 29 26
M  V30 29 1 30 6
M  V30 30 1 30 14
M  V30 31 1 30 17
M  V30 32 1 31 1
M  V30 33 1 31 10
M  V30 34 1 32 5
M  V30 35 1 32 6
M  V30 36 1 32 20
M  V30 37 1 33 1
M  V30 38 1 34 2
M  V30 39 1 35 2
M  V30 40 1 36 3
M  V30 41 1 37 3
M  V30 42 1 38 5
M  V30 43 1 39 5
M  V30 44 1 6 40 CFG=1
M  V30 45 1 41 7
M  V30 46 1 42 7
M  V30 47 1 43 8
M  V30 48 1 44 9
M  V30 49 1 45 9
M  V30 50 1 46 9
M  V30 51 1 47 11
M  V30 52 1 48 13
M  V30 53 1 49 13
M  V30 54 1 50 15
M  V30 55 1 16 51 CFG=1
M  V30 56 1 52 17
M  V30 57 1 53 17
M  V30 58 1 18 54 CFG=1
M  V30 59 1 19 55 CFG=3
M  V30 60 1 56 20
M  V30 61 1 57 20
M  V30 62 1 58 21
M  V30 63 1 22 59 CFG=3
M  V30 64 1 60 23
M  V30 65 1 61 23
M  V30 66 1 62 24
M  V30 67 1 63 27
M  V30 68 1 64 28
M  V30 69 1 29 65 CFG=3
M  V30 70 1 30 66 CFG=3
M  V30 71 1 67 31
M  V30 72 1 68 31
M  V30 73 1 32 69 CFG=1
M  V30 END BOND
M  V30 END CTAB
M  END
>  <i_epik_Tot_Q>  (1) 
0

>  <i_epik_Tot_abs_Q>  (1) 
0

>  <i_i_glide_confnum>  (1) 
419

>  <i_i_glide_lignum>  (1) 
27

>  <i_i_glide_posenum>  (1) 
217

>  <i_i_glide_rotatable_bonds>  (1) 
8

>  <i_lp_mmshare_version>  (1) 
72125

>  <i_m_source_file_index>  (1) 
5

>  <i_f3d_flags>  (1) 
0

>  <num_sample>  (1) 
50

>  <b_lp_Chiralities_Consistent>  (1) 
1

>  <r_epik_Charging_Adjusted_Penalty>  (1) 
0

>  <r_epik_Ionization_Penalty>  (1) 
0.0023293269725234308

>  <r_epik_Ionization_Penalty_Charging>  (1) 
0

>  <r_epik_Ionization_Penalty_Neutral>  (1) 
0.0023293269725234308

>  <r_epik_State_Penalty>  (1) 
-0

>  <r_glide_ring_energy>  (1) 
0

>  <r_i_docking_score>  (1) 
-3.0108854766454609

>  <r_i_glide_ecoul>  (1) 
-5.5313279515294669

>  <r_i_glide_eff_state_penalty>  (1) 
-0

>  <r_i_glide_einternal>  (1) 
2.0525048962509889

>  <r_i_glide_emodel>  (1) 
-30.204333734596549

>  <r_i_glide_emodel_strain>  (1) 
0

>  <r_i_glide_energy>  (1) 
-27.615074980459838

>  <r_i_glide_erotb>  (1) 
0.50387134536734435

>  <r_i_glide_esite>  (1) 
-0.00076482348418433941

>  <r_i_glide_evdw>  (1) 
-22.083747028930372

>  <r_i_glide_gscore>  (1) 
-3.0108854766454609

>  <r_i_glide_gscore_strain>  (1) 
0

>  <r_i_glide_hbond>  (1) 
-0.16

>  <r_i_glide_ligand_efficiency>  (1) 
-0.094090171145170653

>  <r_i_glide_ligand_efficiency_ln>  (1) 
-0.67421933185924199

>  <r_i_glide_ligand_efficiency_sa>  (1) 
-0.29871767331142368

>  <r_i_glide_lipo>  (1) 
-0.70733214636456088

>  <r_i_glide_metal>  (1) 
-0

>  <r_i_glide_rewards>  (1) 
-0.71277330798812122

>  <r_lp_Energy>  (1) 
42.803042999999995

>  <r_lp_tautomer_probability>  (1) 
1

>  <s_epik_Chemistry_Notes>  (1) 
This compound has a N-S or N-O group and may undergo hydrolysis at high or low pH.

>  <s_epik_cmdline>  (1) 
J2VwaWtfcHl0aG9uJywgJy1waHQnLCAnMS4wJywgJy1waCcsICc3LjQnLCAnLXRuJywgJzgnLCAnLW1hJywgJzUwMCcsICctaW1hZScsICc8aW5maWxlLm1hZT4nLCAnLW9tYWUnLCAnPG91dGZpbGUubWFlPic=

>  <s_epik_input>  (1) 
W2NIXTFbY0hdW2NIXVtjSF1jKFtDSDJdW09IXSljMVtDQEhdMltDSDJdW0NIMl1bQ0BASF0oW0NIMl1bQ0BASF0yW0NIMl1bQ0gzXSlbQ0BIXShbQ0gyXVtDSDJdMylbQ0hdKFtDSDJdNClbQ0BdMzRbQ0BIXShbQ0gyXVtDQEBIXTVGKVtDSF09W0NIXVtDQEBIXTVOKEYpW09IXQ==

>  <s_glide_docking_method>  (1) 
confgen

>  <s_i_glide_gridfile>  (1) 
gpcr_drd2_6luq_protein_autoprepared_prepared

>  <s_lp_Force_Field>  (1) 
S-OPLS

>  <s_lp_Variant>  (1) 
DiffSBDD_4-1

>  <s_m_source_file>  (1) 
generated_generic_title2_ligand_DiffSBDD_2026-06-23_prepared.sdf

>  <GenAI_Model>  (1) 
DiffSBDD

>  <Protein>  (1) 
generic_title2

$$$$
DiffSBDD_33
     RDKit          3D

  0  0  0  0  0  0  0  0  0  0999 V3000
M  V30 BEGIN CTAB
M  V30 COUNTS 57 63 0 0 1
M  V30 BEGIN ATOM
M  V30 1 C 9.520785 3.455503 -22.032853 0
M  V30 2 C 9.101551 2.939905 -19.598150 0
M  V30 3 C 10.594867 5.861487 -20.391182 0 CFG=2
M  V30 4 C 15.276781 6.093413 -18.347470 0
M  V30 5 C 5.438432 -0.009448 -17.652319 0
M  V30 6 C 9.995655 4.941118 -18.246221 0
M  V30 7 C 7.208719 1.470263 -18.996589 0
M  V30 8 S 8.575116 2.270747 -16.910524 0
M  V30 9 C 6.908274 1.394321 -20.398855 0
M  V30 10 C 6.560452 0.853394 -17.794893 0
M  V30 11 C 14.162374 8.580584 -21.025971 0
M  V30 12 C 8.346398 2.280959 -18.620162 0
M  V30 13 C 5.013985 -0.457368 -16.384841 0
M  V30 14 N 11.009136 4.460427 -20.332135 0
M  V30 15 C 6.804836 0.782132 -15.319084 0
M  V30 16 O 15.675654 9.153681 -19.253391 0
M  V30 17 C 14.314771 8.997880 -19.589427 0 CFG=2
M  V30 18 N 7.672201 2.057697 -21.312186 0
M  V30 19 C 7.240226 1.237121 -16.574920 0
M  V30 20 C 5.693860 -0.060665 -15.224854 0
M  V30 21 N 12.378809 7.393034 -19.760779 0 CFG=2 CHG=1
M  V30 22 C 11.700959 6.785703 -20.935169 0
M  V30 23 C 10.480181 6.218830 -18.922080 0 CFG=1
M  V30 24 C 8.727802 2.790194 -20.928906 0
M  V30 25 C 13.851998 7.584896 -19.913104 0 CFG=1
M  V30 26 C 14.709854 6.322784 -19.760881 0
M  V30 27 C 10.969021 3.721873 -21.592883 0
M  V30 28 C 10.326997 3.786186 -19.216294 0 CFG=2
M  V30 29 C 11.902319 6.668028 -18.561698 0
M  V30 30 H 9.523196 2.813819 -22.914647 0
M  V30 31 H 9.016116 4.376346 -22.323228 0
M  V30 32 H 9.640519 5.979513 -20.904738 0
M  V30 33 H 15.774505 5.125398 -18.290220 0
M  V30 34 H 16.018098 6.848349 -18.087705 0
M  V30 35 H 14.512029 6.114286 -17.573149 0
M  V30 36 H 4.898505 -0.326099 -18.532820 0
M  V30 37 H 10.449087 4.796554 -17.264533 0
M  V30 38 H 8.918339 5.015772 -18.091874 0
M  V30 39 H 6.077588 0.812061 -20.769338 0
M  V30 40 H 13.341597 9.029518 -21.582448 0
M  V30 41 H 15.070317 8.427655 -21.607211 0
M  V30 42 H 4.158332 -1.111888 -16.306456 0
M  V30 43 H 7.329287 1.084081 -14.424648 0
M  V30 44 H 15.975141 9.984284 -19.592708 0
M  V30 45 H 13.648945 9.752360 -19.185058 0
M  V30 46 H 5.360958 -0.409556 -14.257819 0
M  V30 47 H 11.266343 7.585262 -21.535884 0
M  V30 48 H 12.400129 6.247144 -21.576068 0
M  V30 49 H 9.776180 7.040298 -18.785604 0
M  V30 50 H 14.138024 5.450338 -20.079709 0
M  V30 51 H 15.549807 6.389175 -20.453532 0
M  V30 52 H 11.482927 2.770737 -21.446291 0
M  V30 53 H 11.513791 4.255463 -22.371388 0
M  V30 54 H 11.049942 3.111189 -18.756069 0
M  V30 55 H 11.950337 7.275693 -17.658607 0
M  V30 56 H 12.502256 5.776575 -18.388830 0
M  V30 57 H 11.985390 8.319813 -19.674586 0
M  V30 END ATOM
M  V30 BEGIN BOND
M  V30 1 2 9 7
M  V30 2 2 10 5
M  V30 3 1 10 7
M  V30 4 2 12 2
M  V30 5 1 12 7
M  V30 6 1 12 8
M  V30 7 1 13 5
M  V30 8 1 14 3
M  V30 9 1 17 11
M  V30 10 1 17 16
M  V30 11 1 18 9
M  V30 12 1 19 8
M  V30 13 1 19 10
M  V30 14 2 19 15
M  V30 15 2 20 13
M  V30 16 1 20 15
M  V30 17 1 22 3
M  V30 18 1 22 21
M  V30 19 1 23 3
M  V30 20 1 23 6
M  V30 21 1 24 1
M  V30 22 1 24 2
M  V30 23 2 24 18
M  V30 24 1 25 11
M  V30 25 1 25 17
M  V30 26 1 25 21
M  V30 27 1 26 4
M  V30 28 1 25 26 CFG=3
M  V30 29 1 27 1
M  V30 30 1 27 14
M  V30 31 1 28 2
M  V30 32 1 28 6
M  V30 33 1 28 14
M  V30 34 1 29 21
M  V30 35 1 29 23
M  V30 36 1 30 1
M  V30 37 1 31 1
M  V30 38 1 3 32 CFG=3
M  V30 39 1 33 4
M  V30 40 1 34 4
M  V30 41 1 35 4
M  V30 42 1 36 5
M  V30 43 1 37 6
M  V30 44 1 38 6
M  V30 45 1 39 9
M  V30 46 1 40 11
M  V30 47 1 41 11
M  V30 48 1 42 13
M  V30 49 1 43 15
M  V30 50 1 44 16
M  V30 51 1 17 45 CFG=1
M  V30 52 1 46 20
M  V30 53 1 47 22
M  V30 54 1 48 22
M  V30 55 1 23 49 CFG=3
M  V30 56 1 50 26
M  V30 57 1 51 26
M  V30 58 1 52 27
M  V30 59 1 53 27
M  V30 60 1 28 54 CFG=1
M  V30 61 1 55 29
M  V30 62 1 56 29
M  V30 63 1 21 57 CFG=1
M  V30 END BOND
M  V30 END CTAB
M  END
>  <i_epik_Tot_Q>  (1) 
1

>  <i_epik_Tot_abs_Q>  (1) 
1

>  <i_i_glide_confnum>  (1) 
1

>  <i_i_glide_lignum>  (1) 
95

>  <i_i_glide_posenum>  (1) 
378

>  <i_i_glide_rotatable_bonds>  (1) 
3

>  <i_lp_mmshare_version>  (1) 
72125

>  <i_m_source_file_index>  (1) 
34

>  <i_f3d_flags>  (1) 
0

>  <num_sample>  (1) 
50

>  <b_lp_Chiralities_Consistent>  (1) 
1

>  <r_epik_Charging_Adjusted_Penalty>  (1) 
0.0056247907503774904

>  <r_epik_Ionization_Penalty>  (1) 
0.066233849197789949

>  <r_epik_Ionization_Penalty_Charging>  (1) 
0.0056247907503774904

>  <r_epik_Ionization_Penalty_Neutral>  (1) 
0.060609058447412462

>  <r_epik_State_Penalty>  (1) 
-0

>  <r_glide_ring_energy>  (1) 
0

>  <r_i_docking_score>  (1) 
-2.9623052587164733

>  <r_i_glide_ecoul>  (1) 
-3.1666051933376682

>  <r_i_glide_eff_state_penalty>  (1) 
-0

>  <r_i_glide_einternal>  (1) 
0.10630305485825176

>  <r_i_glide_emodel>  (1) 
-28.00067351762581

>  <r_i_glide_emodel_strain>  (1) 
0

>  <r_i_glide_energy>  (1) 
-23.232778892350844

>  <r_i_glide_erotb>  (1) 
0.11895510521466947

>  <r_i_glide_esite>  (1) 
0

>  <r_i_glide_evdw>  (1) 
-20.066173699013177

>  <r_i_glide_gscore>  (1) 
-2.9623052587164733

>  <r_i_glide_gscore_strain>  (1) 
0

>  <r_i_glide_hbond>  (1) 
0

>  <r_i_glide_ligand_efficiency>  (1) 
-0.10214845719711976

>  <r_i_glide_ligand_efficiency_ln>  (1) 
-0.67829278666603343

>  <r_i_glide_ligand_efficiency_sa>  (1) 
-0.31383242376456172

>  <r_i_glide_lipo>  (1) 
-0.96596721816165154

>  <r_i_glide_metal>  (1) 
-0

>  <r_i_glide_rewards>  (1) 
-0.63699368181818239

>  <r_lp_Energy>  (1) 
35.775191999999997

>  <r_lp_tautomer_probability>  (1) 
1

>  <s_epik_cmdline>  (1) 
J2VwaWtfcHl0aG9uJywgJy1waHQnLCAnMS4wJywgJy1waCcsICc3LjQnLCAnLXRuJywgJzgnLCAnLW1hJywgJzUwMCcsICctaW1hZScsICc8aW5maWxlLm1hZT4nLCAnLW9tYWUnLCAnPG91dGZpbGUubWFlPic=

>  <s_epik_input>  (1) 
W09IXVtDQEhdMVtDSDJdW0NAXTEoW0NIMl1bQ0gzXSlOKFtDSDJdMilbQ0gyXVtDQEhdKFtDSDJdW0NAQEhdMzQpW0NAQEhdMk40W0NIMl1bQ0gyXWM1bltjSF1jKGM2YzM1KWM3YyhzNilbY0hdW2NIXVtjSF1bY0hdNw==

>  <s_glide_docking_method>  (1) 
confgen

>  <s_i_glide_gridfile>  (1) 
gpcr_drd2_6luq_protein_autoprepared_prepared

>  <s_lp_Force_Field>  (1) 
S-OPLS

>  <s_lp_Variant>  (1) 
DiffSBDD_33-1

>  <s_m_source_file>  (1) 
generated_generic_title2_ligand_DiffSBDD_2026-06-23_prepared.sdf

>  <GenAI_Model>  (1) 
DiffSBDD

>  <Protein>  (1) 
generic_title2

$$$$
DiffSBDD_28
     RDKit          3D

  0  0  0  0  0  0  0  0  0  0999 V3000
M  V30 BEGIN CTAB
M  V30 COUNTS 79 86 0 0 1
M  V30 BEGIN ATOM
M  V30 1 F 8.824139 0.530223 -20.106738 0
M  V30 2 C 10.257753 6.899817 -8.489577 0 CFG=1
M  V30 3 C 8.568908 6.022154 -11.769920 0 CFG=2
M  V30 4 C 9.986434 8.619561 -6.327467 0 CFG=2
M  V30 5 C 6.897280 5.591301 -15.872537 0 CFG=1
M  V30 6 C 9.896112 5.774297 -7.519907 0
M  V30 7 C 6.910659 4.846544 -13.341978 0 CFG=2
M  V30 8 C 7.397478 2.509561 -18.208786 0 CFG=1
M  V30 9 C 8.602082 7.558062 -11.813890 0
M  V30 10 C 7.576466 4.311027 -16.369958 0 CFG=1
M  V30 11 C 11.709593 8.574946 -8.375395 0 CFG=1
M  V30 12 C 6.852694 4.612456 -10.872541 0
M  V30 13 C 10.382443 8.221503 -7.730497 0 CFG=1
M  V30 14 O 12.848751 8.790247 -7.584989 0
M  V30 15 C 9.276689 0.935375 -18.864140 0 CFG=1
M  V30 16 C 6.634660 5.883417 -14.403215 0 CFG=1
M  V30 17 O 7.775389 6.390290 -15.068056 0
M  V30 18 N 7.203540 5.476782 -12.012234 0 CFG=1 CHG=1
M  V30 19 O 11.998111 9.242064 -4.997729 0
M  V30 20 C 10.481230 0.223670 -18.395308 0
M  V30 21 O 9.269031 9.069086 -7.503085 0
M  V30 22 C 7.556888 3.234513 -15.244809 0
M  V30 23 C 11.703935 7.144407 -8.820641 0
M  V30 24 N 9.375403 6.915300 -9.663206 0
M  V30 25 C 10.769909 9.691143 -5.556913 0
M  V30 26 N 6.779671 2.502276 -19.555691 0 CHG=1
M  V30 27 C 7.937081 3.792482 -13.851743 0
M  V30 28 C 6.707231 3.895820 -20.033697 0
M  V30 29 C 7.014464 4.768296 -18.810571 0
M  V30 30 O 11.451643 0.855348 -17.985120 0
M  V30 31 C 7.734589 5.038202 -9.707115 0
M  V30 32 C 8.929291 2.320340 -18.336784 0
M  V30 33 O 9.341024 -0.093948 -17.817888 0
M  V30 34 N 6.984231 3.832313 -17.663289 0 CFG=1 CHG=1
M  V30 35 C 9.574949 7.921474 -10.692923 0
M  V30 36 C 11.874379 8.369624 -3.891136 0
M  V30 37 C 8.987231 5.671882 -10.326082 0 CFG=1
M  V30 38 H 9.324090 5.628284 -12.444420 0
M  V30 39 H 9.446015 7.893124 -5.725824 0
M  V30 40 H 6.341337 6.182325 -16.596649 0
M  V30 41 H 10.518411 5.792156 -6.625542 0
M  V30 42 H 8.858778 5.844761 -7.189860 0
M  V30 43 H 10.038185 4.798716 -7.984925 0
M  V30 44 H 5.959468 4.326105 -13.218680 0
M  V30 45 H 6.973184 1.706270 -17.605165 0
M  V30 46 H 7.619043 7.971818 -11.585196 0
M  V30 47 H 8.905809 7.953771 -12.783574 0
M  V30 48 H 8.616438 4.571210 -16.569509 0
M  V30 49 H 11.661713 9.255053 -9.226453 0
M  V30 50 H 7.064081 3.590237 -11.153147 0
M  V30 51 H 5.790916 4.678346 -10.631947 0
M  V30 52 H 13.554760 9.012916 -8.174187 0
M  V30 53 H 5.882516 6.634860 -14.167853 0
M  V30 54 H 8.236954 2.419772 -15.487920 0
M  V30 55 H 6.575187 2.772339 -15.176685 0
M  V30 56 H 12.098397 6.901174 -9.805555 0
M  V30 57 H 12.175409 6.653245 -7.985008 0
M  V30 58 H 11.021983 10.487572 -6.255769 0
M  V30 59 H 10.175427 10.169813 -4.785117 0
M  V30 60 H 5.839956 2.132991 -19.494929 0
M  V30 61 H 8.938810 4.209831 -13.937139 0
M  V30 62 H 8.012049 2.967867 -13.143876 0
M  V30 63 H 5.711365 4.094171 -20.434999 0
M  V30 64 H 7.431624 4.067019 -20.832692 0
M  V30 65 H 6.287543 5.575440 -18.715933 0
M  V30 66 H 8.005597 5.216543 -18.902584 0
M  V30 67 H 7.940217 4.238263 -9.008102 0
M  V30 68 H 7.197770 5.760217 -9.107128 0
M  V30 69 H 9.353569 3.059040 -19.017764 0
M  V30 70 H 9.430333 2.470378 -17.380807 0
M  V30 71 H 9.375245 8.916714 -10.297056 0
M  V30 72 H 10.591955 7.899957 -11.081898 0
M  V30 73 H 12.867235 8.078295 -3.549914 0
M  V30 74 H 11.375542 8.865706 -3.059424 0
M  V30 75 H 11.336826 7.459433 -4.153984 0
M  V30 76 H 9.799789 4.948912 -10.348082 0
M  V30 77 H 6.591894 6.275325 -11.905020 0
M  V30 78 H 7.306265 1.920882 -20.196664 0
M  V30 79 H 6.001471 3.721651 -17.461366 0
M  V30 END ATOM
M  V30 BEGIN BOND
M  V30 1 1 2 6 CFG=1
M  V30 2 1 9 3
M  V30 3 1 10 5
M  V30 4 1 13 2
M  V30 5 1 13 4
M  V30 6 1 13 11
M  V30 7 1 14 11
M  V30 8 1 15 1 CFG=3
M  V30 9 1 16 5
M  V30 10 1 16 7
M  V30 11 1 17 5
M  V30 12 1 17 16
M  V30 13 1 18 3
M  V30 14 1 18 7
M  V30 15 1 18 12
M  V30 16 1 20 15
M  V30 17 1 21 4
M  V30 18 1 13 21 CFG=3
M  V30 19 1 22 10
M  V30 20 1 23 2
M  V30 21 1 23 11
M  V30 22 1 24 2
M  V30 23 1 25 4
M  V30 24 1 25 19
M  V30 25 1 26 8
M  V30 26 1 27 7
M  V30 27 1 27 22
M  V30 28 1 28 26
M  V30 29 1 29 28
M  V30 30 2 30 20
M  V30 31 1 31 12
M  V30 32 1 32 8
M  V30 33 1 32 15
M  V30 34 1 33 15
M  V30 35 1 33 20
M  V30 36 1 34 8
M  V30 37 1 34 10
M  V30 38 1 34 29
M  V30 39 1 35 9
M  V30 40 1 35 24
M  V30 41 1 36 19
M  V30 42 1 37 3
M  V30 43 1 37 24
M  V30 44 1 37 31
M  V30 45 1 3 38 CFG=3
M  V30 46 1 4 39 CFG=1
M  V30 47 1 5 40 CFG=3
M  V30 48 1 41 6
M  V30 49 1 42 6
M  V30 50 1 43 6
M  V30 51 1 7 44 CFG=1
M  V30 52 1 8 45 CFG=1
M  V30 53 1 46 9
M  V30 54 1 47 9
M  V30 55 1 10 48 CFG=3
M  V30 56 1 11 49 CFG=3
M  V30 57 1 50 12
M  V30 58 1 51 12
M  V30 59 1 52 14
M  V30 60 1 16 53 CFG=3
M  V30 61 1 54 22
M  V30 62 1 55 22
M  V30 63 1 56 23
M  V30 64 1 57 23
M  V30 65 1 58 25
M  V30 66 1 59 25
M  V30 67 1 60 26
M  V30 68 1 61 27
M  V30 69 1 62 27
M  V30 70 1 63 28
M  V30 71 1 64 28
M  V30 72 1 65 29
M  V30 73 1 66 29
M  V30 74 1 67 31
M  V30 75 1 68 31
M  V30 76 1 69 32
M  V30 77 1 70 32
M  V30 78 1 71 35
M  V30 79 1 72 35
M  V30 80 1 73 36
M  V30 81 1 74 36
M  V30 82 1 75 36
M  V30 83 1 37 76 CFG=3
M  V30 84 1 18 77 CFG=1
M  V30 85 1 78 26
M  V30 86 1 34 79 CFG=1
M  V30 END BOND
M  V30 END CTAB
M  END
>  <i_epik_Tot_Q>  (1) 
3

>  <i_epik_Tot_abs_Q>  (1) 
3

>  <i_i_glide_confnum>  (1) 
203

>  <i_i_glide_lignum>  (1) 
78

>  <i_i_glide_posenum>  (1) 
347

>  <i_i_glide_rotatable_bonds>  (1) 
8

>  <i_lp_mmshare_version>  (1) 
72125

>  <i_m_source_file_index>  (1) 
29

>  <i_f3d_flags>  (1) 
0

>  <num_sample>  (1) 
50

>  <b_lp_Chiralities_Consistent>  (1) 
1

>  <r_epik_Charging_Adjusted_Penalty>  (1) 
2.5241965566360229

>  <r_epik_Ionization_Penalty>  (1) 
2.0480993089750741

>  <r_epik_Ionization_Penalty_Charging>  (1) 
2.0477503768466887

>  <r_epik_Ionization_Penalty_Neutral>  (1) 
0.00034893212838530931

>  <r_epik_State_Penalty>  (1) 
0.4764461797893344

>  <r_glide_ring_energy>  (1) 
0.81914574756084313

>  <r_i_docking_score>  (1) 
-2.9613401269672242

>  <r_i_glide_ecoul>  (1) 
-3.4782704086009466

>  <r_i_glide_eff_state_penalty>  (1) 
0.4764461797893344

>  <r_i_glide_einternal>  (1) 
6.9528570169370099

>  <r_i_glide_emodel>  (1) 
-20.530105663165227

>  <r_i_glide_emodel_strain>  (1) 
5.7942868756686607

>  <r_i_glide_energy>  (1) 
-24.799147206238143

>  <r_i_glide_erotb>  (1) 
0.44698704239028575

>  <r_i_glide_esite>  (1) 
-0.038038975432196087

>  <r_i_glide_evdw>  (1) 
-21.320876797637197

>  <r_i_glide_gscore>  (1) 
-3.4377863067565584

>  <r_i_glide_gscore_strain>  (1) 
0.44857171891716519

>  <r_i_glide_hbond>  (1) 
0

>  <r_i_glide_ligand_efficiency>  (1) 
-0.080036219647762821

>  <r_i_glide_ligand_efficiency_ln>  (1) 
-0.64224524987671794

>  <r_i_glide_ligand_efficiency_sa>  (1) 
-0.26669844003341048

>  <r_i_glide_lipo>  (1) 
-1.9837052459027462

>  <r_i_glide_metal>  (1) 
-0

>  <r_i_glide_rewards>  (1) 
-0.72381644555706548

>  <r_lp_Energy>  (1) 
76.503242

>  <s_epik_Chemistry_Notes>  (1) 
This compound has an ester and may undergo hydrolysis at high or low pH. This compound contains an acetal/aminal-like group ( X-CH(R)-Y where X, Y are N, S, or O) that may be acid/base labile, releasing an aldehyde.

>  <s_epik_cmdline>  (1) 
J2VwaWtfcHl0aG9uJywgJy1waHQnLCAnMS4wJywgJy1waCcsICc3LjQnLCAnLXRuJywgJzgnLCAnLW1hJywgJzUwMCcsICctaW1hZScsICc8aW5maWxlLm1hZT4nLCAnLW9tYWUnLCAnPG91dGZpbGUubWFlPic=

>  <s_epik_input>  (1) 
Tz1DKE8xKUMxKEYpW0NIMl1bQ0BASF0yW05IXVtDSDJdW0NIMl1OMltDQEBIXTNbQ0gyXVtDSDJdW0NASF0oW0NAQEhdKE80KVtDQEhdMzQpTjVbQ0gyXVtDSDJdW0NAQEhdKFtDQEhdNTYpTihbQ0gyXVtDSDJdNilbQ0BAXShbQ0gzXSkoW0NIMl1bQ0BASF03W09IXSlbQ0BAXTc4W0NASF0oTzgpW0NIMl1PW0NIM10=

>  <s_glide_docking_method>  (1) 
confgen

>  <s_i_glide_gridfile>  (1) 
gpcr_drd2_6luq_protein_autoprepared_prepared

>  <s_lp_Force_Field>  (1) 
S-OPLS

>  <s_lp_Variant>  (1) 
DiffSBDD_28-1

>  <s_m_source_file>  (1) 
generated_generic_title2_ligand_DiffSBDD_2026-06-23_prepared.sdf

>  <GenAI_Model>  (1) 
DiffSBDD

>  <Protein>  (1) 
generic_title2

$$$$
DiffSBDD_35
     RDKit          3D

  0  0  0  0  0  0  0  0  0  0999 V3000
M  V30 BEGIN CTAB
M  V30 COUNTS 81 86 0 0 1
M  V30 BEGIN ATOM
M  V30 1 C 15.346572 3.701899 -20.354397 0
M  V30 2 O 14.558011 5.769613 -19.374397 0
M  V30 3 C 9.041652 -0.250062 -21.862798 0
M  V30 4 C 7.607252 2.156840 -15.020618 0
M  V30 5 O 16.289951 2.998667 -19.985636 0
M  V30 6 C 6.733687 0.570925 -16.331595 0
M  V30 7 C 8.178743 2.224717 -16.199132 0
M  V30 8 C 9.210016 1.266542 -21.644674 0
M  V30 9 C 11.660526 3.471014 -20.743178 0
M  V30 10 C 7.114762 -0.700683 -20.156399 0
M  V30 11 C 17.560965 6.169183 -17.106426 0
M  V30 12 F 7.920809 3.004513 -14.026936 0
M  V30 13 C 14.563117 7.544829 -23.264817 0
M  V30 14 O 10.540328 1.970822 -18.000975 0
M  V30 15 C 15.359057 5.834908 -21.748801 0
M  V30 16 N 15.100787 7.168024 -21.938195 0
M  V30 17 C 13.982823 1.684138 -20.828088 0
M  V30 18 C 6.560989 1.059597 -14.845435 0
M  V30 19 C 17.891801 7.151456 -18.252745 0 CFG=2
M  V30 20 N 14.153126 3.152579 -20.776617 0
M  V30 21 C 7.611430 0.134826 -19.270065 0
M  V30 22 O 17.644989 9.584796 -18.586932 0
M  V30 23 F 5.138459 -0.180484 -17.899742 0
M  V30 24 O 8.883920 3.409861 -19.290244 0
M  V30 25 N 10.132627 1.508192 -20.514860 0
M  V30 26 F 6.606118 -1.627691 -17.194257 0
M  V30 27 C 15.498297 5.278898 -20.335681 0 CFG=2
M  V30 28 C 11.483333 1.961396 -20.939481 0
M  V30 29 C 17.998869 8.578875 -17.663819 0
M  V30 30 O 14.578357 9.263119 -21.237061 0
M  V30 31 C 16.924903 7.050895 -19.449647 0
M  V30 32 S 9.468558 2.090839 -19.002238 0
M  V30 33 F 4.991218 -0.980788 -15.950367 0
M  V30 34 C 16.912650 5.717917 -20.102955 0
M  V30 35 C 16.165063 8.136319 -19.816037 0
M  V30 36 C 6.474271 0.254177 -13.580635 0
M  V30 37 C 5.340362 1.189361 -13.985211 0
M  V30 38 C 7.666413 1.252337 -17.027040 0
M  V30 39 C 7.624962 -0.797618 -21.589409 0
M  V30 40 C 15.200374 8.223196 -21.011434 0
M  V30 41 O 15.416476 5.051965 -22.705269 0
M  V30 42 C 5.865812 -0.575728 -16.854951 0
M  V30 43 C 12.631858 1.218162 -20.244332 0
M  V30 44 C 13.007477 3.954356 -21.284343 0
M  V30 45 C 8.083164 1.031778 -18.432425 0
M  V30 46 C 16.307735 9.428130 -19.023033 0
M  V30 47 H 13.700000 5.434340 -19.585968 0
M  V30 48 H 9.294147 -0.474066 -22.899940 0
M  V30 49 H 9.765982 -0.809555 -21.267525 0
M  V30 50 H 8.931065 2.947007 -16.472450 0
M  V30 51 H 8.252979 1.753451 -21.455530 0
M  V30 52 H 9.571725 1.737058 -22.559194 0
M  V30 53 H 10.853127 4.008904 -21.241703 0
M  V30 54 H 11.604574 3.731061 -19.685679 0
M  V30 55 H 6.290930 -1.351092 -19.899962 0
M  V30 56 H 17.733389 5.127585 -17.368638 0
M  V30 57 H 18.181263 6.367331 -16.232118 0
M  V30 58 H 16.519416 6.265028 -16.797926 0
M  V30 59 H 15.180928 8.323304 -23.715248 0
M  V30 60 H 14.483400 6.745417 -23.998746 0
M  V30 61 H 13.552453 7.944996 -23.159954 0
M  V30 62 H 14.054536 1.380511 -21.872953 0
M  V30 63 H 14.777737 1.146622 -20.309474 0
M  V30 64 H 18.876830 6.898700 -18.648342 0
M  V30 65 H 11.608097 1.745532 -22.001860 0
M  V30 66 H 17.371834 8.694777 -16.784980 0
M  V30 67 H 19.014007 8.771211 -17.330277 0
M  V30 68 H 17.417951 5.016276 -19.446742 0
M  V30 69 H 17.581924 5.734667 -20.969582 0
M  V30 70 H 6.295108 -0.809962 -13.672245 0
M  V30 71 H 7.099414 0.552044 -12.741032 0
M  V30 72 H 5.235415 2.188398 -13.579222 0
M  V30 73 H 4.412712 0.715603 -14.300061 0
M  V30 74 H 6.901074 -0.312143 -22.244909 0
M  V30 75 H 7.611995 -1.853294 -21.861653 0
M  V30 76 H 12.521452 0.141989 -20.385301 0
M  V30 77 H 12.628053 1.390308 -19.170085 0
M  V30 78 H 13.018068 5.019591 -21.087010 0
M  V30 79 H 13.002660 3.858747 -22.371024 0
M  V30 80 H 16.086275 10.306205 -19.629533 0
M  V30 81 H 15.607434 9.437463 -18.185624 0
M  V30 END ATOM
M  V30 BEGIN BOND
M  V30 1 2 5 1
M  V30 2 2 7 4
M  V30 3 1 8 3
M  V30 4 1 12 4
M  V30 5 1 16 13
M  V30 6 1 16 15
M  V30 7 1 18 4
M  V30 8 1 18 6
M  V30 9 1 19 11
M  V30 10 1 20 1
M  V30 11 1 20 17
M  V30 12 2 21 10
M  V30 13 1 25 8
M  V30 14 1 27 1
M  V30 15 1 27 2 CFG=1
M  V30 16 1 27 15
M  V30 17 1 28 9
M  V30 18 1 28 25
M  V30 19 1 29 19
M  V30 20 1 29 22
M  V30 21 1 31 19
M  V30 22 2 32 14
M  V30 23 2 32 24
M  V30 24 1 32 25
M  V30 25 1 34 27
M  V30 26 1 34 31
M  V30 27 2 35 31
M  V30 28 1 36 18
M  V30 29 1 37 18
M  V30 30 1 37 36
M  V30 31 2 38 6
M  V30 32 1 38 7
M  V30 33 1 39 3
M  V30 34 1 39 10
M  V30 35 1 40 16
M  V30 36 2 40 30
M  V30 37 1 40 35
M  V30 38 2 41 15
M  V30 39 1 42 6
M  V30 40 1 42 23
M  V30 41 1 42 26
M  V30 42 1 42 33
M  V30 43 1 43 17
M  V30 44 1 43 28
M  V30 45 1 44 9
M  V30 46 1 44 20
M  V30 47 2 45 21
M  V30 48 1 45 32
M  V30 49 1 45 38
M  V30 50 1 46 22
M  V30 51 1 46 35
M  V30 52 1 47 2
M  V30 53 1 48 3
M  V30 54 1 49 3
M  V30 55 1 50 7
M  V30 56 1 51 8
M  V30 57 1 52 8
M  V30 58 1 53 9
M  V30 59 1 54 9
M  V30 60 1 55 10
M  V30 61 1 56 11
M  V30 62 1 57 11
M  V30 63 1 58 11
M  V30 64 1 59 13
M  V30 65 1 60 13
M  V30 66 1 61 13
M  V30 67 1 62 17
M  V30 68 1 63 17
M  V30 69 1 19 64 CFG=3
M  V30 70 1 65 28
M  V30 71 1 66 29
M  V30 72 1 67 29
M  V30 73 1 68 34
M  V30 74 1 69 34
M  V30 75 1 70 36
M  V30 76 1 71 36
M  V30 77 1 72 37
M  V30 78 1 73 37
M  V30 79 1 74 39
M  V30 80 1 75 39
M  V30 81 1 76 43
M  V30 82 1 77 43
M  V30 83 1 78 44
M  V30 84 1 79 44
M  V30 85 1 80 46
M  V30 86 1 81 46
M  V30 END BOND
M  V30 END CTAB
M  END
>  <i_epik_Tot_Q>  (1) 
0

>  <i_epik_Tot_abs_Q>  (1) 
0

>  <i_i_glide_confnum>  (1) 
91

>  <i_i_glide_lignum>  (1) 
98

>  <i_i_glide_posenum>  (1) 
50

>  <i_i_glide_rotatable_bonds>  (1) 
6

>  <i_lp_mmshare_version>  (1) 
72125

>  <i_m_source_file_index>  (1) 
36

>  <i_f3d_flags>  (1) 
0

>  <num_sample>  (1) 
50

>  <b_lp_Chiralities_Consistent>  (1) 
1

>  <r_epik_Charging_Adjusted_Penalty>  (1) 
0.04028888123744899

>  <r_epik_Ionization_Penalty>  (1) 
0.040288881244714927

>  <r_epik_Ionization_Penalty_Charging>  (1) 
0

>  <r_epik_Ionization_Penalty_Neutral>  (1) 
0.040288881244714927

>  <r_epik_State_Penalty>  (1) 
0.04028888123744899

>  <r_glide_ring_energy>  (1) 
0

>  <r_i_docking_score>  (1) 
-2.9599568023970999

>  <r_i_glide_ecoul>  (1) 
0.55658686222498388

>  <r_i_glide_eff_state_penalty>  (1) 
0.04028888123744899

>  <r_i_glide_einternal>  (1) 
8.6913319030205329

>  <r_i_glide_emodel>  (1) 
-25.899710173216615

>  <r_i_glide_emodel_strain>  (1) 
1.7498177331933391

>  <r_i_glide_energy>  (1) 
-26.857432743447148

>  <r_i_glide_erotb>  (1) 
0.028804905803733735

>  <r_i_glide_esite>  (1) 
-0.019375379253737123

>  <r_i_glide_evdw>  (1) 
-27.414019605672131

>  <r_i_glide_gscore>  (1) 
-3.000245683634549

>  <r_i_glide_gscore_strain>  (1) 
0

>  <r_i_glide_hbond>  (1) 
0

>  <r_i_glide_ligand_efficiency>  (1) 
-0.0643468870086326

>  <r_i_glide_ligand_efficiency_ln>  (1) 
-0.61299992261783709

>  <r_i_glide_ligand_efficiency_sa>  (1) 
-0.23055797650278476

>  <r_i_glide_lipo>  (1) 
-1.2955363343691488

>  <r_i_glide_metal>  (1) 
-0

>  <r_i_glide_rewards>  (1) 
-0.42692592486553815

>  <r_lp_Energy>  (1) 
64.057782000000003

>  <s_epik_cmdline>  (1) 
J2VwaWtfcHl0aG9uJywgJy1waHQnLCAnMS4wJywgJy1waCcsICc3LjQnLCAnLXRuJywgJzgnLCAnLW1hJywgJzUwMCcsICctaW1hZScsICc8aW5maWxlLm1hZT4nLCAnLW9tYWUnLCAnPG91dGZpbGUubWFlPic=

>  <s_epik_input>  (1) 
W0NIM11bQ0BASF0xW0NIMl1PW0NIMl1DKD1DMTIpQyg9TylOKFtDSDNdKUMoPU8pW0NAXShbT0hdKShbQ0gyXTIpQyg9TylOM1tDSDJdW0NIMl1bQ0hdKFtDSDJdW0NIMl0zKU4oUzQoPU8pPU8pW0NIMl1bQ0gyXVtDSDJdW0NIXT1DPUM0Qyg9QzVDKEYpKEYpRilbQ0hdPUMoRilDNTZbQ0gyXVtDSDJdNg==

>  <s_glide_docking_method>  (1) 
confgen

>  <s_i_glide_gridfile>  (1) 
gpcr_drd2_6luq_protein_autoprepared_prepared

>  <s_lp_Force_Field>  (1) 
S-OPLS

>  <s_lp_Variant>  (1) 
DiffSBDD_35-1

>  <s_m_source_file>  (1) 
generated_generic_title2_ligand_DiffSBDD_2026-06-23_prepared.sdf

>  <GenAI_Model>  (1) 
DiffSBDD

>  <Protein>  (1) 
generic_title2

$$$$
DiffSBDD_1
     RDKit          3D

  0  0  0  0  0  0  0  0  0  0999 V3000
M  V30 BEGIN CTAB
M  V30 COUNTS 89 91 0 0 1
M  V30 BEGIN ATOM
M  V30 1 O 7.378116 5.076200 -12.852926 0
M  V30 2 O 8.175388 5.190218 -8.558445 0
M  V30 3 C 8.436339 3.074105 -17.495967 0 CFG=2
M  V30 4 C 10.092866 1.109387 -17.857773 0
M  V30 5 C 7.430184 -3.009204 -18.395352 0
M  V30 6 C 9.372038 8.663779 -6.853641 0
M  V30 7 C 4.827849 -0.701620 -18.301195 0
M  V30 8 C 9.200413 5.328302 -9.511361 0 CFG=1
M  V30 9 C 9.555243 4.134788 -17.203986 0 CFG=1
M  V30 10 C 6.375873 1.301645 -18.988392 0 CFG=2
M  V30 11 C 9.813623 -0.362326 -18.145471 0
M  V30 12 O 12.280409 5.887481 -19.647935 0 CHG=-1
M  V30 13 C 7.912691 -1.740587 -19.123417 0
M  V30 14 C 7.843455 2.559689 -16.153042 0
M  V30 15 C 8.719244 4.882387 -10.908723 0
M  V30 16 C 4.944242 -2.210759 -18.619318 0
M  V30 17 C 8.909098 1.908411 -18.436083 0 CFG=1
M  V30 18 C 6.013015 -2.948780 -17.786414 0
M  V30 19 C 9.811427 6.744038 -9.468579 0
M  V30 20 C 8.505386 4.625113 -14.893969 0 CFG=2
M  V30 21 C 10.969316 7.078586 -5.727722 0
M  V30 22 F 4.192618 1.007555 -19.669411 0
M  V30 23 C 10.005285 7.267856 -6.905890 0
M  V30 24 C 7.344548 3.697805 -15.267325 0
M  V30 25 C 6.156443 5.344083 -10.920551 0
M  V30 26 F 6.356402 2.279921 -19.897785 0
M  V30 27 O 12.130212 6.100373 -17.142843 0 CHG=-1
M  V30 28 O 12.602342 3.855088 -18.196081 0
M  V30 29 P 11.921780 5.202086 -18.344947 0
M  V30 30 C 10.721495 7.003140 -8.246702 0
M  V30 31 C 7.524513 5.625574 -11.558808 0 CFG=2
M  V30 32 C 7.873855 0.845419 -18.930939 0 CFG=1
M  V30 33 O 7.768194 -0.556053 -16.950550 0
M  V30 34 C 8.087714 5.716245 -13.898465 0
M  V30 35 C 10.124619 4.854729 -18.459130 0
M  V30 36 C 8.284566 -0.495623 -18.266476 0 CFG=2
M  V30 37 C 9.100969 5.207322 -16.182160 0
M  V30 38 C 5.281299 0.285763 -19.407104 0 CFG=2
M  V30 39 H 7.588485 5.934324 -8.649715 0
M  V30 40 H 7.641195 3.608729 -18.016331 0
M  V30 41 H 11.045141 1.435205 -18.278845 0
M  V30 42 H 10.175464 1.245798 -16.785039 0
M  V30 43 H 7.438179 -3.820938 -19.123789 0
M  V30 44 H 8.150270 -3.301272 -17.629639 0
M  V30 45 H 10.138184 9.435684 -6.785007 0
M  V30 46 H 8.758685 8.869700 -7.730525 0
M  V30 47 H 8.722092 8.758291 -5.985125 0
M  V30 48 H 3.775372 -0.514325 -18.097525 0
M  V30 49 H 5.291812 -0.457322 -17.348206 0
M  V30 50 H 9.970428 4.617842 -9.211627 0
M  V30 51 H 10.382959 3.597883 -16.740295 0
M  V30 52 H 6.039950 1.772052 -18.072416 0
M  V30 53 H 10.294479 -0.598801 -19.095162 0
M  V30 54 H 10.245856 -1.025757 -17.394954 0
M  V30 55 H 7.189059 -1.481867 -19.887299 0
M  V30 56 H 8.774243 -2.023315 -19.726732 0
M  V30 57 H 8.575460 1.990577 -15.586542 0
M  V30 58 H 7.023052 1.865492 -16.291806 0
M  V30 59 H 9.575383 4.950488 -11.580269 0
M  V30 60 H 8.489460 3.819815 -10.875092 0
M  V30 61 H 5.066236 -2.398893 -19.686277 0
M  V30 62 H 3.982747 -2.663510 -18.371997 0
M  V30 63 H 9.262182 2.358990 -19.359404 0
M  V30 64 H 5.681280 -3.976295 -17.631060 0
M  V30 65 H 6.046800 -2.524528 -16.784991 0
M  V30 66 H 10.430167 6.864206 -10.358089 0
M  V30 67 H 9.038928 7.505086 -9.554638 0
M  V30 68 H 9.266784 4.032488 -14.392404 0
M  V30 69 H 11.775410 7.811589 -5.750854 0
M  V30 70 H 10.439747 7.190778 -4.785026 0
M  V30 71 H 11.413650 6.082546 -5.731986 0
M  V30 72 H 9.211185 6.536748 -6.769271 0
M  V30 73 H 6.882352 3.265389 -14.379756 0
M  V30 74 H 6.575407 4.270701 -15.780738 0
M  V30 75 H 6.032218 5.875081 -9.985026 0
M  V30 76 H 5.351610 5.685614 -11.572019 0
M  V30 77 H 6.005789 4.280659 -10.734238 0
M  V30 78 H 11.375409 6.141785 -8.127650 0
M  V30 79 H 11.381171 7.843735 -8.464996 0
M  V30 80 H 7.692052 6.703242 -11.607906 0
M  V30 81 H 8.132159 0.688858 -19.980697 0
M  V30 82 H 7.983051 -1.396244 -16.567757 0
M  V30 83 H 7.444238 6.464874 -14.362318 0
M  V30 84 H 8.975633 6.227027 -13.525112 0
M  V30 85 H 9.981824 4.278675 -19.365770 0
M  V30 86 H 9.577788 5.779181 -18.642472 0
M  V30 87 H 8.355140 5.850612 -16.650161 0
M  V30 88 H 9.940358 5.852578 -15.927562 0
M  V30 89 H 5.515236 -0.203271 -20.351449 0
M  V30 END ATOM
M  V30 BEGIN BOND
M  V30 1 1 8 2
M  V30 2 1 9 3
M  V30 3 1 11 4
M  V30 4 1 13 5
M  V30 5 1 14 3
M  V30 6 1 15 8
M  V30 7 1 16 7
M  V30 8 1 17 3
M  V30 9 1 17 4
M  V30 10 1 18 5
M  V30 11 1 18 16
M  V30 12 1 19 8
M  V30 13 1 23 6
M  V30 14 1 23 21
M  V30 15 1 24 14
M  V30 16 1 24 20
M  V30 17 1 26 10
M  V30 18 1 29 12
M  V30 19 1 29 27
M  V30 20 2 29 28
M  V30 21 1 30 19
M  V30 22 1 30 23
M  V30 23 1 31 1
M  V30 24 1 31 15
M  V30 25 1 31 25
M  V30 26 1 32 10
M  V30 27 1 32 17
M  V30 28 1 34 1
M  V30 29 1 34 20
M  V30 30 1 35 9
M  V30 31 1 35 29
M  V30 32 1 36 11
M  V30 33 1 36 13
M  V30 34 1 36 32
M  V30 35 1 36 33 CFG=1
M  V30 36 1 37 9
M  V30 37 1 37 20
M  V30 38 1 38 7
M  V30 39 1 38 10
M  V30 40 1 38 22
M  V30 41 1 39 2
M  V30 42 1 3 40 CFG=3
M  V30 43 1 41 4
M  V30 44 1 42 4
M  V30 45 1 43 5
M  V30 46 1 44 5
M  V30 47 1 45 6
M  V30 48 1 46 6
M  V30 49 1 47 6
M  V30 50 1 48 7
M  V30 51 1 49 7
M  V30 52 1 8 50 CFG=1
M  V30 53 1 9 51 CFG=1
M  V30 54 1 10 52 CFG=1
M  V30 55 1 53 11
M  V30 56 1 54 11
M  V30 57 1 55 13
M  V30 58 1 56 13
M  V30 59 1 57 14
M  V30 60 1 58 14
M  V30 61 1 59 15
M  V30 62 1 60 15
M  V30 63 1 61 16
M  V30 64 1 62 16
M  V30 65 1 17 63 CFG=3
M  V30 66 1 64 18
M  V30 67 1 65 18
M  V30 68 1 66 19
M  V30 69 1 67 19
M  V30 70 1 20 68 CFG=1
M  V30 71 1 69 21
M  V30 72 1 70 21
M  V30 73 1 71 21
M  V30 74 1 72 23
M  V30 75 1 73 24
M  V30 76 1 74 24
M  V30 77 1 75 25
M  V30 78 1 76 25
M  V30 79 1 77 25
M  V30 80 1 78 30
M  V30 81 1 79 30
M  V30 82 1 31 80 CFG=3
M  V30 83 1 32 81 CFG=3
M  V30 84 1 82 33
M  V30 85 1 83 34
M  V30 86 1 84 34
M  V30 87 1 85 35
M  V30 88 1 86 35
M  V30 89 1 87 37
M  V30 90 1 88 37
M  V30 91 1 38 89 CFG=3
M  V30 END BOND
M  V30 END CTAB
M  END
>  <i_epik_Tot_Q>  (1) 
-2

>  <i_epik_Tot_abs_Q>  (1) 
2

>  <i_i_glide_confnum>  (1) 
2776

>  <i_i_glide_lignum>  (1) 
20

>  <i_i_glide_posenum>  (1) 
379

>  <i_i_glide_rotatable_bonds>  (1) 
13

>  <i_lp_mmshare_version>  (1) 
72125

>  <i_m_source_file_index>  (1) 
2

>  <i_f3d_flags>  (1) 
0

>  <num_sample>  (1) 
50

>  <b_lp_Chiralities_Consistent>  (1) 
1

>  <r_epik_Charging_Adjusted_Penalty>  (1) 
1.8994269935217587

>  <r_epik_Ionization_Penalty>  (1) 
0.94971411018702601

>  <r_epik_Ionization_Penalty_Charging>  (1) 
0.94971349676087924

>  <r_epik_Ionization_Penalty_Neutral>  (1) 
6.1342614676121867e-07

>  <r_epik_State_Penalty>  (1) 
0.94971349676087935

>  <r_glide_ring_energy>  (1) 
0

>  <r_i_docking_score>  (1) 
-2.9380436199640156

>  <r_i_glide_ecoul>  (1) 
-0.72185167183932641

>  <r_i_glide_eff_state_penalty>  (1) 
0.94971349676087935

>  <r_i_glide_einternal>  (1) 
7.0462629273527462

>  <r_i_glide_emodel>  (1) 
-39.534581735788933

>  <r_i_glide_emodel_strain>  (1) 
0.40518181217329641

>  <r_i_glide_energy>  (1) 
-35.87394226944857

>  <r_i_glide_erotb>  (1) 
0.50299043937721266

>  <r_i_glide_esite>  (1) 
0

>  <r_i_glide_evdw>  (1) 
-35.152090597609245

>  <r_i_glide_gscore>  (1) 
-3.8877571167248952

>  <r_i_glide_gscore_strain>  (1) 
0

>  <r_i_glide_hbond>  (1) 
-0.22813261827110104

>  <r_i_glide_ligand_efficiency>  (1) 
-0.077316937367474095

>  <r_i_glide_ligand_efficiency_ln>  (1) 
-0.63352863295101736

>  <r_i_glide_ligand_efficiency_sa>  (1) 
-0.25993764195846375

>  <r_i_glide_lipo>  (1) 
-1.7515151142796799

>  <r_i_glide_metal>  (1) 
-0

>  <r_i_glide_rewards>  (1) 
-0.54521754289496549

>  <r_lp_Energy>  (1) 
44.677890999999995

>  <s_epik_cmdline>  (1) 
J2VwaWtfcHl0aG9uJywgJy1waHQnLCAnMS4wJywgJy1waCcsICc3LjQnLCAnLXRuJywgJzgnLCAnLW1hJywgJzUwMCcsICctaW1hZScsICc8aW5maWxlLm1hZT4nLCAnLW9tYWUnLCAnPG91dGZpbGUubWFlPic=

>  <s_epik_input>  (1) 
W0NIM11bQ0hdKFtDSDNdKVtDSDJdW0NIMl1bQ0BASF0oW09IXSlbQ0gyXVtDQEhdKFtDSDNdKU9bQ0gyXVtDQEBIXShbQ0gyXVtDSDJdMSlbQ0gyXVtDQEhdKFtDSDJdUCg9TykoW09IXSlbT0hdKVtDQEhdMVtDQEBIXShbQ0gyXVtDSDJdMilbQ0BASF0oW0NAXTIzW09IXSlbQ0BASF0oRilbQ0BIXShGKVtDSDJdW0NIMl1bQ0gyXVtDSDJdW0NIMl0z

>  <s_glide_docking_method>  (1) 
confgen

>  <s_i_glide_gridfile>  (1) 
gpcr_drd2_6luq_protein_autoprepared_prepared

>  <s_lp_Force_Field>  (1) 
S-OPLS

>  <s_lp_Variant>  (1) 
DiffSBDD_1-4

>  <s_m_source_file>  (1) 
generated_generic_title2_ligand_DiffSBDD_2026-06-23_prepared.sdf

>  <GenAI_Model>  (1) 
DiffSBDD

>  <Protein>  (1) 
generic_title2

$$$$
DiffSBDD_9
     RDKit          3D

  0  0  0  0  0  0  0  0  0  0999 V3000
M  V30 BEGIN CTAB
M  V30 COUNTS 77 78 0 0 1
M  V30 BEGIN ATOM
M  V30 1 C 9.919777 8.086595 -7.754504 0
M  V30 2 F 7.130997 6.364073 -19.613137 0
M  V30 3 C 7.808750 4.358267 -15.528458 0 CFG=1
M  V30 4 O 8.606542 4.702959 -20.056261 0
M  V30 5 F 8.575409 2.198392 -13.226815 0
M  V30 6 C 7.505062 5.108675 -13.013482 0 CFG=2
M  V30 7 O 12.574982 8.075511 -2.175401 0
M  V30 8 C 9.811222 6.681201 -11.253295 0
M  V30 9 C 8.230149 4.602452 -11.756643 0 CFG=2
M  V30 10 F 7.917410 6.117563 -21.606502 0
M  V30 11 O 10.016377 7.104868 -12.384950 0
M  V30 12 C 12.175436 8.198333 -3.330674 0
M  V30 13 C 9.329844 5.549885 -17.894516 0
M  V30 14 C 7.549494 3.263075 -16.595242 0
M  V30 15 O 11.108733 3.767457 -19.380350 0
M  V30 16 F 6.731354 3.583082 -21.762183 0
M  V30 17 C 11.304492 8.736156 -7.756640 0
M  V30 18 C 9.775289 6.959806 -8.788289 0
M  V30 19 F 9.466975 2.239428 -19.691718 0
M  V30 20 O 11.795037 9.190227 -8.786128 0
M  V30 21 C 7.536089 5.427116 -20.504964 0
M  V30 22 N 9.991273 7.441727 -10.158314 0
M  V30 23 C 9.921044 3.209666 -18.860244 0
M  V30 24 C 6.265574 5.940062 -12.607649 0
M  V30 25 O 6.355877 2.138430 -12.785006 0
M  V30 26 F 10.225620 2.602359 -17.689189 0
M  V30 27 C 8.822696 4.310964 -18.682522 0 CFG=2
M  V30 28 C 7.209434 4.008588 -14.121456 0 CFG=2
M  V30 29 C 9.281136 4.738422 -15.495991 0
M  V30 30 O 8.010197 5.374948 -10.573297 0
M  V30 31 C 7.350978 2.503262 -13.710890 0 CFG=1
M  V30 32 C 5.639091 6.696882 -13.788825 0
M  V30 33 C 5.251529 5.124109 -11.785210 0
M  V30 34 C 12.055802 9.580599 -3.971001 0
M  V30 35 C 9.358771 5.282376 -10.991475 0 CFG=2
M  V30 36 C 9.950672 5.257065 -16.538614 0
M  V30 37 C 6.340265 4.556815 -20.939579 0
M  V30 38 C 11.332067 9.592358 -5.332651 0
M  V30 39 C 7.513874 3.742714 -18.057043 0
M  V30 40 C 12.053500 8.790415 -6.432333 0
M  V30 41 H 9.170533 8.855702 -7.945821 0
M  V30 42 H 9.706585 7.686542 -6.763407 0
M  V30 43 H 7.284079 5.258242 -15.852096 0
M  V30 44 H 8.168933 5.842571 -13.460662 0
M  V30 45 H 8.031611 3.589177 -11.499373 0
M  V30 46 H 11.885984 7.357016 -3.960795 0
M  V30 47 H 10.073482 6.085825 -18.485010 0
M  V30 48 H 8.516083 6.253115 -17.737162 0
M  V30 49 H 8.249405 2.438810 -16.472380 0
M  V30 50 H 6.575510 2.814133 -16.413319 0
M  V30 51 H 11.785326 3.638759 -18.735269 0
M  V30 52 H 8.776398 6.544197 -8.662714 0
M  V30 53 H 10.484724 6.162605 -8.560349 0
M  V30 54 H 10.301028 8.395608 -10.274320 0
M  V30 55 H 6.622285 6.734291 -11.949053 0
M  V30 56 H 5.890288 1.391688 -13.130062 0
M  V30 57 H 6.139791 4.074641 -14.316534 0
M  V30 58 H 9.804091 4.564767 -14.565465 0
M  V30 59 H 7.161753 1.837470 -14.547235 0
M  V30 60 H 5.067792 6.041028 -14.445781 0
M  V30 61 H 4.975418 7.478902 -13.424657 0
M  V30 62 H 6.402454 7.191583 -14.389817 0
M  V30 63 H 4.682472 4.430870 -12.405995 0
M  V30 64 H 5.720141 4.524626 -11.006745 0
M  V30 65 H 4.575424 5.794572 -11.257829 0
M  V30 66 H 13.059794 9.990200 -4.077527 0
M  V30 67 H 11.516847 10.222292 -3.272375 0
M  V30 68 H 9.963747 4.656002 -10.344004 0
M  V30 69 H 10.998776 5.493681 -16.429193 0
M  V30 70 H 5.822466 4.082764 -20.109110 0
M  V30 71 H 5.602714 5.154642 -21.474670 0
M  V30 72 H 11.229857 10.627696 -5.659160 0
M  V30 73 H 10.316938 9.221577 -5.201439 0
M  V30 74 H 6.725585 4.491718 -18.100310 0
M  V30 75 H 7.171865 2.906754 -18.668072 0
M  V30 76 H 12.174865 7.755706 -6.129714 0
M  V30 77 H 13.051226 9.193953 -6.606315 0
M  V30 END ATOM
M  V30 BEGIN BOND
M  V30 1 1 9 6
M  V30 2 2 11 8
M  V30 3 2 12 7
M  V30 4 1 14 3
M  V30 5 1 17 1
M  V30 6 1 18 1
M  V30 7 2 20 17
M  V30 8 1 21 2
M  V30 9 1 21 4
M  V30 10 1 21 10
M  V30 11 1 22 8
M  V30 12 1 22 18
M  V30 13 1 23 15
M  V30 14 1 23 19
M  V30 15 1 24 6
M  V30 16 1 26 23
M  V30 17 1 27 4 CFG=3
M  V30 18 1 27 13
M  V30 19 1 27 23
M  V30 20 1 28 3
M  V30 21 1 28 6
M  V30 22 1 29 3
M  V30 23 1 30 9
M  V30 24 1 31 5
M  V30 25 1 31 25
M  V30 26 1 31 28
M  V30 27 1 32 24
M  V30 28 1 33 24
M  V30 29 1 34 12
M  V30 30 1 35 8
M  V30 31 1 35 9
M  V30 32 1 35 30
M  V30 33 1 36 13
M  V30 34 2 36 29
M  V30 35 1 37 16
M  V30 36 1 37 21
M  V30 37 1 38 34
M  V30 38 1 39 14
M  V30 39 1 39 27
M  V30 40 1 40 17
M  V30 41 1 40 38
M  V30 42 1 41 1
M  V30 43 1 42 1
M  V30 44 1 3 43 CFG=3
M  V30 45 1 6 44 CFG=3
M  V30 46 1 9 45 CFG=1
M  V30 47 1 46 12
M  V30 48 1 47 13
M  V30 49 1 48 13
M  V30 50 1 49 14
M  V30 51 1 50 14
M  V30 52 1 51 15
M  V30 53 1 52 18
M  V30 54 1 53 18
M  V30 55 1 54 22
M  V30 56 1 55 24
M  V30 57 1 56 25
M  V30 58 1 28 57 CFG=3
M  V30 59 1 58 29
M  V30 60 1 31 59 CFG=3
M  V30 61 1 60 32
M  V30 62 1 61 32
M  V30 63 1 62 32
M  V30 64 1 63 33
M  V30 65 1 64 33
M  V30 66 1 65 33
M  V30 67 1 66 34
M  V30 68 1 67 34
M  V30 69 1 35 68 CFG=1
M  V30 70 1 69 36
M  V30 71 1 70 37
M  V30 72 1 71 37
M  V30 73 1 72 38
M  V30 74 1 73 38
M  V30 75 1 74 39
M  V30 76 1 75 39
M  V30 77 1 76 40
M  V30 78 1 77 40
M  V30 END BOND
M  V30 END CTAB
M  END
>  <i_epik_Tot_Q>  (1) 
0

>  <i_epik_Tot_abs_Q>  (1) 
0

>  <i_i_glide_confnum>  (1) 
5394

>  <i_i_glide_lignum>  (1) 
45

>  <i_i_glide_posenum>  (1) 
180

>  <i_i_glide_rotatable_bonds>  (1) 
20

>  <i_lp_mmshare_version>  (1) 
72125

>  <i_m_source_file_index>  (1) 
10

>  <i_f3d_flags>  (1) 
0

>  <num_sample>  (1) 
50

>  <b_lp_Chiralities_Consistent>  (1) 
1

>  <r_epik_Charging_Adjusted_Penalty>  (1) 
0.024791601223723252

>  <r_epik_Ionization_Penalty>  (1) 
0.024829857689501161

>  <r_epik_Ionization_Penalty_Charging>  (1) 
0

>  <r_epik_Ionization_Penalty_Neutral>  (1) 
0.024829857689501161

>  <r_epik_State_Penalty>  (1) 
0.024791601223723252

>  <r_glide_ring_energy>  (1) 
0

>  <r_i_docking_score>  (1) 
-2.936363935078226

>  <r_i_glide_ecoul>  (1) 
1.5695743530427146

>  <r_i_glide_eff_state_penalty>  (1) 
0.024791601223723252

>  <r_i_glide_einternal>  (1) 
25.976934567610439

>  <r_i_glide_emodel>  (1) 
-27.128413490181124

>  <r_i_glide_emodel_strain>  (1) 
1.9485337859041891

>  <r_i_glide_energy>  (1) 
-35.656723317918299

>  <r_i_glide_erotb>  (1) 
0.79596426883134463

>  <r_i_glide_esite>  (1) 
-0.1244431293862204

>  <r_i_glide_evdw>  (1) 
-37.226297670961017

>  <r_i_glide_gscore>  (1) 
-2.9611555363019493

>  <r_i_glide_gscore_strain>  (1) 
0

>  <r_i_glide_hbond>  (1) 
0

>  <r_i_glide_ligand_efficiency>  (1) 
-0.073409098376955653

>  <r_i_glide_ligand_efficiency_ln>  (1) 
-0.62624001401910956

>  <r_i_glide_ligand_efficiency_sa>  (1) 
-0.25105558498363506

>  <r_i_glide_lipo>  (1) 
-1.9136191285377095

>  <r_i_glide_metal>  (1) 
-0

>  <r_i_glide_rewards>  (1) 
-0.093178816617720317

>  <r_lp_Energy>  (1) 
29.47728

>  <r_lp_tautomer_probability>  (1) 
0.99989996500775002

>  <s_epik_cmdline>  (1) 
J2VwaWtfcHl0aG9uJywgJy1waHQnLCAnMS4wJywgJy1waCcsICc3LjQnLCAnLXRuJywgJzgnLCAnLW1hJywgJzUwMCcsICctaW1hZScsICc8aW5maWxlLm1hZT4nLCAnLW9tYWUnLCAnPG91dGZpbGUubWFlPic=

>  <s_epik_input>  (1) 
Tz1bQ0hdW0NIMl1bQ0gyXVtDSDJdQyg9TylbQ0gyXVtDSDJdW05IXUMoPU8pW0NASF0xT1tDQEhdMVtDQEhdKFtDSF0oW0NIM10pW0NIM10pW0NASF0oW0NAQEhdKEYpW09IXSlbQ0BIXShbQ0gyXVtDSDJdMilbQ0hdPVtDSF1bQ0gyXVtDQF0yKEMoRikoRilbT0hdKU9DKEYpKEYpW0NIMl1G

>  <s_glide_docking_method>  (1) 
confgen

>  <s_i_glide_gridfile>  (1) 
gpcr_drd2_6luq_protein_autoprepared_prepared

>  <s_lp_Force_Field>  (1) 
S-OPLS

>  <s_lp_Variant>  (1) 
DiffSBDD_9-2

>  <s_m_source_file>  (1) 
generated_generic_title2_ligand_DiffSBDD_2026-06-23_prepared.sdf

>  <GenAI_Model>  (1) 
DiffSBDD

>  <Protein>  (1) 
generic_title2

$$$$
DiffSBDD_37
     RDKit          3D

  0  0  0  0  0  0  0  0  0  0999 V3000
M  V30 BEGIN CTAB
M  V30 COUNTS 79 84 0 0 1
M  V30 BEGIN ATOM
M  V30 1 C 7.853829 0.451388 -18.175378 0 CFG=1
M  V30 2 O 2.575415 -4.852349 -19.985002 0
M  V30 3 F 5.311787 7.027145 -19.523162 0
M  V30 4 C 6.247521 -2.947548 -17.821544 0
M  V30 5 C 5.429701 1.556624 -19.765255 0
M  V30 6 O 8.175442 1.522179 -16.066875 0 CHG=-1
M  V30 7 C 7.355021 0.910306 -16.786320 0
M  V30 8 C 6.070843 5.419808 -21.989624 0
M  V30 9 C 7.920103 -1.637319 -19.495165 0
M  V30 10 O 6.534890 2.277117 -19.233793 0
M  V30 11 C 10.260983 2.228066 -18.620690 0
M  V30 12 C 6.341640 -4.738671 -19.696579 0
M  V30 13 F 3.584067 8.588727 -23.236719 0
M  V30 14 C 3.933362 -5.032346 -17.991340 0
M  V30 15 C 7.446088 -2.060029 -18.119411 0 CFG=2
M  V30 16 C 7.728426 3.759938 -22.919915 0
M  V30 17 O 11.186934 3.224783 -19.030926 0
M  V30 18 C 9.681630 2.896269 -21.550845 0
M  V30 19 C 10.474450 4.288577 -19.639652 0
M  V30 20 C 5.354841 -5.314844 -17.468815 0
M  V30 21 C 3.843502 -5.261034 -19.511153 0 CFG=2
M  V30 22 C 4.344526 7.582633 -22.774915 0
M  V30 23 C 3.862637 6.161958 -22.984568 0
M  V30 24 O 8.512848 -2.035459 -17.185029 0
M  V30 25 C 7.090781 4.336410 -21.648081 0 CFG=1
M  V30 26 C 6.444752 6.845169 -21.581557 0 CFG=1
M  V30 27 O 6.175811 0.647029 -16.456986 0
M  V30 28 N 7.130786 -0.740213 -18.660829 0
M  V30 29 C 7.795875 1.602972 -19.232482 0 CFG=1
M  V30 30 C 8.866576 2.719118 -19.054132 0 CFG=2
M  V30 31 C 8.585928 2.544033 -22.572527 0
M  V30 32 C 5.493006 7.884609 -22.152462 0
M  V30 33 C 6.412583 -4.444997 -18.180635 0 CFG=2
M  V30 34 C 6.537878 6.988391 -20.048187 0 CFG=2
M  V30 35 C 4.910965 5.130411 -22.613055 0
M  V30 36 S 7.488723 5.670956 -19.225717 0
M  V30 37 C 4.935023 -4.489926 -20.279862 0
M  V30 38 C 8.195960 4.778451 -20.649422 0 CFG=1
M  V30 39 C 9.213948 3.648577 -20.258381 0 CFG=2
M  V30 40 H 8.898860 0.186791 -18.030257 0
M  V30 41 H 1.975133 -4.787725 -19.251456 0
M  V30 42 H 6.018039 -2.844356 -16.764550 0
M  V30 43 H 5.376080 -2.533004 -18.326743 0
M  V30 44 H 4.610002 2.248218 -19.957088 0
M  V30 45 H 5.678166 1.071120 -20.709736 0
M  V30 46 H 5.060602 0.808052 -19.065339 0
M  V30 47 H 8.937760 -1.280410 -19.646084 0
M  V30 48 H 7.347898 -1.901319 -20.381265 0
M  V30 49 H 10.326717 2.071714 -17.543656 0
M  V30 50 H 10.531681 1.292151 -19.110474 0
M  V30 51 H 7.084500 -4.159634 -20.241324 0
M  V30 52 H 6.610068 -5.782388 -19.864855 0
M  V30 53 H 3.649653 -4.009793 -17.743562 0
M  V30 54 H 3.219561 -5.672530 -17.472185 0
M  V30 55 H 8.333580 4.519826 -23.416500 0
M  V30 56 H 6.960798 3.459434 -23.633931 0
M  V30 57 H 10.394677 3.528367 -22.081350 0
M  V30 58 H 10.238711 1.993259 -21.303562 0
M  V30 59 H 10.219959 5.007240 -18.859636 0
M  V30 60 H 11.099442 4.814338 -20.362209 0
M  V30 61 H 5.588885 -6.368553 -17.623827 0
M  V30 62 H 5.399165 -5.164826 -16.390036 0
M  V30 63 H 3.951125 -6.328093 -19.709651 0
M  V30 64 H 3.578902 6.027500 -24.024734 0
M  V30 65 H 2.975428 5.990215 -22.384792 0
M  V30 66 H 8.175416 -2.304892 -16.329406 0
M  V30 67 H 6.503239 3.544138 -21.201141 0
M  V30 68 H 7.415489 7.065102 -22.026137 0
M  V30 69 H 7.966721 1.141350 -20.199480 0
M  V30 70 H 8.522865 3.337148 -18.224405 0
M  V30 71 H 9.051711 2.157975 -23.479834 0
M  V30 72 H 7.943748 1.743250 -22.213876 0
M  V30 73 H 5.779909 8.919170 -22.035095 0
M  V30 74 H 7.391844 -4.758661 -17.815838 0
M  V30 75 H 6.997204 7.946354 -19.811652 0
M  V30 76 H 4.690809 4.105980 -22.877806 0
M  V30 77 H 4.714496 -3.422472 -20.266705 0
M  V30 78 H 4.917885 -4.781759 -21.330328 0
M  V30 79 H 8.796262 5.525165 -21.170221 0
M  V30 END ATOM
M  V30 BEGIN BOND
M  V30 1 1 7 1
M  V30 2 1 7 6
M  V30 3 1 10 5
M  V30 4 1 15 4
M  V30 5 1 15 9
M  V30 6 1 17 11
M  V30 7 1 19 17
M  V30 8 1 20 14
M  V30 9 1 21 2
M  V30 10 1 21 14
M  V30 11 1 22 13
M  V30 12 1 23 22
M  V30 13 1 15 24 CFG=1
M  V30 14 1 25 8
M  V30 15 1 25 16
M  V30 16 1 26 8
M  V30 17 2 27 7
M  V30 18 1 28 1
M  V30 19 1 28 9
M  V30 20 1 28 15
M  V30 21 1 29 1
M  V30 22 1 29 10
M  V30 23 1 30 11
M  V30 24 1 30 29
M  V30 25 1 31 16
M  V30 26 1 31 18
M  V30 27 2 32 22
M  V30 28 1 32 26
M  V30 29 1 33 4
M  V30 30 1 33 12
M  V30 31 1 33 20
M  V30 32 1 34 3
M  V30 33 1 34 26
M  V30 34 2 35 8
M  V30 35 1 35 23
M  V30 36 1 36 34
M  V30 37 1 37 12
M  V30 38 1 37 21
M  V30 39 1 38 25
M  V30 40 1 38 36
M  V30 41 1 39 18 CFG=3
M  V30 42 1 39 19
M  V30 43 1 39 30
M  V30 44 1 39 38
M  V30 45 1 1 40 CFG=1
M  V30 46 1 41 2
M  V30 47 1 42 4
M  V30 48 1 43 4
M  V30 49 1 44 5
M  V30 50 1 45 5
M  V30 51 1 46 5
M  V30 52 1 47 9
M  V30 53 1 48 9
M  V30 54 1 49 11
M  V30 55 1 50 11
M  V30 56 1 51 12
M  V30 57 1 52 12
M  V30 58 1 53 14
M  V30 59 1 54 14
M  V30 60 1 55 16
M  V30 61 1 56 16
M  V30 62 1 57 18
M  V30 63 1 58 18
M  V30 64 1 59 19
M  V30 65 1 60 19
M  V30 66 1 61 20
M  V30 67 1 62 20
M  V30 68 1 21 63 CFG=1
M  V30 69 1 64 23
M  V30 70 1 65 23
M  V30 71 1 66 24
M  V30 72 1 25 67 CFG=1
M  V30 73 1 26 68 CFG=3
M  V30 74 1 29 69 CFG=3
M  V30 75 1 30 70 CFG=1
M  V30 76 1 71 31
M  V30 77 1 72 31
M  V30 78 1 73 32
M  V30 79 1 33 74 CFG=1
M  V30 80 1 34 75 CFG=3
M  V30 81 1 76 35
M  V30 82 1 77 37
M  V30 83 1 78 37
M  V30 84 1 38 79 CFG=3
M  V30 END BOND
M  V30 END CTAB
M  END
>  <i_epik_Tot_Q>  (1) 
-1

>  <i_epik_Tot_abs_Q>  (1) 
1

>  <i_i_glide_confnum>  (1) 
276

>  <i_i_glide_lignum>  (1) 
102

>  <i_i_glide_posenum>  (1) 
262

>  <i_i_glide_rotatable_bonds>  (1) 
9

>  <i_lp_mmshare_version>  (1) 
72125

>  <i_m_source_file_index>  (1) 
38

>  <i_f3d_flags>  (1) 
0

>  <num_sample>  (1) 
50

>  <b_lp_Chiralities_Consistent>  (1) 
1

>  <r_epik_Charging_Adjusted_Penalty>  (1) 
0.59816734689740336

>  <r_epik_Ionization_Penalty>  (1) 
0.59818128409548943

>  <r_epik_Ionization_Penalty_Charging>  (1) 
0.00097473608303856986

>  <r_epik_Ionization_Penalty_Neutral>  (1) 
0.59720654801245088

>  <r_epik_State_Penalty>  (1) 
0.59719261081436481

>  <r_glide_ring_energy>  (1) 
1.2812062143605161

>  <r_i_docking_score>  (1) 
-2.9326216902680367

>  <r_i_glide_ecoul>  (1) 
-6.7231285727620254

>  <r_i_glide_eff_state_penalty>  (1) 
0.59719261081436481

>  <r_i_glide_einternal>  (1) 
3.2963574047365771

>  <r_i_glide_emodel>  (1) 
-28.176599928901936

>  <r_i_glide_emodel_strain>  (1) 
1.2804327666472801

>  <r_i_glide_energy>  (1) 
-29.4158088140214

>  <r_i_glide_erotb>  (1) 
0.23359109936798597

>  <r_i_glide_esite>  (1) 
-0.022542980541398201

>  <r_i_glide_evdw>  (1) 
-22.692680241259374

>  <r_i_glide_gscore>  (1) 
-3.5298143010824017

>  <r_i_glide_gscore_strain>  (1) 
0

>  <r_i_glide_hbond>  (1) 
-0.60799999999999998

>  <r_i_glide_ligand_efficiency>  (1) 
-0.075195427955590685

>  <r_i_glide_ligand_efficiency_ln>  (1) 
-0.62883733781065365

>  <r_i_glide_ligand_efficiency_sa>  (1) 
-0.25500359574534653

>  <r_i_glide_lipo>  (1) 
-0.5583523789009659

>  <r_i_glide_metal>  (1) 
-0

>  <r_i_glide_rewards>  (1) 
-0.43140674303075049

>  <r_lp_Energy>  (1) 
44.555437999999995

>  <s_epik_cmdline>  (1) 
J2VwaWtfcHl0aG9uJywgJy1waHQnLCAnMS4wJywgJy1waCcsICc3LjQnLCAnLXRuJywgJzgnLCAnLW1hJywgJzUwMCcsICctaW1hZScsICc8aW5maWxlLm1hZT4nLCAnLW9tYWUnLCAnPG91dGZpbGUubWFlPic=

>  <s_epik_input>  (1) 
W09IXVtDQEBIXTFbQ0gyXVtDSDJdW0NAQEhdKFtDSDJdW0NIMl0xKVtDSDJdW0NAQF0yKFtPSF0pW0NIMl1OMltDQEhdKEMoPU8pW09IXSlbQ0BASF0oT1tDSDNdKVtDQEhdM1tDSDJdT1tDSDJdW0NAXTM0W0NASF01W0NASF0oW0NIMl1bQ0gyXVtDSDJdNClDPTZbQ0BIXShbQ0BASF0oRilTNSlbQ0hdPUMoRilbQ0gyXVtDSF02

>  <s_glide_docking_method>  (1) 
confgen

>  <s_i_glide_gridfile>  (1) 
gpcr_drd2_6luq_protein_autoprepared_prepared

>  <s_lp_Force_Field>  (1) 
S-OPLS

>  <s_lp_Variant>  (1) 
DiffSBDD_37-3

>  <s_m_source_file>  (1) 
generated_generic_title2_ligand_DiffSBDD_2026-06-23_prepared.sdf

>  <GenAI_Model>  (1) 
DiffSBDD

>  <Protein>  (1) 
generic_title2

$$$$
DiffSBDD_37
     RDKit          3D

  0  0  0  0  0  0  0  0  0  0999 V3000
M  V30 BEGIN CTAB
M  V30 COUNTS 80 85 0 0 1
M  V30 BEGIN ATOM
M  V30 1 C 9.614747 5.577091 -11.888138 0 CFG=1
M  V30 2 O 11.362546 9.990557 -5.168953 0
M  V30 3 F 9.698840 4.321758 -18.906494 0
M  V30 4 C 10.617582 7.070427 -9.170622 0
M  V30 5 C 6.932547 7.362660 -12.483594 0
M  V30 6 O 11.589768 6.790088 -12.487971 0 CHG=-1
M  V30 7 C 10.391391 6.891450 -12.150496 0
M  V30 8 C 7.128402 5.525207 -18.029556 0
M  V30 9 C 8.340864 5.923933 -9.792048 0
M  V30 10 O 7.763065 6.533780 -13.319534 0
M  V30 11 C 8.727597 2.877888 -12.895143 0
M  V30 12 C 10.325441 7.449644 -6.591087 0
M  V30 13 F 7.101806 5.854108 -22.233956 0
M  V30 14 C 12.801671 9.057558 -6.841843 0
M  V30 15 C 9.684085 5.880279 -9.215618 0 CFG=2
M  V30 16 C 5.656258 5.896020 -16.075435 0
M  V30 17 O 8.302556 1.799632 -13.692266 0
M  V30 18 C 5.776492 4.314849 -13.965407 0
M  V30 19 C 7.045498 2.176685 -14.187254 0
M  V30 20 C 11.855579 8.837358 -7.997934 0
M  V30 21 C 12.141499 8.847461 -5.450287 0 CFG=2
M  V30 22 C 7.164792 5.748498 -20.896489 0
M  V30 23 C 7.107184 7.017394 -20.073036 0
M  V30 24 O 9.857417 4.790025 -8.384909 0
M  V30 25 C 7.019953 5.332502 -16.518050 0 CFG=1
M  V30 26 C 7.349338 4.261962 -18.864438 0 CFG=1
M  V30 27 O 9.775309 7.964282 -11.985000 0
M  V30 28 N 9.375512 5.178877 -10.465687 0 CFG=2 CHG=1
M  V30 29 C 8.285031 5.358916 -12.694158 0 CFG=1
M  V30 30 C 8.391017 4.160878 -13.681303 0 CFG=2
M  V30 31 C 5.246494 5.591012 -14.640524 0
M  V30 32 C 7.270850 4.525057 -20.357658 0
M  V30 33 C 11.225696 7.449636 -7.836158 0 CFG=2
M  V30 34 C 8.671865 3.568927 -18.510006 0 CFG=2
M  V30 35 C 7.016779 6.740358 -18.585365 0
M  V30 36 S 8.838641 3.222537 -16.742687 0
M  V30 37 C 11.243467 7.593402 -5.366178 0
M  V30 38 C 7.285695 3.887198 -16.037276 0 CFG=1
M  V30 39 C 7.124331 3.704669 -14.486185 0 CFG=2
M  V30 40 H 10.323971 4.816179 -12.205683 0
M  V30 41 H 10.731915 10.095537 -5.864760 0
M  V30 42 H 11.468679 6.894651 -9.821786 0
M  V30 43 H 10.071241 7.941082 -9.529565 0
M  V30 44 H 6.327711 7.989995 -13.115913 0
M  V30 45 H 6.248417 6.783625 -11.862102 0
M  V30 46 H 7.428495 8.087501 -11.851116 0
M  V30 47 H 7.520022 5.279544 -9.480574 0
M  V30 48 H 8.175400 6.790279 -10.385262 0
M  V30 49 H 9.773475 2.772380 -12.615986 0
M  V30 50 H 8.143723 2.854503 -11.984979 0
M  V30 51 H 9.597283 8.261949 -6.638632 0
M  V30 52 H 9.756546 6.526414 -6.493136 0
M  V30 53 H 13.303571 9.995838 -6.785022 0
M  V30 54 H 13.596080 8.393427 -7.185000 0
M  V30 55 H 4.864488 5.590266 -16.758411 0
M  V30 56 H 5.673854 6.983573 -16.166503 0
M  V30 57 H 4.975744 3.590209 -13.985005 0
M  V30 58 H 5.795171 4.467114 -12.891023 0
M  V30 59 H 6.786129 1.560205 -15.049269 0
M  V30 60 H 6.322903 1.940760 -13.403524 0
M  V30 61 H 12.407150 8.918214 -8.936949 0
M  V30 62 H 11.086561 9.590153 -8.037388 0
M  V30 63 H 12.907356 8.806841 -4.672485 0
M  V30 64 H 6.249150 7.614163 -20.379528 0
M  V30 65 H 8.004534 7.606283 -20.259555 0
M  V30 66 H 9.405867 4.965306 -7.571330 0
M  V30 67 H 7.788942 5.957401 -16.062650 0
M  V30 68 H 6.519202 3.586556 -18.657765 0
M  V30 69 H 7.532207 5.030314 -11.984218 0
M  V30 70 H 9.214073 4.390194 -14.357977 0
M  V30 71 H 4.175927 5.590199 -14.588218 0
M  V30 72 H 5.432820 6.457137 -14.051684 0
M  V30 73 H 7.305994 3.660174 -21.001925 0
M  V30 74 H 12.016976 6.731203 -7.638051 0
M  V30 75 H 8.758116 2.623956 -19.047991 0
M  V30 76 H 6.851627 7.589928 -17.946474 0
M  V30 77 H 10.663327 7.593805 -4.450376 0
M  V30 78 H 11.864280 6.699491 -5.295989 0
M  V30 79 H 6.575391 3.221257 -16.500300 0
M  V30 80 H 9.256808 4.189355 -10.316511 0
M  V30 END ATOM
M  V30 BEGIN BOND
M  V30 1 1 7 1
M  V30 2 1 7 6
M  V30 3 1 10 5
M  V30 4 1 15 4
M  V30 5 1 15 9
M  V30 6 1 17 11
M  V30 7 1 19 17
M  V30 8 1 20 14
M  V30 9 1 21 2
M  V30 10 1 21 14
M  V30 11 1 22 13
M  V30 12 1 23 22
M  V30 13 1 15 24 CFG=1
M  V30 14 1 25 8
M  V30 15 1 25 16
M  V30 16 1 26 8
M  V30 17 2 27 7
M  V30 18 1 28 1
M  V30 19 1 28 9
M  V30 20 1 28 15
M  V30 21 1 29 1
M  V30 22 1 29 10
M  V30 23 1 30 11
M  V30 24 1 30 29
M  V30 25 1 31 16
M  V30 26 1 31 18
M  V30 27 2 32 22
M  V30 28 1 32 26
M  V30 29 1 33 4
M  V30 30 1 33 12
M  V30 31 1 33 20
M  V30 32 1 34 3
M  V30 33 1 34 26
M  V30 34 2 35 8
M  V30 35 1 35 23
M  V30 36 1 36 34
M  V30 37 1 37 12
M  V30 38 1 37 21
M  V30 39 1 38 25
M  V30 40 1 38 36
M  V30 41 1 39 18 CFG=1
M  V30 42 1 39 19
M  V30 43 1 39 30
M  V30 44 1 39 38
M  V30 45 1 1 40 CFG=3
M  V30 46 1 41 2
M  V30 47 1 42 4
M  V30 48 1 43 4
M  V30 49 1 44 5
M  V30 50 1 45 5
M  V30 51 1 46 5
M  V30 52 1 47 9
M  V30 53 1 48 9
M  V30 54 1 49 11
M  V30 55 1 50 11
M  V30 56 1 51 12
M  V30 57 1 52 12
M  V30 58 1 53 14
M  V30 59 1 54 14
M  V30 60 1 55 16
M  V30 61 1 56 16
M  V30 62 1 57 18
M  V30 63 1 58 18
M  V30 64 1 59 19
M  V30 65 1 60 19
M  V30 66 1 61 20
M  V30 67 1 62 20
M  V30 68 1 21 63 CFG=1
M  V30 69 1 64 23
M  V30 70 1 65 23
M  V30 71 1 66 24
M  V30 72 1 25 67 CFG=1
M  V30 73 1 26 68 CFG=1
M  V30 74 1 29 69 CFG=1
M  V30 75 1 30 70 CFG=3
M  V30 76 1 71 31
M  V30 77 1 72 31
M  V30 78 1 73 32
M  V30 79 1 33 74 CFG=1
M  V30 80 1 34 75 CFG=3
M  V30 81 1 76 35
M  V30 82 1 77 37
M  V30 83 1 78 37
M  V30 84 1 38 79 CFG=3
M  V30 85 1 28 80 CFG=1
M  V30 END BOND
M  V30 END CTAB
M  END
>  <i_epik_Tot_Q>  (1) 
0

>  <i_epik_Tot_abs_Q>  (1) 
2

>  <i_i_glide_confnum>  (1) 
5

>  <i_i_glide_lignum>  (1) 
100

>  <i_i_glide_posenum>  (1) 
64

>  <i_i_glide_rotatable_bonds>  (1) 
9

>  <i_lp_mmshare_version>  (1) 
72125

>  <i_m_source_file_index>  (1) 
38

>  <i_f3d_flags>  (1) 
0

>  <num_sample>  (1) 
50

>  <b_lp_Chiralities_Consistent>  (1) 
1

>  <r_epik_Charging_Adjusted_Penalty>  (1) 
0.53807329711462948

>  <r_epik_Ionization_Penalty>  (1) 
0.26903764201212299

>  <r_epik_Ionization_Penalty_Charging>  (1) 
0.26903696022575102

>  <r_epik_Ionization_Penalty_Neutral>  (1) 
6.8178637198181737e-07

>  <r_epik_State_Penalty>  (1) 
0.26903633688887846

>  <r_glide_ring_energy>  (1) 
0.85216250574011421

>  <r_i_docking_score>  (1) 
-2.9222250131997711

>  <r_i_glide_ecoul>  (1) 
-3.7220487750917344

>  <r_i_glide_eff_state_penalty>  (1) 
0.26903633688887846

>  <r_i_glide_einternal>  (1) 
72.020212730631442

>  <r_i_glide_emodel>  (1) 
27.538566110392992

>  <r_i_glide_emodel_strain>  (1) 
8.3006538315332818

>  <r_i_glide_energy>  (1) 
-11.335456435082257

>  <r_i_glide_erotb>  (1) 
0.23153238063810569

>  <r_i_glide_esite>  (1) 
-0.048272921130469208

>  <r_i_glide_evdw>  (1) 
-7.6134076599905232

>  <r_i_glide_gscore>  (1) 
-3.1912613500886495

>  <r_i_glide_gscore_strain>  (1) 
1.0751634578833205

>  <r_i_glide_hbond>  (1) 
0

>  <r_i_glide_ligand_efficiency>  (1) 
-0.074928846492301818

>  <r_i_glide_ligand_efficiency_ln>  (1) 
-0.62660799511998855

>  <r_i_glide_ligand_efficiency_sa>  (1) 
-0.2540995616365459

>  <r_i_glide_lipo>  (1) 
-2.616706883911839

>  <r_i_glide_metal>  (1) 
-0

>  <r_i_glide_rewards>  (1) 
-0.89399968430448129

>  <r_lp_Energy>  (1) 
30.444087999999997

>  <s_epik_cmdline>  (1) 
J2VwaWtfcHl0aG9uJywgJy1waHQnLCAnMS4wJywgJy1waCcsICc3LjQnLCAnLXRuJywgJzgnLCAnLW1hJywgJzUwMCcsICctaW1hZScsICc8aW5maWxlLm1hZT4nLCAnLW9tYWUnLCAnPG91dGZpbGUubWFlPic=

>  <s_epik_input>  (1) 
W09IXVtDQEBIXTFbQ0gyXVtDSDJdW0NAQEhdKFtDSDJdW0NIMl0xKVtDSDJdW0NAQF0yKFtPSF0pW0NIMl1OMltDQEhdKEMoPU8pW09IXSlbQ0BASF0oT1tDSDNdKVtDQEhdM1tDSDJdT1tDSDJdW0NAXTM0W0NASF01W0NASF0oW0NIMl1bQ0gyXVtDSDJdNClDPTZbQ0BIXShbQ0BASF0oRilTNSlbQ0hdPUMoRilbQ0gyXVtDSF02

>  <s_glide_docking_method>  (1) 
confgen

>  <s_i_glide_gridfile>  (1) 
gpcr_drd2_6luq_protein_autoprepared_prepared

>  <s_lp_Force_Field>  (1) 
S-OPLS

>  <s_lp_Variant>  (1) 
DiffSBDD_37-1

>  <s_m_source_file>  (1) 
generated_generic_title2_ligand_DiffSBDD_2026-06-23_prepared.sdf

>  <GenAI_Model>  (1) 
DiffSBDD

>  <Protein>  (1) 
generic_title2

$$$$
DiffSBDD_8
     RDKit          3D

  0  0  0  0  0  0  0  0  0  0999 V3000
M  V30 BEGIN CTAB
M  V30 COUNTS 69 72 0 0 1
M  V30 BEGIN ATOM
M  V30 1 N 6.210345 6.003881 -15.946621 0
M  V30 2 C 6.362212 4.909706 -19.022461 0
M  V30 3 C 8.818469 5.188345 -13.556972 0 CFG=1
M  V30 4 N 8.311250 3.923132 -19.727656 0
M  V30 5 O 6.085735 5.306247 -12.212465 0
M  V30 6 C 9.660837 7.996778 -10.588691 0
M  V30 7 F 9.790761 5.077959 -18.403061 0
M  V30 8 C 11.036204 7.947659 -9.918915 0
M  V30 9 N 9.187733 6.669116 -10.991295 0
M  V30 10 C 7.894484 6.710078 -11.693443 0 CFG=1
M  V30 11 C 8.646066 4.394798 -18.392282 0 CFG=1
M  V30 12 C 11.802675 6.557970 -4.007321 0
M  V30 13 C 7.943634 6.367014 -13.178700 0 CFG=2
M  V30 14 O 7.616160 4.504269 -10.664834 0
M  V30 15 O 9.133083 2.743022 -20.040713 0
M  V30 16 C 11.125894 7.016415 -8.691945 0
M  V30 17 C 5.554567 7.077501 -13.723773 0
M  V30 18 C 5.798671 7.223929 -16.662967 0
M  V30 19 C 5.684455 5.843838 -14.611378 0 CFG=2
M  V30 20 C 7.445495 5.289928 -17.992335 0 CFG=2
M  V30 21 C 6.975994 5.046227 -16.538321 0
M  V30 22 C 9.670508 5.191280 -14.816139 0
M  V30 23 C 6.924058 5.633035 -11.144484 0 CFG=2
M  V30 24 C 6.525445 6.002385 -13.375209 0 CFG=2
M  V30 25 O 11.375385 6.403946 -2.671061 0
M  V30 26 O 7.290296 4.005574 -15.959075 0
M  V30 27 C 10.712374 7.069856 -4.967142 0
M  V30 28 C 8.590125 1.505246 -19.580062 0
M  V30 29 C 6.878054 3.649724 -19.708733 0
M  V30 30 O 11.114994 6.822745 -6.305684 0
M  V30 31 C 10.603219 7.514963 -7.343327 0
M  V30 32 N 10.175410 5.590231 -13.520937 0 CHG=1
M  V30 33 O 9.805090 8.445582 -7.251050 0
M  V30 34 H 5.375452 4.746978 -18.585946 0
M  V30 35 H 6.255662 5.712528 -19.753976 0
M  V30 36 H 8.694447 4.252059 -13.015381 0
M  V30 37 H 8.975569 8.459852 -9.885861 0
M  V30 38 H 9.694225 8.650564 -11.460872 0
M  V30 39 H 11.336115 8.959822 -9.641303 0
M  V30 40 H 11.767258 7.616513 -10.659045 0
M  V30 41 H 9.034246 6.116061 -10.150368 0
M  V30 42 H 7.407317 7.681797 -11.585078 0
M  V30 43 H 8.797152 3.549640 -17.723836 0
M  V30 44 H 12.644299 7.248435 -3.987588 0
M  V30 45 H 12.175343 5.594117 -4.346263 0
M  V30 46 H 8.175233 7.242339 -13.782430 0
M  V30 47 H 6.994609 3.981598 -10.180158 0
M  V30 48 H 12.174633 6.813642 -8.524068 0
M  V30 49 H 10.658804 6.056699 -8.905291 0
M  V30 50 H 4.806075 7.212212 -12.954481 0
M  V30 51 H 5.957744 7.990210 -14.139817 0
M  V30 52 H 5.545238 7.061272 -17.708703 0
M  V30 53 H 4.901836 7.661205 -16.221197 0
M  V30 54 H 6.574505 7.982747 -16.607544 0
M  V30 55 H 4.975393 5.039987 -14.483281 0
M  V30 56 H 7.736914 6.330385 -18.138137 0
M  V30 57 H 10.311758 4.390209 -15.139976 0
M  V30 58 H 9.558077 5.990267 -15.537250 0
M  V30 59 H 6.301399 5.990374 -10.326557 0
M  V30 60 H 10.797686 5.655325 -2.613701 0
M  V30 61 H 9.775274 6.545666 -4.791835 0
M  V30 62 H 10.541706 8.131911 -4.795626 0
M  V30 63 H 9.336094 0.726623 -19.733858 0
M  V30 64 H 8.346127 1.510116 -18.516217 0
M  V30 65 H 7.715448 1.202309 -20.160373 0
M  V30 66 H 6.589849 2.802558 -19.086818 0
M  V30 67 H 6.475910 3.513962 -20.712558 0
M  V30 68 H 10.330037 6.576785 -13.378793 0
M  V30 69 H 10.867941 4.923187 -13.186480 0
M  V30 END ATOM
M  V30 BEGIN BOND
M  V30 1 1 8 6
M  V30 2 1 9 6
M  V30 3 1 10 9
M  V30 4 1 11 4
M  V30 5 1 11 7
M  V30 6 1 13 3
M  V30 7 1 13 10
M  V30 8 1 15 4
M  V30 9 1 16 8
M  V30 10 1 18 1
M  V30 11 1 19 1
M  V30 12 1 19 17
M  V30 13 1 20 2
M  V30 14 1 20 11
M  V30 15 1 21 1
M  V30 16 1 21 20
M  V30 17 1 22 3
M  V30 18 1 23 5
M  V30 19 1 23 10
M  V30 20 1 23 14
M  V30 21 1 24 5 CFG=1
M  V30 22 1 24 13
M  V30 23 1 24 17
M  V30 24 1 24 19
M  V30 25 1 25 12
M  V30 26 2 26 21
M  V30 27 1 27 12
M  V30 28 1 28 15
M  V30 29 1 29 2
M  V30 30 1 29 4
M  V30 31 1 30 27
M  V30 32 1 31 16
M  V30 33 1 31 30
M  V30 34 1 32 3
M  V30 35 1 32 22
M  V30 36 2 33 31
M  V30 37 1 34 2
M  V30 38 1 35 2
M  V30 39 1 3 36 CFG=1
M  V30 40 1 37 6
M  V30 41 1 38 6
M  V30 42 1 39 8
M  V30 43 1 40 8
M  V30 44 1 41 9
M  V30 45 1 10 42 CFG=3
M  V30 46 1 11 43 CFG=1
M  V30 47 1 44 12
M  V30 48 1 45 12
M  V30 49 1 13 46 CFG=3
M  V30 50 1 47 14
M  V30 51 1 48 16
M  V30 52 1 49 16
M  V30 53 1 50 17
M  V30 54 1 51 17
M  V30 55 1 52 18
M  V30 56 1 53 18
M  V30 57 1 54 18
M  V30 58 1 19 55 CFG=3
M  V30 59 1 20 56 CFG=1
M  V30 60 1 57 22
M  V30 61 1 58 22
M  V30 62 1 23 59 CFG=1
M  V30 63 1 60 25
M  V30 64 1 61 27
M  V30 65 1 62 27
M  V30 66 1 63 28
M  V30 67 1 64 28
M  V30 68 1 65 28
M  V30 69 1 66 29
M  V30 70 1 67 29
M  V30 71 1 68 32
M  V30 72 1 69 32
M  V30 END BOND
M  V30 END CTAB
M  END
>  <i_epik_Tot_Q>  (1) 
1

>  <i_epik_Tot_abs_Q>  (1) 
1

>  <i_i_glide_confnum>  (1) 
793

>  <i_i_glide_lignum>  (1) 
39

>  <i_i_glide_posenum>  (1) 
307

>  <i_i_glide_rotatable_bonds>  (1) 
15

>  <i_lp_mmshare_version>  (1) 
72125

>  <i_m_source_file_index>  (1) 
9

>  <i_f3d_flags>  (1) 
0

>  <num_sample>  (1) 
50

>  <b_lp_Chiralities_Consistent>  (1) 
1

>  <r_epik_Charging_Adjusted_Penalty>  (1) 
1.2103720943885907

>  <r_epik_Ionization_Penalty>  (1) 
0.55446808147534954

>  <r_epik_Ionization_Penalty_Charging>  (1) 
0.13553905892425583

>  <r_epik_Ionization_Penalty_Neutral>  (1) 
0.41892902255109377

>  <r_epik_State_Penalty>  (1) 
1.074833035464335

>  <r_glide_ring_energy>  (1) 
0

>  <r_i_docking_score>  (1) 
-2.8957731224627903

>  <r_i_glide_ecoul>  (1) 
-8.6860849030266234

>  <r_i_glide_eff_state_penalty>  (1) 
1.074833035464335

>  <r_i_glide_einternal>  (1) 
25.480547719976222

>  <r_i_glide_emodel>  (1) 
-29.562889125241597

>  <r_i_glide_emodel_strain>  (1) 
2.7732348263837707

>  <r_i_glide_energy>  (1) 
-35.725845527829193

>  <r_i_glide_erotb>  (1) 
1.0741905119875848

>  <r_i_glide_esite>  (1) 
-0.13687612657823905

>  <r_i_glide_evdw>  (1) 
-27.039760624802572

>  <r_i_glide_gscore>  (1) 
-3.9706061579271252

>  <r_i_glide_gscore_strain>  (1) 
0

>  <r_i_glide_hbond>  (1) 
0

>  <r_i_glide_ligand_efficiency>  (1) 
-0.087750700680690616

>  <r_i_glide_ligand_efficiency_ln>  (1) 
-0.64400494892493187

>  <r_i_glide_ligand_efficiency_sa>  (1) 
-0.28146338491450329

>  <r_i_glide_lipo>  (1) 
-1.4351789058127313

>  <r_i_glide_metal>  (1) 
-0

>  <r_i_glide_rewards>  (1) 
-0.81784087082961743

>  <r_lp_Energy>  (1) 
38.778824999999998

>  <s_epik_Chemistry_Notes>  (1) 
This compound has an ester and may undergo hydrolysis at high or low pH. This compound contains an acetal/aminal-like group ( X-CH(R)-Y where X, Y are N, S, or O) that may be acid/base labile, releasing an aldehyde. This compound has a N-S or N-O group and may undergo hydrolysis at high or low pH.

>  <s_epik_cmdline>  (1) 
J2VwaWtfcHl0aG9uJywgJy1waHQnLCAnMS4wJywgJy1waCcsICc3LjQnLCAnLXRuJywgJzgnLCAnLW1hJywgJzUwMCcsICctaW1hZScsICc8aW5maWxlLm1hZT4nLCAnLW9tYWUnLCAnPG91dGZpbGUubWFlPic=

>  <s_epik_input>  (1) 
W0NIM11PTjFbQ0BIXShGKVtDQEBIXShbQ0gyXVtDSDJdMSlDKD1PKU4oW0NIM10pW0NASF0yW0NIMl1DMjNPW0NAQEhdKFtPSF0pW0NASF0oW0NASF0zW0NASF00W0NIMl1bTkhdNClbTkhdW0NIMl1bQ0gyXVtDSDJdQyg9TylPW0NIMl1bQ0gyXVtPSF0=

>  <s_glide_docking_method>  (1) 
confgen

>  <s_i_glide_gridfile>  (1) 
gpcr_drd2_6luq_protein_autoprepared_prepared

>  <s_lp_Force_Field>  (1) 
S-OPLS

>  <s_lp_Variant>  (1) 
DiffSBDD_8-8

>  <s_m_source_file>  (1) 
generated_generic_title2_ligand_DiffSBDD_2026-06-23_prepared.sdf

>  <GenAI_Model>  (1) 
DiffSBDD

>  <Protein>  (1) 
generic_title2

$$$$
DiffSBDD_22
     RDKit          3D

  0  0  0  0  0  0  0  0  0  0999 V3000
M  V30 BEGIN CTAB
M  V30 COUNTS 59 63 0 0 1
M  V30 BEGIN ATOM
M  V30 1 C 8.551977 2.487028 -19.951109 0
M  V30 2 C 8.277355 3.506104 -21.091350 0 CFG=1
M  V30 3 C 8.980304 1.096409 -20.485864 0 CFG=2
M  V30 4 C 5.206957 5.504738 -22.436811 0 CFG=1
M  V30 5 C 8.119672 -0.908365 -19.264171 0 CFG=2
M  V30 6 C 7.203120 -0.678941 -18.083507 0
M  V30 7 N 9.140011 0.111269 -19.392801 0
M  V30 8 C 10.229969 1.213769 -21.394323 0
M  V30 9 O 10.343297 -0.572285 -17.584969 0
M  V30 10 C 9.600172 3.617715 -21.890336 0
M  V30 11 C 7.272334 -1.494105 -20.394402 0 CFG=1
M  V30 12 C 5.247079 2.393882 -20.223435 0
M  V30 13 C 6.995218 3.217707 -21.965279 0 CFG=2
M  V30 14 C 6.967134 3.992033 -23.298797 0
M  V30 15 Cl 4.575432 -1.209801 -17.524059 0
M  V30 16 C 4.999035 8.741396 -20.386308 0
M  V30 17 C 10.027863 2.267244 -22.495327 0
M  V30 18 C 4.171830 9.536522 -21.203551 0
M  V30 19 C 5.335129 7.433265 -20.783610 0
M  V30 20 C 8.412149 -2.298001 -19.819439 0
M  V30 21 C 4.020160 7.718556 -22.822520 0
M  V30 22 C 10.168387 0.206513 -18.521876 0
M  V30 23 F 5.796745 1.213923 -20.485919 0
M  V30 24 C 5.960940 -1.276950 -18.653339 0
M  V30 25 N 4.965590 4.538847 -21.362510 0
M  V30 26 N 5.958937 -1.761869 -19.820142 0
M  V30 27 C 4.844235 6.917514 -22.002486 0
M  V30 28 C 3.684823 9.026347 -22.421766 0
M  V30 29 C 5.670468 3.481685 -21.197238 0
M  V30 30 C 6.624867 5.452013 -23.026684 0
M  V30 31 H 7.700888 2.394909 -19.282231 0
M  V30 32 H 9.346460 2.886212 -19.319227 0
M  V30 33 H 8.122855 4.475702 -20.616508 0
M  V30 34 H 8.183666 0.759158 -21.135542 0
M  V30 35 H 4.519197 5.244976 -23.243730 0
M  V30 36 H 7.543838 -1.215837 -17.197239 0
M  V30 37 H 7.062992 0.381188 -17.871832 0
M  V30 38 H 11.113402 1.496166 -20.822032 0
M  V30 39 H 10.454314 0.247185 -21.846965 0
M  V30 40 H 10.387950 3.960244 -21.217779 0
M  V30 41 H 9.549367 4.393399 -22.652213 0
M  V30 42 H 7.280896 -1.134440 -21.420902 0
M  V30 43 H 5.478800 2.674538 -19.196747 0
M  V30 44 H 4.175566 2.228813 -20.291750 0
M  V30 45 H 7.008218 2.174444 -22.270320 0
M  V30 46 H 7.882566 3.890874 -23.877669 0
M  V30 47 H 6.192616 3.561998 -23.935618 0
M  V30 48 H 5.375516 9.134869 -19.453750 0
M  V30 49 H 10.953405 2.389227 -23.059291 0
M  V30 50 H 9.280717 1.917272 -23.208392 0
M  V30 51 H 3.911318 10.537185 -20.896312 0
M  V30 52 H 5.968759 6.824637 -20.154716 0
M  V30 53 H 9.293973 -2.410237 -20.446709 0
M  V30 54 H 8.176081 -3.157329 -19.193790 0
M  V30 55 H 3.644390 7.329288 -23.757986 0
M  V30 56 H 10.818370 1.061963 -18.757106 0
M  V30 57 H 3.052124 9.637351 -23.048649 0
M  V30 58 H 6.667142 6.036486 -23.944892 0
M  V30 59 H 7.350747 5.895369 -22.343564 0
M  V30 END ATOM
M  V30 BEGIN BOND
M  V30 1 1 2 1
M  V30 2 1 3 1
M  V30 3 1 6 5
M  V30 4 1 7 3
M  V30 5 1 5 7 CFG=3
M  V30 6 1 8 3
M  V30 7 1 10 2
M  V30 8 1 11 5
M  V30 9 1 13 2
M  V30 10 1 14 13
M  V30 11 1 17 8
M  V30 12 1 17 10
M  V30 13 2 18 16
M  V30 14 1 19 16
M  V30 15 1 20 5
M  V30 16 1 20 11
M  V30 17 1 22 7
M  V30 18 2 22 9
M  V30 19 1 23 12
M  V30 20 1 24 6
M  V30 21 1 24 15
M  V30 22 1 25 4
M  V30 23 1 26 11
M  V30 24 2 26 24
M  V30 25 1 27 4
M  V30 26 2 27 19
M  V30 27 1 27 21
M  V30 28 1 28 18
M  V30 29 2 28 21
M  V30 30 1 29 12
M  V30 31 1 29 13
M  V30 32 2 29 25
M  V30 33 1 30 4
M  V30 34 1 30 14
M  V30 35 1 31 1
M  V30 36 1 32 1
M  V30 37 1 2 33 CFG=1
M  V30 38 1 3 34 CFG=3
M  V30 39 1 4 35 CFG=3
M  V30 40 1 36 6
M  V30 41 1 37 6
M  V30 42 1 38 8
M  V30 43 1 39 8
M  V30 44 1 40 10
M  V30 45 1 41 10
M  V30 46 1 11 42 CFG=3
M  V30 47 1 43 12
M  V30 48 1 44 12
M  V30 49 1 13 45 CFG=3
M  V30 50 1 46 14
M  V30 51 1 47 14
M  V30 52 1 48 16
M  V30 53 1 49 17
M  V30 54 1 50 17
M  V30 55 1 51 18
M  V30 56 1 52 19
M  V30 57 1 53 20
M  V30 58 1 54 20
M  V30 59 1 55 21
M  V30 60 1 56 22
M  V30 61 1 57 28
M  V30 62 1 58 30
M  V30 63 1 59 30
M  V30 END BOND
M  V30 END CTAB
M  END
>  <i_epik_Tot_Q>  (1) 
0

>  <i_epik_Tot_abs_Q>  (1) 
0

>  <i_i_glide_confnum>  (1) 
105

>  <i_i_glide_lignum>  (1) 
69

>  <i_i_glide_posenum>  (1) 
240

>  <i_i_glide_rotatable_bonds>  (1) 
6

>  <i_lp_mmshare_version>  (1) 
72125

>  <i_m_source_file_index>  (1) 
23

>  <i_f3d_flags>  (1) 
0

>  <num_sample>  (1) 
50

>  <b_lp_Chiralities_Consistent>  (1) 
1

>  <r_epik_Charging_Adjusted_Penalty>  (1) 
0

>  <r_epik_Ionization_Penalty>  (1) 
0.00052212265616106849

>  <r_epik_Ionization_Penalty_Charging>  (1) 
0

>  <r_epik_Ionization_Penalty_Neutral>  (1) 
0.00052212265616106849

>  <r_epik_State_Penalty>  (1) 
-0

>  <r_glide_ring_energy>  (1) 
1.9780561898571851

>  <r_i_docking_score>  (1) 
-2.8813989790757915

>  <r_i_glide_ecoul>  (1) 
-0.50194321588917656

>  <r_i_glide_eff_state_penalty>  (1) 
-0

>  <r_i_glide_einternal>  (1) 
10.34944427017323

>  <r_i_glide_emodel>  (1) 
-23.688195284488788

>  <r_i_glide_emodel_strain>  (1) 
0

>  <r_i_glide_energy>  (1) 
-24.259812109230324

>  <r_i_glide_erotb>  (1) 
0.43006818046137463

>  <r_i_glide_esite>  (1) 
0

>  <r_i_glide_evdw>  (1) 
-23.757868893341147

>  <r_i_glide_gscore>  (1) 
-2.8813989790757915

>  <r_i_glide_gscore_strain>  (1) 
0

>  <r_i_glide_hbond>  (1) 
0

>  <r_i_glide_ligand_efficiency>  (1) 
-0.096046632635859719

>  <r_i_glide_ligand_efficiency_ln>  (1) 
-0.65468524340246759

>  <r_i_glide_ligand_efficiency_sa>  (1) 
-0.29843921901355208

>  <r_i_glide_lipo>  (1) 
-1.2374106305574495

>  <r_i_glide_metal>  (1) 
-0

>  <r_i_glide_rewards>  (1) 
-0.81087160192928254

>  <r_lp_Energy>  (1) 
30.166556

>  <r_lp_tautomer_probability>  (1) 
1

>  <s_epik_Chemistry_Notes>  (1) 
This compound has an imine and may undergo hydrolysis.

>  <s_epik_cmdline>  (1) 
J2VwaWtfcHl0aG9uJywgJy1waHQnLCAnMS4wJywgJy1waCcsICc3LjQnLCAnLXRuJywgJzgnLCAnLW1hJywgJzUwMCcsICctaW1hZScsICc8aW5maWxlLm1hZT4nLCAnLW9tYWUnLCAnPG91dGZpbGUubWFlPic=

>  <s_epik_input>  (1) 
W0NIMl0xQyhDbCk9TltDQEhdKFtDSDJdMilbQ0BAXTEyTihbQ0hdPU8pW0NASF0oW0NIMl1bQ0gyXVtDSDJdMylbQ0gyXVtDQEBIXTNbQ0BIXShbQ0gyXVtDSDJdNClDKFtDSDJdRik9TltDQEhdNGM1W2NIXVtjSF1bY0hdW2NIXVtjSF01

>  <s_glide_docking_method>  (1) 
confgen

>  <s_i_glide_gridfile>  (1) 
gpcr_drd2_6luq_protein_autoprepared_prepared

>  <s_lp_Force_Field>  (1) 
S-OPLS

>  <s_lp_Variant>  (1) 
DiffSBDD_22-1

>  <s_m_source_file>  (1) 
generated_generic_title2_ligand_DiffSBDD_2026-06-23_prepared.sdf

>  <GenAI_Model>  (1) 
DiffSBDD

>  <Protein>  (1) 
generic_title2

$$$$
DiffSBDD_1
     RDKit          3D

  0  0  0  0  0  0  0  0  0  0999 V3000
M  V30 BEGIN CTAB
M  V30 COUNTS 90 92 0 0 1
M  V30 BEGIN ATOM
M  V30 1 O 9.765283 6.118622 -10.156354 0
M  V30 2 O 11.775035 9.185424 -7.407290 0
M  V30 3 C 8.293457 4.057179 -14.862701 0 CFG=2
M  V30 4 C 7.241901 5.572117 -16.727152 0
M  V30 5 C 10.476904 5.832839 -20.455900 0
M  V30 6 C 12.402414 8.842916 -2.559680 0
M  V30 7 C 12.105970 3.338778 -18.594214 0
M  V30 8 C 10.825665 8.161908 -7.220839 0 CFG=1
M  V30 9 C 7.138188 4.274910 -13.842797 0 CFG=1
M  V30 10 C 9.938375 2.823756 -17.226850 0 CFG=2
M  V30 11 C 7.738055 5.897639 -18.134113 0
M  V30 12 O 5.244082 0.665567 -13.586012 0 CHG=-1
M  V30 13 C 9.362119 4.960042 -19.842887 0
M  V30 14 C 9.460990 4.984167 -14.457343 0
M  V30 15 C 10.733818 7.443242 -8.573091 0
M  V30 16 C 12.249631 3.967674 -19.999796 0
M  V30 17 C 7.836018 4.190022 -16.374845 0 CFG=1
M  V30 18 C 11.925005 5.475006 -20.065371 0
M  V30 19 C 11.300314 7.270960 -6.053087 0
M  V30 20 C 8.570608 5.282590 -12.086466 0 CFG=2
M  V30 21 C 13.297159 9.590172 -4.793300 0
M  V30 22 F 11.458299 1.229117 -17.990225 0
M  V30 23 C 12.632293 8.442026 -4.025085 0
M  V30 24 C 9.784912 4.963110 -12.949424 0
M  V30 25 C 9.637853 5.191185 -7.918488 0
M  V30 26 F 9.316049 1.717281 -16.814061 0
M  V30 27 O 6.770870 1.164851 -15.573687 0
M  V30 28 O 7.734289 1.120481 -13.211502 0
M  V30 29 P 6.475640 1.398697 -13.933522 0
M  V30 30 C 11.323203 7.955155 -4.682880 0
M  V30 31 C 9.575124 6.451375 -8.791349 0 CFG=2
M  V30 32 C 8.780608 3.806991 -17.563665 0 CFG=1
M  V30 33 O 10.086910 5.813121 -17.651779 0
M  V30 34 C 8.823403 5.169871 -10.601105 0
M  V30 35 C 6.046666 3.257637 -13.984490 0
M  V30 36 C 9.056391 5.124014 -18.324845 0 CFG=2
M  V30 37 C 7.528519 4.240132 -12.382251 0
M  V30 38 C 10.903020 2.385645 -18.362953 0 CFG=2
M  V30 39 H 12.582080 8.795135 -7.707427 0
M  V30 40 H 8.575464 3.024971 -14.715853 0
M  V30 41 H 6.152543 5.564427 -16.679641 0
M  V30 42 H 7.565967 6.344146 -16.034804 0
M  V30 43 H 10.397895 5.745050 -21.540132 0
M  V30 44 H 10.287916 6.884970 -20.235342 0
M  V30 45 H 11.714923 9.684709 -2.478548 0
M  V30 46 H 11.991478 8.016598 -1.977432 0
M  V30 47 H 13.341617 9.126825 -2.083255 0
M  V30 48 H 13.017844 2.761317 -18.428720 0
M  V30 49 H 12.157856 4.097161 -17.813329 0
M  V30 50 H 9.865552 8.623231 -6.986150 0
M  V30 51 H 6.709243 5.263497 -14.020070 0
M  V30 52 H 10.524819 3.190411 -16.388821 0
M  V30 53 H 6.983998 5.524911 -18.827756 0
M  V30 54 H 7.830137 6.964138 -18.334944 0
M  V30 55 H 9.541497 3.921616 -20.096218 0
M  V30 56 H 8.456652 5.179109 -20.410180 0
M  V30 57 H 9.178217 5.989962 -14.708311 0
M  V30 58 H 10.366479 4.790783 -15.023759 0
M  V30 59 H 10.641583 8.199503 -9.354162 0
M  V30 60 H 11.677784 6.938125 -8.779069 0
M  V30 61 H 11.708708 3.402906 -20.760844 0
M  V30 62 H 13.299690 3.866750 -20.278564 0
M  V30 63 H 7.039045 3.468437 -16.525033 0
M  V30 64 H 12.573911 5.929076 -20.814688 0
M  V30 65 H 12.209832 5.966124 -19.135492 0
M  V30 66 H 10.561202 6.502534 -5.898017 0
M  V30 67 H 12.175403 6.693600 -6.301887 0
M  V30 68 H 8.193883 6.280638 -12.319550 0
M  V30 69 H 12.575687 10.389051 -4.972789 0
M  V30 70 H 14.149065 9.990844 -4.247361 0
M  V30 71 H 13.684917 9.275372 -5.758658 0
M  V30 72 H 13.323321 7.604115 -3.976463 0
M  V30 73 H 10.571941 5.685368 -12.737524 0
M  V30 74 H 10.169299 3.979451 -12.671447 0
M  V30 75 H 9.272966 5.406742 -6.923185 0
M  V30 76 H 8.974165 4.387152 -8.227164 0
M  V30 77 H 10.653828 4.804267 -7.893798 0
M  V30 78 H 7.301495 0.384971 -15.621396 0
M  V30 79 H 10.593766 8.762201 -4.769521 0
M  V30 80 H 10.962210 7.193641 -3.991873 0
M  V30 81 H 8.584595 6.898386 -8.639218 0
M  V30 82 H 8.149671 3.244490 -18.257311 0
M  V30 83 H 10.903830 5.371529 -17.824804 0
M  V30 84 H 9.173289 4.162944 -10.369298 0
M  V30 85 H 7.867348 5.314727 -10.088503 0
M  V30 86 H 5.203420 3.476562 -13.329445 0
M  V30 87 H 5.775371 3.590102 -14.954338 0
M  V30 88 H 7.916767 3.262577 -12.107049 0
M  V30 89 H 6.645581 4.406093 -11.761392 0
M  V30 90 H 10.370094 2.129472 -19.277983 0
M  V30 END ATOM
M  V30 BEGIN BOND
M  V30 1 1 8 2
M  V30 2 1 9 3
M  V30 3 1 11 4
M  V30 4 1 13 5
M  V30 5 1 14 3
M  V30 6 1 15 8
M  V30 7 1 16 7
M  V30 8 1 17 3
M  V30 9 1 17 4
M  V30 10 1 18 5
M  V30 11 1 18 16
M  V30 12 1 19 8
M  V30 13 1 23 6
M  V30 14 1 23 21
M  V30 15 1 24 14
M  V30 16 1 24 20
M  V30 17 1 26 10
M  V30 18 1 29 12
M  V30 19 1 29 27
M  V30 20 2 29 28
M  V30 21 1 30 19
M  V30 22 1 30 23
M  V30 23 1 31 1
M  V30 24 1 31 15
M  V30 25 1 31 25
M  V30 26 1 32 10
M  V30 27 1 32 17
M  V30 28 1 34 1
M  V30 29 1 34 20
M  V30 30 1 35 9
M  V30 31 1 35 29
M  V30 32 1 36 11
M  V30 33 1 36 13
M  V30 34 1 36 32
M  V30 35 1 36 33 CFG=1
M  V30 36 1 37 9
M  V30 37 1 37 20
M  V30 38 1 38 7
M  V30 39 1 38 10
M  V30 40 1 38 22
M  V30 41 1 39 2
M  V30 42 1 3 40 CFG=3
M  V30 43 1 41 4
M  V30 44 1 42 4
M  V30 45 1 43 5
M  V30 46 1 44 5
M  V30 47 1 45 6
M  V30 48 1 46 6
M  V30 49 1 47 6
M  V30 50 1 48 7
M  V30 51 1 49 7
M  V30 52 1 8 50 CFG=1
M  V30 53 1 9 51 CFG=3
M  V30 54 1 10 52 CFG=1
M  V30 55 1 53 11
M  V30 56 1 54 11
M  V30 57 1 55 13
M  V30 58 1 56 13
M  V30 59 1 57 14
M  V30 60 1 58 14
M  V30 61 1 59 15
M  V30 62 1 60 15
M  V30 63 1 61 16
M  V30 64 1 62 16
M  V30 65 1 17 63 CFG=1
M  V30 66 1 64 18
M  V30 67 1 65 18
M  V30 68 1 66 19
M  V30 69 1 67 19
M  V30 70 1 20 68 CFG=1
M  V30 71 1 69 21
M  V30 72 1 70 21
M  V30 73 1 71 21
M  V30 74 1 72 23
M  V30 75 1 73 24
M  V30 76 1 74 24
M  V30 77 1 75 25
M  V30 78 1 76 25
M  V30 79 1 77 25
M  V30 80 1 78 27
M  V30 81 1 79 30
M  V30 82 1 80 30
M  V30 83 1 31 81 CFG=3
M  V30 84 1 32 82 CFG=3
M  V30 85 1 83 33
M  V30 86 1 84 34
M  V30 87 1 85 34
M  V30 88 1 86 35
M  V30 89 1 87 35
M  V30 90 1 88 37
M  V30 91 1 89 37
M  V30 92 1 38 90 CFG=3
M  V30 END BOND
M  V30 END CTAB
M  END
>  <i_epik_Tot_Q>  (1) 
-1

>  <i_epik_Tot_abs_Q>  (1) 
1

>  <i_i_glide_confnum>  (1) 
1040

>  <i_i_glide_lignum>  (1) 
18

>  <i_i_glide_posenum>  (1) 
285

>  <i_i_glide_rotatable_bonds>  (1) 
14

>  <i_lp_mmshare_version>  (1) 
72125

>  <i_m_source_file_index>  (1) 
2

>  <i_f3d_flags>  (1) 
0

>  <num_sample>  (1) 
50

>  <b_lp_Chiralities_Consistent>  (1) 
1

>  <r_epik_Charging_Adjusted_Penalty>  (1) 
0.13318820565599726

>  <r_epik_Ionization_Penalty>  (1) 
0.13318880763099702

>  <r_epik_Ionization_Penalty_Charging>  (1) 
1.1004593090013429e-05

>  <r_epik_Ionization_Penalty_Neutral>  (1) 
0.13317780303790702

>  <r_epik_State_Penalty>  (1) 
0.13317720106290726

>  <r_glide_ring_energy>  (1) 
0

>  <r_i_docking_score>  (1) 
-2.8570018587963228

>  <r_i_glide_ecoul>  (1) 
0.61831342945082701

>  <r_i_glide_eff_state_penalty>  (1) 
0.13317720106290726

>  <r_i_glide_einternal>  (1) 
14.197265043638245

>  <r_i_glide_emodel>  (1) 
-11.091448660503598

>  <r_i_glide_emodel_strain>  (1) 
4.8860207474365893

>  <r_i_glide_energy>  (1) 
-21.253623719285393

>  <r_i_glide_erotb>  (1) 
0.56507953808565226

>  <r_i_glide_esite>  (1) 
0

>  <r_i_glide_evdw>  (1) 
-21.871937148736219

>  <r_i_glide_gscore>  (1) 
-2.9901790598592299

>  <r_i_glide_gscore_strain>  (1) 
0.22150518685914733

>  <r_i_glide_hbond>  (1) 
0

>  <r_i_glide_ligand_efficiency>  (1) 
-0.075184259442008503

>  <r_i_glide_ligand_efficiency_ln>  (1) 
-0.61605364523618555

>  <r_i_glide_ligand_efficiency_sa>  (1) 
-0.25276763122242535

>  <r_i_glide_lipo>  (1) 
-2.4317640684913107

>  <r_i_glide_metal>  (1) 
-0

>  <r_i_glide_rewards>  (1) 
-0.34414987329353253

>  <r_lp_Energy>  (1) 
45.276491999999998

>  <s_epik_cmdline>  (1) 
J2VwaWtfcHl0aG9uJywgJy1waHQnLCAnMS4wJywgJy1waCcsICc3LjQnLCAnLXRuJywgJzgnLCAnLW1hJywgJzUwMCcsICctaW1hZScsICc8aW5maWxlLm1hZT4nLCAnLW9tYWUnLCAnPG91dGZpbGUubWFlPic=

>  <s_epik_input>  (1) 
W0NIM11bQ0hdKFtDSDNdKVtDSDJdW0NIMl1bQ0BASF0oW09IXSlbQ0gyXVtDQEhdKFtDSDNdKU9bQ0gyXVtDQEBIXShbQ0gyXVtDSDJdMSlbQ0gyXVtDQEhdKFtDSDJdUCg9TykoW09IXSlbT0hdKVtDQEhdMVtDQEBIXShbQ0gyXVtDSDJdMilbQ0BASF0oW0NAXTIzW09IXSlbQ0BASF0oRilbQ0BIXShGKVtDSDJdW0NIMl1bQ0gyXVtDSDJdW0NIMl0z

>  <s_glide_docking_method>  (1) 
confgen

>  <s_i_glide_gridfile>  (1) 
gpcr_drd2_6luq_protein_autoprepared_prepared

>  <s_lp_Force_Field>  (1) 
S-OPLS

>  <s_lp_Variant>  (1) 
DiffSBDD_1-2

>  <s_m_source_file>  (1) 
generated_generic_title2_ligand_DiffSBDD_2026-06-23_prepared.sdf

>  <GenAI_Model>  (1) 
DiffSBDD

>  <Protein>  (1) 
generic_title2

$$$$
DiffSBDD_44
     RDKit          3D

  0  0  0  0  0  0  0  0  0  0999 V3000
M  V30 BEGIN CTAB
M  V30 COUNTS 60 62 0 0 1
M  V30 BEGIN ATOM
M  V30 1 C 6.104712 1.810985 -20.763954 0
M  V30 2 C 7.953651 3.524831 -14.473075 0
M  V30 3 O 8.268379 0.005882 -21.547613 0
M  V30 4 O 5.375433 2.491664 -21.483691 0
M  V30 5 O 7.783651 0.741582 -14.761349 0
M  V30 6 C 7.258761 1.215199 -18.273148 0 CFG=2
M  V30 7 C 8.436379 1.405428 -21.626276 0
M  V30 8 C 8.455966 6.340291 -11.767091 0
M  V30 9 C 9.809494 3.324994 -17.408516 0
M  V30 10 C 6.442988 0.071997 -18.876175 0
M  V30 11 C 7.536417 4.469179 -17.342366 0
M  V30 12 C 6.567958 5.955982 -20.678891 0
M  V30 13 O 8.113061 1.721907 -19.296681 0
M  V30 14 C 7.016852 4.758388 -19.821047 0 CFG=1
M  V30 15 C 5.573619 0.550838 -20.051353 0 CFG=1
M  V30 16 N 9.774085 6.899676 -9.689622 0
M  V30 17 F 8.788358 8.680321 -11.482721 0
M  V30 18 C 7.801607 3.005827 -13.185000 0
M  V30 19 S 8.003977 5.296360 -14.384447 0
M  V30 20 O 4.264055 0.789349 -19.585114 0
M  V30 21 C 8.461649 7.614491 -12.233697 0
M  V30 22 C 7.806329 3.739471 -20.714777 0 CFG=1
M  V30 23 C 8.407858 3.572105 -16.840636 0
M  V30 24 C 8.827869 5.988717 -10.319502 0
M  V30 25 C 8.096865 5.205610 -12.645802 0
M  V30 26 N 7.846528 3.990256 -12.192409 0
M  V30 27 C 7.787550 5.299469 -18.579628 0
M  V30 28 F 8.132867 7.950835 -13.488741 0
M  V30 29 C 8.014245 1.446874 -15.740125 0
M  V30 30 C 8.196024 0.766683 -17.121209 0
M  V30 31 O 9.804243 1.750712 -21.594794 0
M  V30 32 F 9.096905 4.081425 -20.716397 0
M  V30 33 N 8.109225 2.829670 -15.673126 0
M  V30 34 C 7.596914 2.182186 -20.552198 0 CFG=2
M  V30 35 H 8.607879 -0.271932 -20.710009 0
M  V30 36 H 6.562767 1.985842 -17.938912 0
M  V30 37 H 8.080664 1.698271 -22.615685 0
M  V30 38 H 9.821962 3.035559 -18.454001 0
M  V30 39 H 10.379462 2.596540 -16.832045 0
M  V30 40 H 10.373660 4.255480 -17.343067 0
M  V30 41 H 7.116794 -0.712454 -19.219866 0
M  V30 42 H 5.823059 -0.391502 -18.106442 0
M  V30 43 H 6.576045 4.602103 -16.865503 0
M  V30 44 H 7.425863 6.498143 -21.078727 0
M  V30 45 H 5.970616 6.659280 -20.097389 0
M  V30 46 H 5.951796 5.634528 -21.519457 0
M  V30 47 H 6.094850 4.290436 -19.474300 0
M  V30 48 H 5.504518 -0.249415 -20.788941 0
M  V30 49 H 9.258759 7.767513 -9.584877 0
M  V30 50 H 9.946439 6.579590 -8.747906 0
M  V30 51 H 7.735504 1.975040 -12.880717 0
M  V30 52 H 3.713981 0.918370 -20.344760 0
M  V30 53 H 7.522810 3.945132 -21.748438 0
M  V30 54 H 7.926280 5.872692 -9.718315 0
M  V30 55 H 9.329824 5.020424 -10.320819 0
M  V30 56 H 8.851847 5.416130 -18.778175 0
M  V30 57 H 7.441298 6.302054 -18.326026 0
M  V30 58 H 8.020407 -0.295266 -16.942738 0
M  V30 59 H 9.241597 0.785045 -17.422505 0
M  V30 60 H 9.865894 2.654312 -21.309460 0
M  V30 END ATOM
M  V30 BEGIN BOND
M  V30 1 2 4 1
M  V30 2 1 7 3
M  V30 3 1 10 6
M  V30 4 1 13 6
M  V30 5 1 14 12
M  V30 6 1 15 1
M  V30 7 1 15 10
M  V30 8 2 18 2
M  V30 9 1 19 2
M  V30 10 1 20 15
M  V30 11 2 21 8
M  V30 12 1 21 17
M  V30 13 1 22 14
M  V30 14 1 23 9
M  V30 15 2 23 11
M  V30 16 1 24 8
M  V30 17 1 24 16
M  V30 18 1 25 8
M  V30 19 1 25 19
M  V30 20 1 26 18
M  V30 21 2 26 25
M  V30 22 1 27 11
M  V30 23 1 27 14
M  V30 24 1 28 21
M  V30 25 2 29 5
M  V30 26 1 30 6
M  V30 27 1 30 29
M  V30 28 1 31 7
M  V30 29 1 32 22
M  V30 30 1 33 2
M  V30 31 1 33 23
M  V30 32 1 33 29
M  V30 33 1 34 1
M  V30 34 1 34 7 CFG=3
M  V30 35 1 34 13
M  V30 36 1 34 22
M  V30 37 1 35 3
M  V30 38 1 6 36 CFG=1
M  V30 39 1 37 7
M  V30 40 1 38 9
M  V30 41 1 39 9
M  V30 42 1 40 9
M  V30 43 1 41 10
M  V30 44 1 42 10
M  V30 45 1 43 11
M  V30 46 1 44 12
M  V30 47 1 45 12
M  V30 48 1 46 12
M  V30 49 1 14 47 CFG=1
M  V30 50 1 15 48 CFG=3
M  V30 51 1 49 16
M  V30 52 1 50 16
M  V30 53 1 51 18
M  V30 54 1 52 20
M  V30 55 1 22 53 CFG=3
M  V30 56 1 54 24
M  V30 57 1 55 24
M  V30 58 1 56 27
M  V30 59 1 57 27
M  V30 60 1 58 30
M  V30 61 1 59 30
M  V30 62 1 60 31
M  V30 END BOND
M  V30 END CTAB
M  END
>  <i_epik_Tot_Q>  (1) 
0

>  <i_epik_Tot_abs_Q>  (1) 
0

>  <i_i_glide_confnum>  (1) 
23

>  <i_i_glide_lignum>  (1) 
120

>  <i_i_glide_posenum>  (1) 
349

>  <i_i_glide_rotatable_bonds>  (1) 
7

>  <i_lp_mmshare_version>  (1) 
72125

>  <i_m_source_file_index>  (1) 
45

>  <i_f3d_flags>  (1) 
0

>  <num_sample>  (1) 
50

>  <b_lp_Chiralities_Consistent>  (1) 
1

>  <r_epik_Charging_Adjusted_Penalty>  (1) 
0.14846023016517132

>  <r_epik_Ionization_Penalty>  (1) 
0.1486405622074061

>  <r_epik_Ionization_Penalty_Charging>  (1) 
0

>  <r_epik_Ionization_Penalty_Neutral>  (1) 
0.1486405622074061

>  <r_epik_State_Penalty>  (1) 
0.14846023016517132

>  <r_glide_ring_energy>  (1) 
0

>  <r_i_docking_score>  (1) 
-2.8441938364137656

>  <r_i_glide_ecoul>  (1) 
-3.0035392268075922

>  <r_i_glide_eff_state_penalty>  (1) 
0.14846023016517132

>  <r_i_glide_einternal>  (1) 
4.7645726456588573

>  <r_i_glide_emodel>  (1) 
-27.220947382334266

>  <r_i_glide_emodel_strain>  (1) 
3.1092034918720799

>  <r_i_glide_energy>  (1) 
-28.290554513287795

>  <r_i_glide_erotb>  (1) 
0.32015763248640533

>  <r_i_glide_esite>  (1) 
-0.093147713891023082

>  <r_i_glide_evdw>  (1) 
-25.287015286480202

>  <r_i_glide_gscore>  (1) 
-2.992654066578937

>  <r_i_glide_gscore_strain>  (1) 
0

>  <r_i_glide_hbond>  (1) 
-0.1566355078902972

>  <r_i_glide_ligand_efficiency>  (1) 
-0.083652759894522519

>  <r_i_glide_ligand_efficiency_ln>  (1) 
-0.62836219539868732

>  <r_i_glide_ligand_efficiency_sa>  (1) 
-0.27100246816372692

>  <r_i_glide_lipo>  (1) 
-0.85731629765089223

>  <r_i_glide_metal>  (1) 
-0

>  <r_i_glide_rewards>  (1) 
-0.49083053128798121

>  <r_lp_Energy>  (1) 
44.606941999999997

>  <s_epik_Chemistry_Notes>  (1) 
This compound contains an acetal/aminal-like group ( X-CH(R)-Y where X, Y are N, S, or O) that may be acid/base labile, releasing an aldehyde.

>  <s_epik_cmdline>  (1) 
J2VwaWtfcHl0aG9uJywgJy1waHQnLCAnMS4wJywgJy1waCcsICc3LjQnLCAnLXRuJywgJzgnLCAnLW1hJywgJzUwMCcsICctaW1hZScsICc8aW5maWxlLm1hZT4nLCAnLW9tYWUnLCAnPG91dGZpbGUubWFlPic=

>  <s_epik_input>  (1) 
W09IXVtDSF0oW09IXSlbQ0BAXTEyQyg9TylbQ0BIXShbT0hdKVtDSDJdW0NASF0oTzEpW0NIMl1DKD1PKU4oQyhcW0NIM10pPVtDSF1cW0NIMl1bQ0BASF0oW0NIM10pW0NASF0yRiljM1tjSF1uYyhzMylDKD1DKEYpRilbQ0gyXVtOSDJd

>  <s_glide_docking_method>  (1) 
confgen

>  <s_i_glide_gridfile>  (1) 
gpcr_drd2_6luq_protein_autoprepared_prepared

>  <s_lp_Force_Field>  (1) 
S-OPLS

>  <s_lp_Variant>  (1) 
DiffSBDD_44-1

>  <s_m_source_file>  (1) 
generated_generic_title2_ligand_DiffSBDD_2026-06-23_prepared.sdf

>  <GenAI_Model>  (1) 
DiffSBDD

>  <Protein>  (1) 
generic_title2

$$$$
DiffSBDD_44
     RDKit          3D

  0  0  0  0  0  0  0  0  0  0999 V3000
M  V30 BEGIN CTAB
M  V30 COUNTS 60 62 0 0 1
M  V30 BEGIN ATOM
M  V30 1 C 6.104242 1.821615 -20.755835 0
M  V30 2 C 7.945830 3.522628 -14.468110 0
M  V30 3 O 8.181623 0.003977 -21.606668 0
M  V30 4 O 5.375411 2.508683 -21.470587 0
M  V30 5 O 7.781186 0.738827 -14.753777 0
M  V30 6 C 7.249144 1.214483 -18.264547 0 CFG=2
M  V30 7 C 8.443596 1.392750 -21.597374 0
M  V30 8 C 8.442973 6.339996 -11.762273 0
M  V30 9 C 9.808084 3.321098 -17.400882 0
M  V30 10 C 6.446359 0.070572 -18.884107 0
M  V30 11 C 7.536329 4.469089 -17.335806 0
M  V30 12 C 6.574776 5.963242 -20.672874 0
M  V30 13 O 8.103918 1.747877 -19.274369 0
M  V30 14 C 7.020672 4.764111 -19.815883 0 CFG=1
M  V30 15 C 5.572532 0.557035 -20.052475 0 CFG=1
M  V30 16 N 9.774090 6.884567 -9.689344 0
M  V30 17 F 8.780222 8.678823 -11.478217 0
M  V30 18 C 7.785708 3.004972 -13.180571 0
M  V30 19 S 8.001281 5.294137 -14.380267 0
M  V30 20 O 4.262453 0.790153 -19.585039 0
M  V30 21 C 8.453791 7.613516 -12.229885 0
M  V30 22 C 7.810887 3.744210 -20.708922 0 CFG=1
M  V30 23 C 8.405521 3.569355 -16.834476 0
M  V30 24 C 8.807980 5.989998 -10.313030 0
M  V30 25 C 8.084681 5.204862 -12.641539 0
M  V30 26 N 7.828545 3.990258 -12.188419 0
M  V30 27 C 7.789889 5.301624 -18.571172 0
M  V30 28 F 8.130886 7.949909 -13.486598 0
M  V30 29 C 8.009041 1.443659 -15.733591 0
M  V30 30 C 8.186951 0.762523 -17.115056 0
M  V30 31 O 9.822628 1.635390 -21.440818 0
M  V30 32 F 9.099584 4.088189 -20.701667 0
M  V30 33 N 8.104330 2.826744 -15.667304 0
M  V30 34 C 7.596677 2.188448 -20.541212 0 CFG=2
M  V30 35 H 8.638995 -0.375498 -22.341921 0
M  V30 36 H 6.544741 1.973288 -17.921390 0
M  V30 37 H 8.180483 1.749902 -22.594132 0
M  V30 38 H 9.822942 3.064183 -18.454661 0
M  V30 39 H 10.368506 2.570041 -16.845555 0
M  V30 40 H 10.382027 4.242796 -17.304199 0
M  V30 41 H 7.130647 -0.699910 -19.240870 0
M  V30 42 H 5.830642 -0.411168 -18.122330 0
M  V30 43 H 6.576260 4.603305 -16.859550 0
M  V30 44 H 7.434304 6.507666 -21.066122 0
M  V30 45 H 5.972234 6.664331 -20.094039 0
M  V30 46 H 5.965163 5.642800 -21.518336 0
M  V30 47 H 6.097512 4.296947 -19.470964 0
M  V30 48 H 5.504255 -0.238164 -20.795647 0
M  V30 49 H 9.269997 7.757291 -9.573316 0
M  V30 50 H 9.952009 6.556141 -8.751234 0
M  V30 51 H 7.714127 1.974515 -12.875695 0
M  V30 52 H 3.709509 0.905665 -20.344721 0
M  V30 53 H 7.534147 3.948742 -21.744464 0
M  V30 54 H 7.904673 5.894788 -9.710329 0
M  V30 55 H 9.291419 5.012536 -10.309391 0
M  V30 56 H 8.854887 5.419828 -18.764968 0
M  V30 57 H 7.442361 6.303526 -18.316642 0
M  V30 58 H 8.005723 -0.298530 -16.936233 0
M  V30 59 H 9.231408 0.773115 -17.420554 0
M  V30 60 H 9.995055 1.673442 -20.510667 0
M  V30 END ATOM
M  V30 BEGIN BOND
M  V30 1 2 4 1
M  V30 2 1 7 3
M  V30 3 1 10 6
M  V30 4 1 13 6
M  V30 5 1 14 12
M  V30 6 1 15 1
M  V30 7 1 15 10
M  V30 8 2 18 2
M  V30 9 1 19 2
M  V30 10 1 20 15
M  V30 11 2 21 8
M  V30 12 1 21 17
M  V30 13 1 22 14
M  V30 14 1 23 9
M  V30 15 2 23 11
M  V30 16 1 24 8
M  V30 17 1 24 16
M  V30 18 1 25 8
M  V30 19 1 25 19
M  V30 20 1 26 18
M  V30 21 2 26 25
M  V30 22 1 27 11
M  V30 23 1 27 14
M  V30 24 1 28 21
M  V30 25 2 29 5
M  V30 26 1 30 6
M  V30 27 1 30 29
M  V30 28 1 31 7
M  V30 29 1 32 22
M  V30 30 1 33 2
M  V30 31 1 33 23
M  V30 32 1 33 29
M  V30 33 1 34 1
M  V30 34 1 34 7 CFG=3
M  V30 35 1 34 13
M  V30 36 1 34 22
M  V30 37 1 35 3
M  V30 38 1 6 36 CFG=1
M  V30 39 1 37 7
M  V30 40 1 38 9
M  V30 41 1 39 9
M  V30 42 1 40 9
M  V30 43 1 41 10
M  V30 44 1 42 10
M  V30 45 1 43 11
M  V30 46 1 44 12
M  V30 47 1 45 12
M  V30 48 1 46 12
M  V30 49 1 14 47 CFG=1
M  V30 50 1 15 48 CFG=3
M  V30 51 1 49 16
M  V30 52 1 50 16
M  V30 53 1 51 18
M  V30 54 1 52 20
M  V30 55 1 22 53 CFG=3
M  V30 56 1 54 24
M  V30 57 1 55 24
M  V30 58 1 56 27
M  V30 59 1 57 27
M  V30 60 1 58 30
M  V30 61 1 59 30
M  V30 62 1 60 31
M  V30 END BOND
M  V30 END CTAB
M  END
>  <i_epik_Tot_Q>  (1) 
0

>  <i_epik_Tot_abs_Q>  (1) 
0

>  <i_i_glide_confnum>  (1) 
8

>  <i_i_glide_lignum>  (1) 
120

>  <i_i_glide_posenum>  (1) 
205

>  <i_i_glide_rotatable_bonds>  (1) 
7

>  <i_lp_mmshare_version>  (1) 
72125

>  <i_m_source_file_index>  (1) 
45

>  <i_f3d_flags>  (1) 
0

>  <num_sample>  (1) 
50

>  <b_lp_Chiralities_Consistent>  (1) 
1

>  <r_epik_Charging_Adjusted_Penalty>  (1) 
0.14846023016517132

>  <r_epik_Ionization_Penalty>  (1) 
0.1486405622074061

>  <r_epik_Ionization_Penalty_Charging>  (1) 
0

>  <r_epik_Ionization_Penalty_Neutral>  (1) 
0.1486405622074061

>  <r_epik_State_Penalty>  (1) 
0.14846023016517132

>  <r_glide_ring_energy>  (1) 
0

>  <r_i_docking_score>  (1) 
-2.8379615423506293

>  <r_i_glide_ecoul>  (1) 
-2.9241934337902844

>  <r_i_glide_eff_state_penalty>  (1) 
0.14846023016517132

>  <r_i_glide_einternal>  (1) 
5.1874399083639009

>  <r_i_glide_emodel>  (1) 
-27.497653394566157

>  <r_i_glide_emodel_strain>  (1) 
2.5505843942759157

>  <r_i_glide_energy>  (1) 
-28.229283765857126

>  <r_i_glide_erotb>  (1) 
0.32015763248640533

>  <r_i_glide_esite>  (1) 
-0.094195606975320936

>  <r_i_glide_evdw>  (1) 
-25.30509033206684

>  <r_i_glide_gscore>  (1) 
-2.9864217725158007

>  <r_i_glide_gscore_strain>  (1) 
0

>  <r_i_glide_hbond>  (1) 
-0.16103182364029039

>  <r_i_glide_ligand_efficiency>  (1) 
-0.083469457127959681

>  <r_i_glide_ligand_efficiency_ln>  (1) 
-0.62698530683021325

>  <r_i_glide_ligand_efficiency_sa>  (1) 
-0.27040863835796319

>  <r_i_glide_lipo>  (1) 
-0.85806518133795207

>  <r_i_glide_metal>  (1) 
-0

>  <r_i_glide_rewards>  (1) 
-0.48940326137675777

>  <r_lp_Energy>  (1) 
44.606941999999997

>  <s_epik_Chemistry_Notes>  (1) 
This compound contains an acetal/aminal-like group ( X-CH(R)-Y where X, Y are N, S, or O) that may be acid/base labile, releasing an aldehyde.

>  <s_epik_cmdline>  (1) 
J2VwaWtfcHl0aG9uJywgJy1waHQnLCAnMS4wJywgJy1waCcsICc3LjQnLCAnLXRuJywgJzgnLCAnLW1hJywgJzUwMCcsICctaW1hZScsICc8aW5maWxlLm1hZT4nLCAnLW9tYWUnLCAnPG91dGZpbGUubWFlPic=

>  <s_epik_input>  (1) 
W09IXVtDSF0oW09IXSlbQ0BAXTEyQyg9TylbQ0BIXShbT0hdKVtDSDJdW0NASF0oTzEpW0NIMl1DKD1PKU4oQyhcW0NIM10pPVtDSF1cW0NIMl1bQ0BASF0oW0NIM10pW0NASF0yRiljM1tjSF1uYyhzMylDKD1DKEYpRilbQ0gyXVtOSDJd

>  <s_glide_docking_method>  (1) 
confgen

>  <s_i_glide_gridfile>  (1) 
gpcr_drd2_6luq_protein_autoprepared_prepared

>  <s_lp_Force_Field>  (1) 
S-OPLS

>  <s_lp_Variant>  (1) 
DiffSBDD_44-1

>  <s_m_source_file>  (1) 
generated_generic_title2_ligand_DiffSBDD_2026-06-23_prepared.sdf

>  <GenAI_Model>  (1) 
DiffSBDD

>  <Protein>  (1) 
generic_title2

$$$$
DiffSBDD_0
     RDKit          3D

  0  0  0  0  0  0  0  0  0  0999 V3000
M  V30 BEGIN CTAB
M  V30 COUNTS 70 74 0 0 1
M  V30 BEGIN ATOM
M  V30 1 C 9.287280 7.686546 -6.385014 0
M  V30 2 N 6.927606 7.010896 -14.279160 0
M  V30 3 C 6.880084 4.319580 -17.580426 0 CFG=1
M  V30 4 C 8.660791 7.806310 -12.709328 0
M  V30 5 F 9.775434 4.914023 -8.735399 0
M  V30 6 C 5.974558 7.376718 -15.335416 0
M  V30 7 C 9.957154 8.787140 -7.201600 0
M  V30 8 C 10.035395 6.547564 -11.281055 0
M  V30 9 C 10.842265 7.081682 -8.863592 0 CFG=1
M  V30 10 C 9.529821 4.582247 -17.755757 0
M  V30 11 C 7.009114 5.571872 -14.001932 0 CFG=2
M  V30 12 C 5.399612 6.294403 -11.535298 0
M  V30 13 C 8.274762 3.779701 -17.915866 0 CFG=1
M  V30 14 O 8.865305 6.617971 -12.078918 0
M  V30 15 C 10.191752 5.953595 -8.009883 0 CFG=1
M  V30 16 C 7.459344 3.130440 -16.824362 0 CFG=1
M  V30 17 N 6.587384 5.226641 -16.431293 0 CFG=1 CHG=1
M  V30 18 C 9.999948 7.513820 -10.078057 0
M  V30 19 C 5.514976 4.931854 -12.254528 0
M  V30 20 C 7.504464 4.958444 -15.317684 0 CFG=2
M  V30 21 O 4.575412 6.208063 -10.385116 0
M  V30 22 C 11.188802 8.273405 -7.953095 0
M  V30 23 N 9.842949 5.629927 -18.569726 0
M  V30 24 C 6.228936 6.639733 -16.673544 0
M  V30 25 N 10.442827 4.263319 -16.837922 0
M  V30 26 O 11.497178 5.156152 -17.082575 0
M  V30 27 C 11.065667 5.882201 -18.128983 0
M  V30 28 O 5.774628 5.019611 -13.659519 0
M  V30 29 N 11.983651 6.794613 -18.614267 0
M  V30 30 C 7.771933 7.975185 -13.708641 0
M  V30 31 C 8.975801 6.439386 -7.218095 0
M  V30 32 C 11.906680 7.730373 -19.720160 0
M  V30 33 C 7.626801 3.441390 -15.345911 0
M  V30 34 H 9.918148 7.414516 -5.538865 0
M  V30 35 H 8.358976 8.088313 -5.985084 0
M  V30 36 H 6.066108 4.176572 -18.289305 0
M  V30 37 H 9.285331 8.596613 -12.322287 0
M  V30 38 H 4.975410 7.132751 -14.975890 0
M  V30 39 H 5.972828 8.452397 -15.511454 0
M  V30 40 H 10.251226 9.590109 -6.530420 0
M  V30 41 H 9.227969 9.190091 -7.904611 0
M  V30 42 H 10.086428 5.511917 -10.961553 0
M  V30 43 H 10.924175 6.717090 -11.891015 0
M  V30 44 H 11.795236 6.764496 -9.265388 0
M  V30 45 H 7.719269 5.305937 -13.235519 0
M  V30 46 H 4.976298 7.050737 -12.195802 0
M  V30 47 H 6.386599 6.646663 -11.241771 0
M  V30 48 H 8.356830 3.212689 -18.841284 0
M  V30 49 H 10.935785 5.563260 -7.315525 0
M  V30 50 H 7.074898 2.137899 -17.048994 0
M  V30 51 H 10.342429 8.490943 -10.414329 0
M  V30 52 H 8.975408 7.661816 -9.765897 0
M  V30 53 H 6.264141 4.307949 -11.764574 0
M  V30 54 H 4.575708 4.389838 -12.160541 0
M  V30 55 H 8.468142 5.421351 -15.526908 0
M  V30 56 H 3.677559 6.307311 -10.656703 0
M  V30 57 H 11.947878 7.966537 -7.232365 0
M  V30 58 H 11.636084 9.081609 -8.533428 0
M  V30 59 H 5.322020 6.668691 -17.278679 0
M  V30 60 H 6.975413 7.144805 -17.269957 0
M  V30 61 H 12.861859 6.817728 -18.116025 0
M  V30 62 H 7.660046 8.941563 -14.163565 0
M  V30 63 H 8.603941 5.648569 -6.569675 0
M  V30 64 H 8.175463 6.640726 -7.921734 0
M  V30 65 H 12.901907 7.949445 -20.107778 0
M  V30 66 H 11.305676 7.314816 -20.529721 0
M  V30 67 H 11.446437 8.664895 -19.401436 0
M  V30 68 H 6.820981 2.960142 -14.790491 0
M  V30 69 H 8.575385 3.080908 -14.959254 0
M  V30 70 H 5.728338 4.854305 -16.050584 0
M  V30 END ATOM
M  V30 BEGIN BOND
M  V30 1 1 6 2
M  V30 2 1 7 1
M  V30 3 1 11 2
M  V30 4 1 13 3
M  V30 5 1 13 10
M  V30 6 1 14 4
M  V30 7 1 14 8
M  V30 8 1 15 5
M  V30 9 1 15 9
M  V30 10 1 16 3
M  V30 11 1 16 13
M  V30 12 1 17 3
M  V30 13 1 18 8
M  V30 14 1 18 9
M  V30 15 1 19 12
M  V30 16 1 20 11
M  V30 17 1 20 17
M  V30 18 1 21 12
M  V30 19 1 22 7
M  V30 20 1 22 9
M  V30 21 1 23 10
M  V30 22 1 24 6
M  V30 23 1 24 17
M  V30 24 2 25 10
M  V30 25 1 26 25
M  V30 26 2 27 23
M  V30 27 1 27 26
M  V30 28 1 28 11
M  V30 29 1 28 19
M  V30 30 1 29 27
M  V30 31 1 30 2
M  V30 32 2 30 4
M  V30 33 1 31 1
M  V30 34 1 31 15
M  V30 35 1 32 29
M  V30 36 1 33 16
M  V30 37 1 33 20
M  V30 38 1 34 1
M  V30 39 1 35 1
M  V30 40 1 3 36 CFG=3
M  V30 41 1 37 4
M  V30 42 1 38 6
M  V30 43 1 39 6
M  V30 44 1 40 7
M  V30 45 1 41 7
M  V30 46 1 42 8
M  V30 47 1 43 8
M  V30 48 1 9 44 CFG=3
M  V30 49 1 11 45 CFG=1
M  V30 50 1 46 12
M  V30 51 1 47 12
M  V30 52 1 13 48 CFG=3
M  V30 53 1 15 49 CFG=1
M  V30 54 1 16 50 CFG=1
M  V30 55 1 51 18
M  V30 56 1 52 18
M  V30 57 1 53 19
M  V30 58 1 54 19
M  V30 59 1 20 55 CFG=3
M  V30 60 1 56 21
M  V30 61 1 57 22
M  V30 62 1 58 22
M  V30 63 1 59 24
M  V30 64 1 60 24
M  V30 65 1 61 29
M  V30 66 1 62 30
M  V30 67 1 63 31
M  V30 68 1 64 31
M  V30 69 1 65 32
M  V30 70 1 66 32
M  V30 71 1 67 32
M  V30 72 1 68 33
M  V30 73 1 69 33
M  V30 74 1 17 70 CFG=1
M  V30 END BOND
M  V30 END CTAB
M  END
>  <i_epik_Tot_Q>  (1) 
1

>  <i_epik_Tot_abs_Q>  (1) 
1

>  <i_i_glide_confnum>  (1) 
320

>  <i_i_glide_lignum>  (1) 
12

>  <i_i_glide_posenum>  (1) 
132

>  <i_i_glide_rotatable_bonds>  (1) 
11

>  <i_lp_mmshare_version>  (1) 
72125

>  <i_m_source_file_index>  (1) 
1

>  <i_f3d_flags>  (1) 
0

>  <num_sample>  (1) 
50

>  <b_lp_Chiralities_Consistent>  (1) 
1

>  <r_epik_Charging_Adjusted_Penalty>  (1) 
0.41344222577729461

>  <r_epik_Ionization_Penalty>  (1) 
0.0027644559619576371

>  <r_epik_Ionization_Penalty_Charging>  (1) 
0.0027623868246906495

>  <r_epik_Ionization_Penalty_Neutral>  (1) 
2.0691372669875143e-06

>  <r_epik_State_Penalty>  (1) 
0.41067983895260396

>  <r_glide_ring_energy>  (1) 
1.7272227408313681

>  <r_i_docking_score>  (1) 
-2.7853383836863821

>  <r_i_glide_ecoul>  (1) 
1.4601755046698897

>  <r_i_glide_eff_state_penalty>  (1) 
0.41067983895260396

>  <r_i_glide_einternal>  (1) 
15.23134193526597

>  <r_i_glide_emodel>  (1) 
-18.734943603848045

>  <r_i_glide_emodel_strain>  (1) 
2.3060453356060719

>  <r_i_glide_energy>  (1) 
-22.878446050702333

>  <r_i_glide_erotb>  (1) 
0.74142510397790429

>  <r_i_glide_esite>  (1) 
0

>  <r_i_glide_evdw>  (1) 
-24.338621555372224

>  <r_i_glide_gscore>  (1) 
-3.1960182226389859

>  <r_i_glide_gscore_strain>  (1) 
0

>  <r_i_glide_hbond>  (1) 
0

>  <r_i_glide_ligand_efficiency>  (1) 
-0.084404193445041881

>  <r_i_glide_ligand_efficiency_ln>  (1) 
-0.61944483482153401

>  <r_i_glide_ligand_efficiency_sa>  (1) 
-0.27072934807058058

>  <r_i_glide_lipo>  (1) 
-1.4851778581148141

>  <r_i_glide_metal>  (1) 
-0

>  <r_i_glide_rewards>  (1) 
-1.454360716433948

>  <r_lp_Energy>  (1) 
39.695543999999998

>  <r_lp_tautomer_probability>  (1) 
0.5

>  <s_epik_Chemistry_Notes>  (1) 
This compound has an imine and may undergo hydrolysis. This compound contains an acetal/aminal-like group ( X-CH(R)-Y where X, Y are N, S, or O) that may be acid/base labile, releasing an aldehyde.

>  <s_epik_cmdline>  (1) 
J2VwaWtfcHl0aG9uJywgJy1waHQnLCAnMS4wJywgJy1waCcsICc3LjQnLCAnLXRuJywgJzgnLCAnLW1hJywgJzUwMCcsICctaW1hZScsICc8aW5maWxlLm1hZT4nLCAnLW9tYWUnLCAnPG91dGZpbGUubWFlPic=

>  <s_epik_input>  (1) 
W0NIMl0xW0NIMl1bQ0gyXVtDSDJdW0NASF0oRilbQ0BIXTFbQ0gyXVtDSDJdTy9bQ0hdPVtDSF1cTihbQ0BIXTJPW0NIMl1bQ0gyXVtPSF0pW0NIMl1bQ0gyXU4zW0NAQEhdMltDSDJdW0NAQEhdKFtDQEBIXTM0KVtDQEBIXTRjNW5jKG9uNSlbTkhdW0NIM10=

>  <s_glide_docking_method>  (1) 
confgen

>  <s_i_glide_gridfile>  (1) 
gpcr_drd2_6luq_protein_autoprepared_prepared

>  <s_lp_Force_Field>  (1) 
S-OPLS

>  <s_lp_Variant>  (1) 
DiffSBDD_0-12

>  <s_m_source_file>  (1) 
generated_generic_title2_ligand_DiffSBDD_2026-06-23_prepared.sdf

>  <GenAI_Model>  (1) 
DiffSBDD

>  <Protein>  (1) 
generic_title2

$$$$
DiffSBDD_8
     RDKit          3D

  0  0  0  0  0  0  0  0  0  0999 V3000
M  V30 BEGIN CTAB
M  V30 COUNTS 69 72 0 0 1
M  V30 BEGIN ATOM
M  V30 1 N 9.127379 5.345765 -16.219273 0
M  V30 2 C 10.790267 5.133210 -19.617800 0
M  V30 3 C 6.047320 6.648503 -13.091041 0 CFG=1
M  V30 4 N 9.990846 2.885497 -19.474059 0
M  V30 5 O 7.670316 3.569284 -14.566360 0
M  V30 6 C 9.102343 4.638394 -10.824430 0
M  V30 7 F 10.183862 2.547681 -17.227109 0
M  V30 8 C 9.473066 5.850823 -9.955325 0
M  V30 9 N 8.446858 5.050871 -12.059763 0
M  V30 10 C 7.181381 4.374573 -12.395535 0 CFG=1
M  V30 11 C 10.717100 3.206560 -18.257044 0 CFG=2
M  V30 12 C 11.379481 8.162711 -6.340211 0
M  V30 13 C 6.364786 5.176223 -13.400063 0 CFG=2
M  V30 14 O 8.575399 2.374336 -12.785023 0
M  V30 15 O 10.507513 1.615835 -19.911572 0
M  V30 16 C 10.174248 6.992651 -10.725928 0
M  V30 17 C 6.568585 5.239694 -16.056120 0
M  V30 18 C 10.292422 5.190032 -15.351616 0
M  V30 19 C 7.906932 5.779153 -15.563480 0 CFG=1
M  V30 20 C 10.602622 4.735765 -18.144495 0 CFG=2
M  V30 21 C 9.227980 5.190219 -17.573170 0
M  V30 22 C 5.375357 7.029252 -11.788969 0
M  V30 23 C 7.490055 3.125908 -13.256504 0 CFG=2
M  V30 24 C 7.070758 4.849051 -14.701201 0 CFG=2
M  V30 25 O 10.175386 8.790182 -5.985060 0
M  V30 26 O 8.285026 5.398624 -18.338986 0
M  V30 27 C 11.761690 8.595134 -7.754746 0
M  V30 28 C 9.432791 0.692873 -19.858955 0
M  V30 29 C 10.478916 3.868103 -20.434931 0
M  V30 30 O 10.852550 7.994483 -8.663058 0
M  V30 31 C 11.244133 7.714057 -9.910268 0
M  V30 32 N 6.780248 7.272248 -12.002531 0 CHG=1
M  V30 33 O 12.343287 7.991026 -10.385005 0
M  V30 34 H 10.159707 5.968424 -19.923140 0
M  V30 35 H 11.820502 5.442650 -19.799220 0
M  V30 36 H 5.910140 7.325464 -13.931849 0
M  V30 37 H 9.992247 4.058318 -11.058601 0
M  V30 38 H 8.450413 3.990415 -10.242671 0
M  V30 39 H 10.095306 5.494464 -9.132540 0
M  V30 40 H 8.575916 6.247678 -9.480531 0
M  V30 41 H 9.093637 4.965611 -12.840472 0
M  V30 42 H 6.606555 4.109181 -11.506415 0
M  V30 43 H 11.763214 2.906703 -18.334562 0
M  V30 44 H 12.145390 8.487881 -5.636914 0
M  V30 45 H 11.289647 7.078967 -6.258147 0
M  V30 46 H 5.391891 4.685719 -13.469752 0
M  V30 47 H 9.254007 2.972097 -12.516066 0
M  V30 48 H 9.442708 7.722375 -11.072614 0
M  V30 49 H 10.665250 6.592540 -11.613717 0
M  V30 50 H 6.575466 4.456442 -16.810138 0
M  V30 51 H 5.744893 5.946552 -16.122346 0
M  V30 52 H 10.851600 4.290262 -15.585043 0
M  V30 53 H 10.981270 6.022095 -15.470640 0
M  V30 54 H 10.014287 5.139853 -14.301015 0
M  V30 55 H 7.925237 6.795496 -15.185425 0
M  V30 56 H 11.432617 5.159193 -17.581227 0
M  V30 57 H 4.865329 7.985208 -11.685602 0
M  V30 58 H 5.265796 6.308136 -10.980193 0
M  V30 59 H 6.628871 2.454546 -13.272573 0
M  V30 60 H 9.498438 8.476845 -6.570206 0
M  V30 61 H 11.761719 9.678689 -7.862193 0
M  V30 62 H 12.778799 8.254963 -7.952947 0
M  V30 63 H 9.782129 -0.289486 -20.176981 0
M  V30 64 H 9.038187 0.594450 -18.845831 0
M  V30 65 H 8.621782 0.991623 -20.524745 0
M  V30 66 H 9.732369 4.048312 -21.207787 0
M  V30 67 H 11.390560 3.512744 -20.918290 0
M  V30 68 H 7.377985 6.668012 -11.447015 0
M  V30 69 H 6.989855 8.257246 -12.052072 0
M  V30 END ATOM
M  V30 BEGIN BOND
M  V30 1 1 8 6
M  V30 2 1 9 6
M  V30 3 1 10 9
M  V30 4 1 11 4
M  V30 5 1 11 7
M  V30 6 1 13 3
M  V30 7 1 13 10
M  V30 8 1 15 4
M  V30 9 1 16 8
M  V30 10 1 18 1
M  V30 11 1 19 1
M  V30 12 1 19 17
M  V30 13 1 20 2
M  V30 14 1 20 11
M  V30 15 1 21 1
M  V30 16 1 21 20
M  V30 17 1 22 3
M  V30 18 1 23 5
M  V30 19 1 23 10
M  V30 20 1 23 14
M  V30 21 1 24 5 CFG=3
M  V30 22 1 24 13
M  V30 23 1 24 17
M  V30 24 1 24 19
M  V30 25 1 25 12
M  V30 26 2 26 21
M  V30 27 1 27 12
M  V30 28 1 28 15
M  V30 29 1 29 2
M  V30 30 1 29 4
M  V30 31 1 30 27
M  V30 32 1 31 16
M  V30 33 1 31 30
M  V30 34 1 32 3
M  V30 35 1 32 22
M  V30 36 2 33 31
M  V30 37 1 34 2
M  V30 38 1 35 2
M  V30 39 1 3 36 CFG=3
M  V30 40 1 37 6
M  V30 41 1 38 6
M  V30 42 1 39 8
M  V30 43 1 40 8
M  V30 44 1 41 9
M  V30 45 1 10 42 CFG=1
M  V30 46 1 11 43 CFG=3
M  V30 47 1 44 12
M  V30 48 1 45 12
M  V30 49 1 13 46 CFG=3
M  V30 50 1 47 14
M  V30 51 1 48 16
M  V30 52 1 49 16
M  V30 53 1 50 17
M  V30 54 1 51 17
M  V30 55 1 52 18
M  V30 56 1 53 18
M  V30 57 1 54 18
M  V30 58 1 19 55 CFG=1
M  V30 59 1 20 56 CFG=1
M  V30 60 1 57 22
M  V30 61 1 58 22
M  V30 62 1 23 59 CFG=3
M  V30 63 1 60 25
M  V30 64 1 61 27
M  V30 65 1 62 27
M  V30 66 1 63 28
M  V30 67 1 64 28
M  V30 68 1 65 28
M  V30 69 1 66 29
M  V30 70 1 67 29
M  V30 71 1 68 32
M  V30 72 1 69 32
M  V30 END BOND
M  V30 END CTAB
M  END
>  <i_epik_Tot_Q>  (1) 
1

>  <i_epik_Tot_abs_Q>  (1) 
1

>  <i_i_glide_confnum>  (1) 
2924

>  <i_i_glide_lignum>  (1) 
36

>  <i_i_glide_posenum>  (1) 
297

>  <i_i_glide_rotatable_bonds>  (1) 
15

>  <i_lp_mmshare_version>  (1) 
72125

>  <i_m_source_file_index>  (1) 
9

>  <i_f3d_flags>  (1) 
0

>  <num_sample>  (1) 
50

>  <b_lp_Chiralities_Consistent>  (1) 
1

>  <r_epik_Charging_Adjusted_Penalty>  (1) 
1.2103720943885907

>  <r_epik_Ionization_Penalty>  (1) 
0.55446808147534954

>  <r_epik_Ionization_Penalty_Charging>  (1) 
0.13553905892425583

>  <r_epik_Ionization_Penalty_Neutral>  (1) 
0.41892902255109377

>  <r_epik_State_Penalty>  (1) 
1.074833035464335

>  <r_glide_ring_energy>  (1) 
0

>  <r_i_docking_score>  (1) 
-2.7677844902472475

>  <r_i_glide_ecoul>  (1) 
-6.1358509567021438

>  <r_i_glide_eff_state_penalty>  (1) 
1.074833035464335

>  <r_i_glide_einternal>  (1) 
34.908950053718208

>  <r_i_glide_emodel>  (1) 
-28.854060099013967

>  <r_i_glide_emodel_strain>  (1) 
0.91947201975973769

>  <r_i_glide_energy>  (1) 
-35.584140113993499

>  <r_i_glide_erotb>  (1) 
1.0741905119875848

>  <r_i_glide_esite>  (1) 
-0.10000000000000001

>  <r_i_glide_evdw>  (1) 
-29.448289157291352

>  <r_i_glide_gscore>  (1) 
-3.8426175257115824

>  <r_i_glide_gscore_strain>  (1) 
0

>  <r_i_glide_hbond>  (1) 
0

>  <r_i_glide_ligand_efficiency>  (1) 
-0.083872257280219617

>  <r_i_glide_ligand_efficiency_ln>  (1) 
-0.61554093980986635

>  <r_i_glide_ligand_efficiency_sa>  (1) 
-0.26902314456054682

>  <r_i_glide_lipo>  (1) 
-1.3523316071598428

>  <r_i_glide_metal>  (1) 
-0

>  <r_i_glide_rewards>  (1) 
-1.0716843291694349

>  <r_lp_Energy>  (1) 
39.739995999999998

>  <s_epik_Chemistry_Notes>  (1) 
This compound has an ester and may undergo hydrolysis at high or low pH. This compound contains an acetal/aminal-like group ( X-CH(R)-Y where X, Y are N, S, or O) that may be acid/base labile, releasing an aldehyde. This compound has a N-S or N-O group and may undergo hydrolysis at high or low pH.

>  <s_epik_cmdline>  (1) 
J2VwaWtfcHl0aG9uJywgJy1waHQnLCAnMS4wJywgJy1waCcsICc3LjQnLCAnLXRuJywgJzgnLCAnLW1hJywgJzUwMCcsICctaW1hZScsICc8aW5maWxlLm1hZT4nLCAnLW9tYWUnLCAnPG91dGZpbGUubWFlPic=

>  <s_epik_input>  (1) 
W0NIM11PTjFbQ0BIXShGKVtDQEBIXShbQ0gyXVtDSDJdMSlDKD1PKU4oW0NIM10pW0NASF0yW0NIMl1DMjNPW0NAQEhdKFtPSF0pW0NASF0oW0NASF0zW0NASF00W0NIMl1bTkhdNClbTkhdW0NIMl1bQ0gyXVtDSDJdQyg9TylPW0NIMl1bQ0gyXVtPSF0=

>  <s_glide_docking_method>  (1) 
confgen

>  <s_i_glide_gridfile>  (1) 
gpcr_drd2_6luq_protein_autoprepared_prepared

>  <s_lp_Force_Field>  (1) 
S-OPLS

>  <s_lp_Variant>  (1) 
DiffSBDD_8-5

>  <s_m_source_file>  (1) 
generated_generic_title2_ligand_DiffSBDD_2026-06-23_prepared.sdf

>  <GenAI_Model>  (1) 
DiffSBDD

>  <Protein>  (1) 
generic_title2

$$$$
DiffSBDD_28
     RDKit          3D

  0  0  0  0  0  0  0  0  0  0999 V3000
M  V30 BEGIN CTAB
M  V30 COUNTS 79 86 0 0 1
M  V30 BEGIN ATOM
M  V30 1 F 23.375367 4.923811 -21.185020 0
M  V30 2 C 13.241738 5.730823 -17.283198 0 CFG=1
M  V30 3 C 16.703244 6.360649 -18.640083 0 CFG=2
M  V30 4 C 13.374548 2.920623 -17.412187 0 CFG=2
M  V30 5 C 21.062711 7.293568 -19.277145 0 CFG=1
M  V30 6 C 12.795219 5.847970 -15.827297 0
M  V30 7 C 18.627616 8.038761 -18.579835 0 CFG=2
M  V30 8 C 24.061266 8.474951 -19.794669 0 CFG=1
M  V30 9 C 16.980459 5.953931 -17.173274 0
M  V30 10 C 21.565469 8.730963 -19.359065 0 CFG=1
M  V30 11 C 11.807270 4.812360 -18.670822 0 CFG=1
M  V30 12 C 16.202393 8.671402 -18.875314 0
M  V30 13 C 12.928721 4.314116 -17.794828 0 CFG=1
M  V30 14 O 10.547761 4.331369 -18.252968 0
M  V30 15 C 23.561516 6.292132 -21.225269 0 CFG=1
M  V30 16 C 19.631006 6.957546 -18.946241 0 CFG=1
M  V30 17 O 20.101739 6.953105 -20.291181 0
M  V30 18 N 17.268866 7.671813 -19.068839 0 CFG=2 CHG=1
M  V30 19 O 13.365246 0.491441 -17.585043 0
M  V30 20 C 23.115283 6.952372 -22.478823 0
M  V30 21 O 13.975584 3.633746 -18.504176 0
M  V30 22 C 20.559493 9.691088 -18.669823 0
M  V30 23 C 12.169697 6.245013 -18.277374 0
M  V30 24 N 14.635513 6.231409 -17.387706 0
M  V30 25 C 12.605276 1.673118 -17.804139 0
M  V30 26 N 25.270453 9.046387 -19.164642 0 CHG=1
M  V30 27 C 19.103391 9.417872 -19.087011 0
M  V30 28 C 24.874306 10.069001 -18.184803 0
M  V30 29 C 23.360603 10.148017 -18.300719 0
M  V30 30 O 22.541752 8.037620 -22.445342 0
M  V30 31 C 14.915386 7.920827 -19.201710 0
M  V30 32 C 24.286192 6.961015 -20.048488 0
M  V30 33 O 24.367590 6.648041 -22.414127 0
M  V30 34 N 22.965345 8.828575 -18.841688 0 CFG=2 CHG=1
M  V30 35 C 15.637427 5.443045 -16.682340 0
M  V30 36 C 14.404092 0.291490 -18.530161 0
M  V30 37 C 15.169025 6.481615 -18.721376 0 CFG=1
M  V30 38 H 17.048947 5.575535 -19.314401 0
M  V30 39 H 13.974754 2.838676 -16.508709 0
M  V30 40 H 21.789695 6.511235 -19.086158 0
M  V30 41 H 11.745826 5.582775 -15.694631 0
M  V30 42 H 13.375420 5.190282 -15.185025 0
M  V30 43 H 12.918429 6.864830 -15.452603 0
M  V30 44 H 18.609013 8.110530 -17.493827 0
M  V30 45 H 23.943829 9.038760 -20.719056 0
M  V30 46 H 17.259469 6.790216 -16.539838 0
M  V30 47 H 17.759836 5.197320 -17.082131 0
M  V30 48 H 21.577347 9.022619 -20.407467 0
M  V30 49 H 11.945124 4.622235 -19.736024 0
M  V30 50 H 16.329344 9.548920 -19.510497 0
M  V30 51 H 16.189608 8.999633 -17.834260 0
M  V30 52 H 10.531369 4.367105 -17.308449 0
M  V30 53 H 19.456192 5.969493 -18.530571 0
M  V30 54 H 20.792925 10.727388 -18.916884 0
M  V30 55 H 20.634579 9.606111 -17.585021 0
M  V30 56 H 12.534382 6.797940 -19.139338 0
M  V30 57 H 11.356553 6.789802 -17.801493 0
M  V30 58 H 11.710926 1.616924 -17.185029 0
M  V30 59 H 12.265971 1.742532 -18.839024 0
M  V30 60 H 25.856027 9.447231 -19.882336 0
M  V30 61 H 19.012625 9.480606 -20.172749 0
M  V30 62 H 18.472136 10.207607 -18.677586 0
M  V30 63 H 25.358062 11.027482 -18.377615 0
M  V30 64 H 25.168931 9.731909 -17.189383 0
M  V30 65 H 23.099708 10.929988 -19.016791 0
M  V30 66 H 22.888237 10.390241 -17.348469 0
M  V30 67 H 14.750237 7.922364 -20.279959 0
M  V30 68 H 14.051759 8.397951 -18.736071 0
M  V30 69 H 24.057823 6.399754 -19.144969 0
M  V30 70 H 25.351957 6.790227 -20.201706 0
M  V30 71 H 15.544868 5.540091 -15.600065 0
M  V30 72 H 15.564813 4.387223 -16.927155 0
M  V30 73 H 14.919394 -0.644545 -18.312417 0
M  V30 74 H 14.007237 0.227379 -19.544074 0
M  V30 75 H 15.141129 1.094175 -18.492862 0
M  V30 76 H 14.775823 5.760267 -19.438350 0
M  V30 77 H 17.357663 7.592276 -20.072666 0
M  V30 78 H 25.770319 8.314414 -18.672113 0
M  V30 79 H 23.030637 8.190315 -18.061585 0
M  V30 END ATOM
M  V30 BEGIN BOND
M  V30 1 1 2 6 CFG=1
M  V30 2 1 9 3
M  V30 3 1 10 5
M  V30 4 1 13 2
M  V30 5 1 13 4
M  V30 6 1 13 11
M  V30 7 1 14 11
M  V30 8 1 15 1 CFG=3
M  V30 9 1 16 5
M  V30 10 1 16 7
M  V30 11 1 17 5
M  V30 12 1 17 16
M  V30 13 1 18 3
M  V30 14 1 18 7
M  V30 15 1 18 12
M  V30 16 1 20 15
M  V30 17 1 21 4
M  V30 18 1 13 21 CFG=3
M  V30 19 1 22 10
M  V30 20 1 23 2
M  V30 21 1 23 11
M  V30 22 1 24 2
M  V30 23 1 25 4
M  V30 24 1 25 19
M  V30 25 1 26 8
M  V30 26 1 27 7
M  V30 27 1 27 22
M  V30 28 1 28 26
M  V30 29 1 29 28
M  V30 30 2 30 20
M  V30 31 1 31 12
M  V30 32 1 32 8
M  V30 33 1 32 15
M  V30 34 1 33 15
M  V30 35 1 33 20
M  V30 36 1 34 8
M  V30 37 1 34 10
M  V30 38 1 34 29
M  V30 39 1 35 9
M  V30 40 1 35 24
M  V30 41 1 36 19
M  V30 42 1 37 3
M  V30 43 1 37 24
M  V30 44 1 37 31
M  V30 45 1 3 38 CFG=3
M  V30 46 1 4 39 CFG=1
M  V30 47 1 5 40 CFG=1
M  V30 48 1 41 6
M  V30 49 1 42 6
M  V30 50 1 43 6
M  V30 51 1 7 44 CFG=1
M  V30 52 1 8 45 CFG=3
M  V30 53 1 46 9
M  V30 54 1 47 9
M  V30 55 1 10 48 CFG=3
M  V30 56 1 11 49 CFG=3
M  V30 57 1 50 12
M  V30 58 1 51 12
M  V30 59 1 52 14
M  V30 60 1 16 53 CFG=1
M  V30 61 1 54 22
M  V30 62 1 55 22
M  V30 63 1 56 23
M  V30 64 1 57 23
M  V30 65 1 58 25
M  V30 66 1 59 25
M  V30 67 1 60 26
M  V30 68 1 61 27
M  V30 69 1 62 27
M  V30 70 1 63 28
M  V30 71 1 64 28
M  V30 72 1 65 29
M  V30 73 1 66 29
M  V30 74 1 67 31
M  V30 75 1 68 31
M  V30 76 1 69 32
M  V30 77 1 70 32
M  V30 78 1 71 35
M  V30 79 1 72 35
M  V30 80 1 73 36
M  V30 81 1 74 36
M  V30 82 1 75 36
M  V30 83 1 37 76 CFG=3
M  V30 84 1 18 77 CFG=3
M  V30 85 1 78 26
M  V30 86 1 34 79 CFG=1
M  V30 END BOND
M  V30 END CTAB
M  END
>  <i_epik_Tot_Q>  (1) 
3

>  <i_epik_Tot_abs_Q>  (1) 
3

>  <i_i_glide_confnum>  (1) 
336

>  <i_i_glide_lignum>  (1) 
81

>  <i_i_glide_posenum>  (1) 
206

>  <i_i_glide_rotatable_bonds>  (1) 
8

>  <i_lp_mmshare_version>  (1) 
72125

>  <i_m_source_file_index>  (1) 
29

>  <i_f3d_flags>  (1) 
0

>  <num_sample>  (1) 
50

>  <b_lp_Chiralities_Consistent>  (1) 
1

>  <r_epik_Charging_Adjusted_Penalty>  (1) 
2.5241965566360229

>  <r_epik_Ionization_Penalty>  (1) 
2.0480993089750741

>  <r_epik_Ionization_Penalty_Charging>  (1) 
2.0477503768466887

>  <r_epik_Ionization_Penalty_Neutral>  (1) 
0.00034893212838530931

>  <r_epik_State_Penalty>  (1) 
0.4764461797893344

>  <r_glide_ring_energy>  (1) 
0.81914574756083636

>  <r_i_docking_score>  (1) 
-2.7635669360515736

>  <r_i_glide_ecoul>  (1) 
-5.854790386466159

>  <r_i_glide_eff_state_penalty>  (1) 
0.4764461797893344

>  <r_i_glide_einternal>  (1) 
5.034027655903035

>  <r_i_glide_emodel>  (1) 
-35.55112609186768

>  <r_i_glide_emodel_strain>  (1) 
0

>  <r_i_glide_energy>  (1) 
-31.97309157463723

>  <r_i_glide_erotb>  (1) 
0.44698704239028575

>  <r_i_glide_esite>  (1) 
0

>  <r_i_glide_evdw>  (1) 
-26.11830118817107

>  <r_i_glide_gscore>  (1) 
-3.2400131158409078

>  <r_i_glide_gscore_strain>  (1) 
0

>  <r_i_glide_hbond>  (1) 
0

>  <r_i_glide_ligand_efficiency>  (1) 
-0.074690998271664144

>  <r_i_glide_ligand_efficiency_ln>  (1) 
-0.59935288122853403

>  <r_i_glide_ligand_efficiency_sa>  (1) 
-0.24888697656208944

>  <r_i_glide_lipo>  (1) 
-1.5028665408527162

>  <r_i_glide_metal>  (1) 
-0

>  <r_i_glide_rewards>  (1) 
0

>  <r_lp_Energy>  (1) 
75.273594000000003

>  <s_epik_Chemistry_Notes>  (1) 
This compound has an ester and may undergo hydrolysis at high or low pH. This compound contains an acetal/aminal-like group ( X-CH(R)-Y where X, Y are N, S, or O) that may be acid/base labile, releasing an aldehyde.

>  <s_epik_cmdline>  (1) 
J2VwaWtfcHl0aG9uJywgJy1waHQnLCAnMS4wJywgJy1waCcsICc3LjQnLCAnLXRuJywgJzgnLCAnLW1hJywgJzUwMCcsICctaW1hZScsICc8aW5maWxlLm1hZT4nLCAnLW9tYWUnLCAnPG91dGZpbGUubWFlPic=

>  <s_epik_input>  (1) 
Tz1DKE8xKUMxKEYpW0NIMl1bQ0BASF0yW05IXVtDSDJdW0NIMl1OMltDQEBIXTNbQ0gyXVtDSDJdW0NASF0oW0NAQEhdKE80KVtDQEhdMzQpTjVbQ0gyXVtDSDJdW0NAQEhdKFtDQEhdNTYpTihbQ0gyXVtDSDJdNilbQ0BAXShbQ0gzXSkoW0NIMl1bQ0BASF03W09IXSlbQ0BAXTc4W0NASF0oTzgpW0NIMl1PW0NIM10=

>  <s_glide_docking_method>  (1) 
confgen

>  <s_i_glide_gridfile>  (1) 
gpcr_drd2_6luq_protein_autoprepared_prepared

>  <s_lp_Force_Field>  (1) 
S-OPLS

>  <s_lp_Variant>  (1) 
DiffSBDD_28-4

>  <s_m_source_file>  (1) 
generated_generic_title2_ligand_DiffSBDD_2026-06-23_prepared.sdf

>  <GenAI_Model>  (1) 
DiffSBDD

>  <Protein>  (1) 
generic_title2

$$$$
DiffSBDD_8
     RDKit          3D

  0  0  0  0  0  0  0  0  0  0999 V3000
M  V30 BEGIN CTAB
M  V30 COUNTS 69 72 0 0 1
M  V30 BEGIN ATOM
M  V30 1 N 6.443629 4.526411 -14.107521 0
M  V30 2 C 6.412459 7.097209 -16.946037 0
M  V30 3 C 8.027921 6.728470 -12.513494 0 CFG=1
M  V30 4 N 6.391085 5.146743 -18.204535 0
M  V30 5 O 9.778970 4.904483 -13.453797 0
M  V30 6 C 9.376672 6.348103 -9.004612 0
M  V30 7 F 7.155661 3.608670 -16.748704 0
M  V30 8 C 9.925559 7.412794 -8.056589 0
M  V30 9 N 9.914208 6.547092 -10.327732 0
M  V30 10 C 9.613645 5.414833 -11.186915 0 CFG=1
M  V30 11 C 7.301966 4.889502 -17.095936 0 CFG=2
M  V30 12 C 12.029066 7.739034 -2.459013 0
M  V30 13 C 8.272135 5.399600 -11.842258 0 CFG=2
M  V30 14 O 11.167534 6.614914 -12.678957 0
M  V30 15 O 6.820939 4.474568 -19.444558 0
M  V30 16 C 10.492164 6.721865 -6.815348 0
M  V30 17 C 8.216352 2.956280 -13.037291 0
M  V30 18 C 5.488400 3.990766 -13.132799 0
M  V30 19 C 7.764114 3.983359 -14.067226 0 CFG=2
M  V30 20 C 7.023401 5.963439 -16.044272 0 CFG=2
M  V30 21 C 6.051837 5.497413 -14.974653 0
M  V30 22 C 6.701244 7.352814 -12.529420 0
M  V30 23 C 10.539095 5.387192 -12.369255 0 CFG=2
M  V30 24 C 8.595721 4.418934 -12.928151 0 CFG=2
M  V30 25 O 11.792866 9.052065 -2.016323 0
M  V30 26 O 4.975285 5.988335 -14.927807 0
M  V30 27 C 12.519291 7.827222 -3.897553 0
M  V30 28 C 8.223153 4.185383 -19.510040 0
M  V30 29 C 6.421517 6.582908 -18.402958 0
M  V30 30 O 11.690013 7.078856 -4.777782 0
M  V30 31 C 11.048642 7.694561 -5.786018 0
M  V30 32 N 7.745267 7.805858 -11.625250 0 CHG=1
M  V30 33 O 10.920681 8.916725 -5.905457 0
M  V30 34 H 5.376795 7.363665 -16.732055 0
M  V30 35 H 6.945764 8.023577 -16.775808 0
M  V30 36 H 8.792742 7.134359 -13.160648 0
M  V30 37 H 9.640243 5.352350 -8.637784 0
M  V30 38 H 8.289982 6.346295 -9.044202 0
M  V30 39 H 9.143634 8.133458 -7.807753 0
M  V30 40 H 10.719044 7.996400 -8.531999 0
M  V30 41 H 10.914901 6.722390 -10.291150 0
M  V30 42 H 9.771392 4.475018 -10.661374 0
M  V30 43 H 8.355195 5.052483 -17.305473 0
M  V30 44 H 12.788858 7.272448 -1.834618 0
M  V30 45 H 11.139456 7.114989 -2.377499 0
M  V30 46 H 7.475963 5.071844 -11.170830 0
M  V30 47 H 11.739309 6.433823 -13.413053 0
M  V30 48 H 11.294595 6.050359 -7.132861 0
M  V30 49 H 9.723475 6.099177 -6.359397 0
M  V30 50 H 8.874308 2.178146 -13.426233 0
M  V30 51 H 7.493724 2.591338 -12.327424 0
M  V30 52 H 4.480505 4.312520 -13.342835 0
M  V30 53 H 5.472642 2.902117 -13.162824 0
M  V30 54 H 5.712568 4.343097 -12.130560 0
M  V30 55 H 8.357283 3.916008 -14.963598 0
M  V30 56 H 7.944896 6.292220 -15.568126 0
M  V30 57 H 6.523993 7.912546 -13.433445 0
M  V30 58 H 5.917550 6.756642 -12.081859 0
M  V30 59 H 11.280627 4.702661 -11.985021 0
M  V30 60 H 11.260600 9.031510 -1.230729 0
M  V30 61 H 12.656135 8.860171 -4.224837 0
M  V30 62 H 13.518892 7.408973 -3.912314 0
M  V30 63 H 8.451070 3.669473 -20.433377 0
M  V30 64 H 8.801954 5.107609 -19.479002 0
M  V30 65 H 8.591145 3.518879 -18.725580 0
M  V30 66 H 5.565647 6.927202 -18.988821 0
M  V30 67 H 7.323159 6.886340 -18.926361 0
M  V30 68 H 7.522954 7.590206 -10.635927 0
M  V30 69 H 8.169176 8.689325 -11.845976 0
M  V30 END ATOM
M  V30 BEGIN BOND
M  V30 1 1 8 6
M  V30 2 1 9 6
M  V30 3 1 10 9
M  V30 4 1 11 4
M  V30 5 1 11 7
M  V30 6 1 13 3
M  V30 7 1 13 10
M  V30 8 1 15 4
M  V30 9 1 16 8
M  V30 10 1 18 1
M  V30 11 1 19 1
M  V30 12 1 19 17
M  V30 13 1 20 2
M  V30 14 1 20 11
M  V30 15 1 21 1
M  V30 16 1 21 20
M  V30 17 1 22 3
M  V30 18 1 23 5
M  V30 19 1 23 10
M  V30 20 1 23 14
M  V30 21 1 24 5 CFG=3
M  V30 22 1 24 13
M  V30 23 1 24 17
M  V30 24 1 24 19
M  V30 25 1 25 12
M  V30 26 2 26 21
M  V30 27 1 27 12
M  V30 28 1 28 15
M  V30 29 1 29 2
M  V30 30 1 29 4
M  V30 31 1 30 27
M  V30 32 1 31 16
M  V30 33 1 31 30
M  V30 34 1 32 3
M  V30 35 1 32 22
M  V30 36 2 33 31
M  V30 37 1 34 2
M  V30 38 1 35 2
M  V30 39 1 3 36 CFG=3
M  V30 40 1 37 6
M  V30 41 1 38 6
M  V30 42 1 39 8
M  V30 43 1 40 8
M  V30 44 1 41 9
M  V30 45 1 10 42 CFG=1
M  V30 46 1 11 43 CFG=3
M  V30 47 1 44 12
M  V30 48 1 45 12
M  V30 49 1 13 46 CFG=1
M  V30 50 1 47 14
M  V30 51 1 48 16
M  V30 52 1 49 16
M  V30 53 1 50 17
M  V30 54 1 51 17
M  V30 55 1 52 18
M  V30 56 1 53 18
M  V30 57 1 54 18
M  V30 58 1 19 55 CFG=3
M  V30 59 1 20 56 CFG=1
M  V30 60 1 57 22
M  V30 61 1 58 22
M  V30 62 1 23 59 CFG=1
M  V30 63 1 60 25
M  V30 64 1 61 27
M  V30 65 1 62 27
M  V30 66 1 63 28
M  V30 67 1 64 28
M  V30 68 1 65 28
M  V30 69 1 66 29
M  V30 70 1 67 29
M  V30 71 1 68 32
M  V30 72 1 69 32
M  V30 END BOND
M  V30 END CTAB
M  END
>  <i_epik_Tot_Q>  (1) 
1

>  <i_epik_Tot_abs_Q>  (1) 
1

>  <i_i_glide_confnum>  (1) 
5881

>  <i_i_glide_lignum>  (1) 
38

>  <i_i_glide_posenum>  (1) 
362

>  <i_i_glide_rotatable_bonds>  (1) 
15

>  <i_lp_mmshare_version>  (1) 
72125

>  <i_m_source_file_index>  (1) 
9

>  <i_f3d_flags>  (1) 
0

>  <num_sample>  (1) 
50

>  <b_lp_Chiralities_Consistent>  (1) 
1

>  <r_epik_Charging_Adjusted_Penalty>  (1) 
1.2103720943885907

>  <r_epik_Ionization_Penalty>  (1) 
0.55446808147534954

>  <r_epik_Ionization_Penalty_Charging>  (1) 
0.13553905892425583

>  <r_epik_Ionization_Penalty_Neutral>  (1) 
0.41892902255109377

>  <r_epik_State_Penalty>  (1) 
1.074833035464335

>  <r_glide_ring_energy>  (1) 
0

>  <r_i_docking_score>  (1) 
-2.7493832806095964

>  <r_i_glide_ecoul>  (1) 
-12.132422602875529

>  <r_i_glide_eff_state_penalty>  (1) 
1.074833035464335

>  <r_i_glide_einternal>  (1) 
38.060470668689206

>  <r_i_glide_emodel>  (1) 
-1.728890523950632

>  <r_i_glide_emodel_strain>  (1) 
8.3132389291282323

>  <r_i_glide_energy>  (1) 
-18.056373338772342

>  <r_i_glide_erotb>  (1) 
1.0741905119875848

>  <r_i_glide_esite>  (1) 
-0.10000000000000001

>  <r_i_glide_evdw>  (1) 
-5.9239507358968124

>  <r_i_glide_gscore>  (1) 
-3.8242163160739313

>  <r_i_glide_gscore_strain>  (1) 
1.0783097322820581

>  <r_i_glide_hbond>  (1) 
-0.45535398373238667

>  <r_i_glide_ligand_efficiency>  (1) 
-0.083314644866957471

>  <r_i_glide_ligand_efficiency_ln>  (1) 
-0.61144860606281715

>  <r_i_glide_ligand_efficiency_sa>  (1) 
-0.26723458360217667

>  <r_i_glide_lipo>  (1) 
-1.9333689660058175

>  <r_i_glide_metal>  (1) 
-0

>  <r_i_glide_rewards>  (1) 
-1.3719326833791998

>  <r_lp_Energy>  (1) 
41.909411999999996

>  <s_epik_Chemistry_Notes>  (1) 
This compound has an ester and may undergo hydrolysis at high or low pH. This compound contains an acetal/aminal-like group ( X-CH(R)-Y where X, Y are N, S, or O) that may be acid/base labile, releasing an aldehyde. This compound has a N-S or N-O group and may undergo hydrolysis at high or low pH.

>  <s_epik_cmdline>  (1) 
J2VwaWtfcHl0aG9uJywgJy1waHQnLCAnMS4wJywgJy1waCcsICc3LjQnLCAnLXRuJywgJzgnLCAnLW1hJywgJzUwMCcsICctaW1hZScsICc8aW5maWxlLm1hZT4nLCAnLW9tYWUnLCAnPG91dGZpbGUubWFlPic=

>  <s_epik_input>  (1) 
W0NIM11PTjFbQ0BIXShGKVtDQEBIXShbQ0gyXVtDSDJdMSlDKD1PKU4oW0NIM10pW0NASF0yW0NIMl1DMjNPW0NAQEhdKFtPSF0pW0NASF0oW0NASF0zW0NASF00W0NIMl1bTkhdNClbTkhdW0NIMl1bQ0gyXVtDSDJdQyg9TylPW0NIMl1bQ0gyXVtPSF0=

>  <s_glide_docking_method>  (1) 
confgen

>  <s_i_glide_gridfile>  (1) 
gpcr_drd2_6luq_protein_autoprepared_prepared

>  <s_lp_Force_Field>  (1) 
S-OPLS

>  <s_lp_Variant>  (1) 
DiffSBDD_8-7

>  <s_m_source_file>  (1) 
generated_generic_title2_ligand_DiffSBDD_2026-06-23_prepared.sdf

>  <GenAI_Model>  (1) 
DiffSBDD

>  <Protein>  (1) 
generic_title2

$$$$
DiffSBDD_28
     RDKit          3D

  0  0  0  0  0  0  0  0  0  0999 V3000
M  V30 BEGIN CTAB
M  V30 COUNTS 79 86 0 0 1
M  V30 BEGIN ATOM
M  V30 1 F 23.134799 12.479211 -23.082883 0
M  V30 2 C 15.492838 0.925703 -21.107905 0 CFG=1
M  V30 3 C 18.080821 3.668875 -20.732752 0 CFG=2
M  V30 4 C 13.674510 2.031443 -19.281739 0 CFG=2
M  V30 5 C 22.759980 5.685680 -21.339873 0 CFG=1
M  V30 6 C 14.478164 0.761952 -22.246554 0
M  V30 7 C 20.362529 4.769488 -20.671786 0 CFG=2
M  V30 8 C 22.947751 9.488782 -20.668696 0 CFG=1
M  V30 9 C 17.161393 4.220276 -21.831490 0
M  V30 10 C 22.271855 7.129984 -21.357536 0 CFG=1
M  V30 11 C 15.202749 -0.270028 -19.279904 0 CFG=1
M  V30 12 C 20.005638 2.317346 -20.634696 0
M  V30 13 C 14.724794 1.069887 -19.784847 0 CFG=1
M  V30 14 O 14.175414 -1.207785 -19.052453 0
M  V30 15 C 22.656998 11.649346 -22.086814 0 CFG=1
M  V30 16 C 21.830289 4.542425 -21.018408 0 CFG=1
M  V30 17 O 22.199263 4.844030 -22.362084 0
M  V30 18 N 19.516531 3.623089 -21.115359 0 CFG=1 CHG=1
M  V30 19 O 12.141145 2.856420 -17.585021 0
M  V30 20 C 21.205145 11.843633 -21.897250 0
M  V30 21 O 15.057346 2.178018 -18.933614 0
M  V30 22 C 20.825541 7.272614 -20.801060 0
M  V30 23 C 16.008904 -0.432597 -20.569779 0
M  V30 24 N 16.494038 1.972222 -21.467698 0
M  V30 25 C 12.747942 1.693630 -18.130110 0
M  V30 26 N 23.839089 10.038623 -19.619786 0 CHG=1
M  V30 27 C 19.886074 6.128962 -21.228492 0
M  V30 28 C 24.307879 8.932960 -18.763799 0
M  V30 29 C 23.701354 7.664481 -19.358112 0
M  V30 30 O 20.302319 11.024124 -21.737907 0
M  V30 31 C 18.839921 1.357698 -20.785025 0
M  V30 32 C 23.138619 10.199941 -22.031007 0
M  V30 33 O 21.975441 12.228070 -20.910815 0
M  V30 34 N 23.276948 8.039868 -20.722166 0 CFG=2 CHG=1
M  V30 35 C 15.951079 3.291301 -21.760297 0
M  V30 36 C 13.038695 3.690223 -16.867213 0
M  V30 37 C 17.599697 2.216098 -20.539870 0 CFG=1
M  V30 38 H 17.940793 4.210886 -19.795754 0
M  V30 39 H 13.296170 2.758992 -19.996457 0
M  V30 40 H 23.832209 5.531323 -21.233936 0
M  V30 41 H 13.818619 -0.090724 -22.077919 0
M  V30 42 H 13.832590 1.634227 -22.350875 0
M  V30 43 H 14.975290 0.599928 -23.203542 0
M  V30 44 H 20.306374 4.817507 -19.585025 0
M  V30 45 H 21.932944 9.603704 -20.290833 0
M  V30 46 H 17.627507 4.131998 -22.814025 0
M  V30 47 H 16.890167 5.265386 -21.678418 0
M  V30 48 H 22.233596 7.408946 -22.411227 0
M  V30 49 H 15.839096 -0.201174 -18.399550 0
M  V30 50 H 20.286780 2.389183 -19.585059 0
M  V30 51 H 20.882595 1.990227 -21.185031 0
M  V30 52 H 14.620354 -2.004382 -18.785090 0
M  V30 53 H 22.310582 3.664353 -20.590977 0
M  V30 54 H 20.390457 8.212652 -21.141481 0
M  V30 55 H 20.825614 7.317135 -19.712165 0
M  V30 56 H 17.072728 -0.511134 -20.377899 0
M  V30 57 H 15.687016 -1.287391 -21.166185 0
M  V30 58 H 11.955623 1.048449 -18.509794 0
M  V30 59 H 13.277363 1.126512 -17.362098 0
M  V30 60 H 23.346132 10.731829 -19.071027 0
M  V30 61 H 19.819232 6.093996 -22.317203 0
M  V30 62 H 18.882759 6.352549 -20.866206 0
M  V30 63 H 24.010380 9.077586 -17.724240 0
M  V30 64 H 25.397786 8.893904 -18.794932 0
M  V30 65 H 22.823993 7.372553 -18.785044 0
M  V30 66 H 24.403704 6.829555 -19.344446 0
M  V30 67 H 18.935054 0.520482 -20.094385 0
M  V30 68 H 18.813704 0.971692 -21.802384 0
M  V30 69 H 24.191097 10.180668 -22.315976 0
M  V30 70 H 22.612871 9.655410 -22.816266 0
M  V30 71 H 15.385971 3.301965 -22.692467 0
M  V30 72 H 15.288220 3.623995 -20.962344 0
M  V30 73 H 12.481321 4.493250 -16.384946 0
M  V30 74 H 13.569283 3.135971 -16.092456 0
M  V30 75 H 13.774072 4.148027 -17.529087 0
M  V30 76 H 17.276958 2.096053 -19.516150 0
M  V30 77 H 19.547618 3.578965 -22.124626 0
M  V30 78 H 24.645913 10.476509 -20.044319 0
M  V30 79 H 24.110696 7.963174 -21.289490 0
M  V30 END ATOM
M  V30 BEGIN BOND
M  V30 1 1 2 6 CFG=3
M  V30 2 1 9 3
M  V30 3 1 10 5
M  V30 4 1 13 2
M  V30 5 1 13 4
M  V30 6 1 13 11
M  V30 7 1 14 11
M  V30 8 1 15 1 CFG=3
M  V30 9 1 16 5
M  V30 10 1 16 7
M  V30 11 1 17 5
M  V30 12 1 17 16
M  V30 13 1 18 3
M  V30 14 1 18 7
M  V30 15 1 18 12
M  V30 16 1 20 15
M  V30 17 1 21 4
M  V30 18 1 13 21 CFG=1
M  V30 19 1 22 10
M  V30 20 1 23 2
M  V30 21 1 23 11
M  V30 22 1 24 2
M  V30 23 1 25 4
M  V30 24 1 25 19
M  V30 25 1 26 8
M  V30 26 1 27 7
M  V30 27 1 27 22
M  V30 28 1 28 26
M  V30 29 1 29 28
M  V30 30 2 30 20
M  V30 31 1 31 12
M  V30 32 1 32 8
M  V30 33 1 32 15
M  V30 34 1 33 15
M  V30 35 1 33 20
M  V30 36 1 34 8
M  V30 37 1 34 10
M  V30 38 1 34 29
M  V30 39 1 35 9
M  V30 40 1 35 24
M  V30 41 1 36 19
M  V30 42 1 37 3
M  V30 43 1 37 24
M  V30 44 1 37 31
M  V30 45 1 3 38 CFG=1
M  V30 46 1 4 39 CFG=3
M  V30 47 1 5 40 CFG=1
M  V30 48 1 41 6
M  V30 49 1 42 6
M  V30 50 1 43 6
M  V30 51 1 7 44 CFG=1
M  V30 52 1 8 45 CFG=1
M  V30 53 1 46 9
M  V30 54 1 47 9
M  V30 55 1 10 48 CFG=3
M  V30 56 1 11 49 CFG=1
M  V30 57 1 50 12
M  V30 58 1 51 12
M  V30 59 1 52 14
M  V30 60 1 16 53 CFG=1
M  V30 61 1 54 22
M  V30 62 1 55 22
M  V30 63 1 56 23
M  V30 64 1 57 23
M  V30 65 1 58 25
M  V30 66 1 59 25
M  V30 67 1 60 26
M  V30 68 1 61 27
M  V30 69 1 62 27
M  V30 70 1 63 28
M  V30 71 1 64 28
M  V30 72 1 65 29
M  V30 73 1 66 29
M  V30 74 1 67 31
M  V30 75 1 68 31
M  V30 76 1 69 32
M  V30 77 1 70 32
M  V30 78 1 71 35
M  V30 79 1 72 35
M  V30 80 1 73 36
M  V30 81 1 74 36
M  V30 82 1 75 36
M  V30 83 1 37 76 CFG=1
M  V30 84 1 18 77 CFG=3
M  V30 85 1 78 26
M  V30 86 1 34 79 CFG=3
M  V30 END BOND
M  V30 END CTAB
M  END
>  <i_epik_Tot_Q>  (1) 
3

>  <i_epik_Tot_abs_Q>  (1) 
3

>  <i_i_glide_confnum>  (1) 
331

>  <i_i_glide_lignum>  (1) 
80

>  <i_i_glide_posenum>  (1) 
174

>  <i_i_glide_rotatable_bonds>  (1) 
8

>  <i_lp_mmshare_version>  (1) 
72125

>  <i_m_source_file_index>  (1) 
29

>  <i_f3d_flags>  (1) 
0

>  <num_sample>  (1) 
50

>  <b_lp_Chiralities_Consistent>  (1) 
1

>  <r_epik_Charging_Adjusted_Penalty>  (1) 
2.5241965566360229

>  <r_epik_Ionization_Penalty>  (1) 
2.0480993089750741

>  <r_epik_Ionization_Penalty_Charging>  (1) 
2.0477503768466887

>  <r_epik_Ionization_Penalty_Neutral>  (1) 
0.00034893212838530931

>  <r_epik_State_Penalty>  (1) 
0.4764461797893344

>  <r_glide_ring_energy>  (1) 
0.8191457475608499

>  <r_i_docking_score>  (1) 
-2.7450457209635917

>  <r_i_glide_ecoul>  (1) 
-7.7653420481591668

>  <r_i_glide_eff_state_penalty>  (1) 
0.4764461797893344

>  <r_i_glide_einternal>  (1) 
3.1788250077678377

>  <r_i_glide_emodel>  (1) 
-32.256385971260357

>  <r_i_glide_emodel_strain>  (1) 
0.11581169291770266

>  <r_i_glide_energy>  (1) 
-29.3586426944237

>  <r_i_glide_erotb>  (1) 
0.44698704239028575

>  <r_i_glide_esite>  (1) 
0

>  <r_i_glide_evdw>  (1) 
-21.593300646264534

>  <r_i_glide_gscore>  (1) 
-3.2214919007529259

>  <r_i_glide_gscore_strain>  (1) 
0

>  <r_i_glide_hbond>  (1) 
-0.3178236802119509

>  <r_i_glide_ligand_efficiency>  (1) 
-0.07419042489090788

>  <r_i_glide_ligand_efficiency_ln>  (1) 
-0.59533606387483695

>  <r_i_glide_ligand_efficiency_sa>  (1) 
-0.24721895500438112

>  <r_i_glide_lipo>  (1) 
-1.0794728733487418

>  <r_i_glide_metal>  (1) 
-0

>  <r_i_glide_rewards>  (1) 
-0.02671605004541695

>  <r_lp_Energy>  (1) 
68.604765999999998

>  <s_epik_Chemistry_Notes>  (1) 
This compound has an ester and may undergo hydrolysis at high or low pH. This compound contains an acetal/aminal-like group ( X-CH(R)-Y where X, Y are N, S, or O) that may be acid/base labile, releasing an aldehyde.

>  <s_epik_cmdline>  (1) 
J2VwaWtfcHl0aG9uJywgJy1waHQnLCAnMS4wJywgJy1waCcsICc3LjQnLCAnLXRuJywgJzgnLCAnLW1hJywgJzUwMCcsICctaW1hZScsICc8aW5maWxlLm1hZT4nLCAnLW9tYWUnLCAnPG91dGZpbGUubWFlPic=

>  <s_epik_input>  (1) 
Tz1DKE8xKUMxKEYpW0NIMl1bQ0BASF0yW05IXVtDSDJdW0NIMl1OMltDQEBIXTNbQ0gyXVtDSDJdW0NASF0oW0NAQEhdKE80KVtDQEhdMzQpTjVbQ0gyXVtDSDJdW0NAQEhdKFtDQEhdNTYpTihbQ0gyXVtDSDJdNilbQ0BAXShbQ0gzXSkoW0NIMl1bQ0BASF03W09IXSlbQ0BAXTc4W0NASF0oTzgpW0NIMl1PW0NIM10=

>  <s_glide_docking_method>  (1) 
confgen

>  <s_i_glide_gridfile>  (1) 
gpcr_drd2_6luq_protein_autoprepared_prepared

>  <s_lp_Force_Field>  (1) 
S-OPLS

>  <s_lp_Variant>  (1) 
DiffSBDD_28-3

>  <s_m_source_file>  (1) 
generated_generic_title2_ligand_DiffSBDD_2026-06-23_prepared.sdf

>  <GenAI_Model>  (1) 
DiffSBDD

>  <Protein>  (1) 
generic_title2

$$$$
DiffSBDD_43
     RDKit          3D

  0  0  0  0  0  0  0  0  0  0999 V3000
M  V30 BEGIN CTAB
M  V30 COUNTS 78 82 0 0 1
M  V30 BEGIN ATOM
M  V30 1 N 7.219655 5.080184 -17.406880 0
M  V30 2 C 6.712517 5.691096 -18.667188 0 CFG=1
M  V30 3 C 10.887558 8.388957 -8.800051 0
M  V30 4 C 6.739390 3.411129 -20.620860 0 CFG=1
M  V30 5 C 8.899825 5.921426 -12.460111 0 CFG=2
M  V30 6 Cl 8.575431 8.790159 -11.185087 0
M  V30 7 C 5.832197 1.185023 -21.669949 0
M  V30 8 C 9.287463 6.475756 -8.619209 0
M  V30 9 N 7.906490 4.078811 -20.090203 0
M  V30 10 C 7.775880 6.395899 -13.429182 0
M  V30 11 C 6.986067 2.043386 -21.160982 0
M  V30 12 O 8.559852 5.590213 -17.182004 0
M  V30 13 C 11.016258 8.201829 -10.328203 0 CFG=1
M  V30 14 C 5.375137 5.785169 -13.485483 0
M  V30 15 C 8.147616 1.323396 -20.558441 0
M  V30 16 C 12.339075 7.589921 -10.687631 0
M  V30 17 C 9.375400 6.289223 -10.150896 0 CFG=1
M  V30 18 O 7.027746 5.989873 -10.785292 0
M  V30 19 C 8.278826 4.090546 -10.783078 0
M  V30 20 C 6.487784 5.388010 -16.174437 0
M  V30 21 C 8.357563 5.584151 -11.021044 0 CFG=1
M  V30 22 C 10.582423 7.072104 -8.063201 0
M  V30 23 C 7.734534 5.515193 -19.832440 0
M  V30 24 C 9.785400 7.510038 -10.971364 0 CFG=1
M  V30 25 C 9.043867 3.431319 -19.694254 0
M  V30 26 N 6.769492 5.325034 -13.673900 0 CFG=1 CHG=1
M  V30 27 O 9.881572 6.930920 -12.276949 0
M  V30 28 C 5.417644 4.985283 -19.118189 0
M  V30 29 C 6.785743 1.789890 -22.654100 0
M  V30 30 O 9.529614 4.805010 -13.050485 0
M  V30 31 N 9.082820 2.078493 -19.919142 0
M  V30 32 C 5.645546 3.497189 -19.523405 0
M  V30 33 O 8.269239 0.101395 -20.653429 0
M  V30 34 C 6.340663 7.167864 -18.440280 0
M  V30 35 C 6.968960 4.582462 -14.948001 0
M  V30 36 O 9.977070 4.019181 -19.149272 0
M  V30 37 H 11.791603 8.840536 -8.389165 0
M  V30 38 H 10.081463 9.100568 -8.602435 0
M  V30 39 H 6.404092 4.013688 -21.466456 0
M  V30 40 H 5.874725 0.103629 -21.543644 0
M  V30 41 H 4.828869 1.595633 -21.627616 0
M  V30 42 H 9.023027 5.546965 -8.109222 0
M  V30 43 H 8.575442 7.222737 -8.341456 0
M  V30 44 H 8.181414 6.723512 -14.378920 0
M  V30 45 H 7.299794 7.274411 -13.002284 0
M  V30 46 H 9.101104 4.937710 -17.615018 0
M  V30 47 H 11.109283 9.189934 -10.725397 0
M  V30 48 H 5.128058 6.593185 -14.173265 0
M  V30 49 H 4.673111 4.966363 -13.648862 0
M  V30 50 H 5.202885 6.160453 -12.477904 0
M  V30 51 H 12.574776 6.790412 -9.991512 0
M  V30 52 H 12.309694 7.190802 -11.703580 0
M  V30 53 H 13.137671 8.333696 -10.628651 0
M  V30 54 H 10.175374 5.582193 -10.218122 0
M  V30 55 H 6.978333 6.739225 -10.158063 0
M  V30 56 H 9.251712 3.601318 -10.770655 0
M  V30 57 H 7.812683 3.990317 -9.803944 0
M  V30 58 H 7.662106 3.590321 -11.532238 0
M  V30 59 H 6.600220 6.450110 -15.955542 0
M  V30 60 H 5.422099 5.221023 -16.300009 0
M  V30 61 H 11.401056 6.366974 -8.155307 0
M  V30 62 H 10.473244 7.261075 -6.993257 0
M  V30 63 H 7.336616 5.975858 -20.739428 0
M  V30 64 H 8.667562 6.045050 -19.643646 0
M  V30 65 H 4.655491 5.189887 -18.368796 0
M  V30 66 H 5.041247 5.497712 -20.010663 0
M  V30 67 H 6.416608 2.609530 -23.268546 0
M  V30 68 H 7.465682 1.112812 -23.165530 0
M  V30 69 H 10.468467 4.903859 -12.957666 0
M  V30 70 H 9.891709 1.590132 -19.574592 0
M  V30 71 H 4.713147 3.076016 -19.893333 0
M  V30 72 H 5.928999 2.898721 -18.654916 0
M  V30 73 H 6.402761 7.746804 -19.361033 0
M  V30 74 H 5.327853 7.290480 -18.056279 0
M  V30 75 H 6.977481 7.589888 -17.676050 0
M  V30 76 H 6.435731 3.632645 -14.900166 0
M  V30 77 H 8.022403 4.311515 -15.036742 0
M  V30 78 H 6.939126 4.661277 -12.928586 0
M  V30 END ATOM
M  V30 BEGIN BOND
M  V30 1 1 2 1 CFG=1
M  V30 2 1 9 4
M  V30 3 1 10 5
M  V30 4 1 11 4
M  V30 5 1 11 7
M  V30 6 1 12 1
M  V30 7 1 13 3
M  V30 8 1 15 11
M  V30 9 1 16 13
M  V30 10 1 17 8
M  V30 11 1 20 1
M  V30 12 1 21 5
M  V30 13 1 21 17
M  V30 14 1 21 18 CFG=3
M  V30 15 1 21 19
M  V30 16 1 22 3
M  V30 17 1 22 8
M  V30 18 1 23 2
M  V30 19 1 23 9
M  V30 20 1 24 6 CFG=3
M  V30 21 1 24 13
M  V30 22 1 24 17
M  V30 23 1 25 9
M  V30 24 1 26 10
M  V30 25 1 26 14
M  V30 26 1 27 5
M  V30 27 1 27 24
M  V30 28 1 28 2
M  V30 29 1 29 7
M  V30 30 1 29 11
M  V30 31 1 5 30 CFG=3
M  V30 32 1 31 15
M  V30 33 1 31 25
M  V30 34 1 32 4
M  V30 35 1 32 28
M  V30 36 2 33 15
M  V30 37 1 34 2
M  V30 38 1 35 20
M  V30 39 1 35 26
M  V30 40 2 36 25
M  V30 41 1 37 3
M  V30 42 1 38 3
M  V30 43 1 4 39 CFG=3
M  V30 44 1 40 7
M  V30 45 1 41 7
M  V30 46 1 42 8
M  V30 47 1 43 8
M  V30 48 1 44 10
M  V30 49 1 45 10
M  V30 50 1 46 12
M  V30 51 1 13 47 CFG=3
M  V30 52 1 48 14
M  V30 53 1 49 14
M  V30 54 1 50 14
M  V30 55 1 51 16
M  V30 56 1 52 16
M  V30 57 1 53 16
M  V30 58 1 17 54 CFG=1
M  V30 59 1 55 18
M  V30 60 1 56 19
M  V30 61 1 57 19
M  V30 62 1 58 19
M  V30 63 1 59 20
M  V30 64 1 60 20
M  V30 65 1 61 22
M  V30 66 1 62 22
M  V30 67 1 63 23
M  V30 68 1 64 23
M  V30 69 1 65 28
M  V30 70 1 66 28
M  V30 71 1 67 29
M  V30 72 1 68 29
M  V30 73 1 69 30
M  V30 74 1 70 31
M  V30 75 1 71 32
M  V30 76 1 72 32
M  V30 77 1 73 34
M  V30 78 1 74 34
M  V30 79 1 75 34
M  V30 80 1 76 35
M  V30 81 1 77 35
M  V30 82 1 26 78 CFG=1
M  V30 END BOND
M  V30 END CTAB
M  END
>  <i_epik_Tot_Q>  (1) 
1

>  <i_epik_Tot_abs_Q>  (1) 
1

>  <i_i_glide_confnum>  (1) 
357

>  <i_i_glide_lignum>  (1) 
117

>  <i_i_glide_posenum>  (1) 
236

>  <i_i_glide_rotatable_bonds>  (1) 
9

>  <i_lp_mmshare_version>  (1) 
72125

>  <i_m_source_file_index>  (1) 
44

>  <i_f3d_flags>  (1) 
0

>  <num_sample>  (1) 
50

>  <b_lp_Chiralities_Consistent>  (1) 
1

>  <r_epik_Charging_Adjusted_Penalty>  (1) 
0.34224393187987273

>  <r_epik_Ionization_Penalty>  (1) 
0.17191807241559104

>  <r_epik_Ionization_Penalty_Charging>  (1) 
0.17112196593993639

>  <r_epik_Ionization_Penalty_Neutral>  (1) 
0.00079610647565464391

>  <r_epik_State_Penalty>  (1) 
0.17112196593993634

>  <r_glide_ring_energy>  (1) 
0

>  <r_i_docking_score>  (1) 
-2.7395368372951783

>  <r_i_glide_ecoul>  (1) 
-10.701703403152454

>  <r_i_glide_eff_state_penalty>  (1) 
0.17112196593993634

>  <r_i_glide_einternal>  (1) 
18.406435219152957

>  <r_i_glide_emodel>  (1) 
5.4643274489302236

>  <r_i_glide_emodel_strain>  (1) 
3.8220747756731015

>  <r_i_glide_energy>  (1) 
-2.9188525697497916

>  <r_i_glide_erotb>  (1) 
0.44011442581216542

>  <r_i_glide_esite>  (1) 
0

>  <r_i_glide_evdw>  (1) 
7.7828508334026623

>  <r_i_glide_gscore>  (1) 
-2.9106588032351146

>  <r_i_glide_gscore_strain>  (1) 
0

>  <r_i_glide_hbond>  (1) 
-0.34155756860020398

>  <r_i_glide_ligand_efficiency>  (1) 
-0.076098245480421614

>  <r_i_glide_ligand_efficiency_ln>  (1) 
-0.59769292416580488

>  <r_i_glide_ligand_efficiency_sa>  (1) 
-0.25127087034487655

>  <r_i_glide_lipo>  (1) 
-0.96864775464363906

>  <r_i_glide_metal>  (1) 
-0

>  <r_i_glide_rewards>  (1) 
-0.82445493700070194

>  <r_lp_Energy>  (1) 
45.907455999999996

>  <r_lp_tautomer_probability>  (1) 
0.99999999996150013

>  <s_epik_Chemistry_Notes>  (1) 
This compound has a N-S or N-O group and may undergo hydrolysis at high or low pH.

>  <s_epik_cmdline>  (1) 
J2VwaWtfcHl0aG9uJywgJy1waHQnLCAnMS4wJywgJy1waCcsICc3LjQnLCAnLXRuJywgJzgnLCAnLW1hJywgJzUwMCcsICctaW1hZScsICc8aW5maWxlLm1hZT4nLCAnLW9tYWUnLCAnPG91dGZpbGUubWFlPic=

>  <s_epik_input>  (1) 
W0NIMl0xW0NIMl1DMTJbQ0BASF0zTihDKD1PKVtOSF1DMj1PKVtDSDJdW0NAQF0oW0NIM10pKFtDSDJdW0NIMl0zKU4oW09IXSlbQ0gyXVtDSDJdTihbQ0gzXSlbQ0gyXVtDQF0oTzQpKFtPSF0pW0NAQF0oW09IXSkoW0NIM10pW0NAQEhdKFtDQF00NUNsKVtDSDJdW0NIMl1bQ0gyXVtDQEhdNVtDSDNd

>  <s_glide_docking_method>  (1) 
confgen

>  <s_i_glide_gridfile>  (1) 
gpcr_drd2_6luq_protein_autoprepared_prepared

>  <s_lp_Force_Field>  (1) 
S-OPLS

>  <s_lp_Variant>  (1) 
DiffSBDD_43-1

>  <s_m_source_file>  (1) 
generated_generic_title2_ligand_DiffSBDD_2026-06-23_prepared.sdf

>  <GenAI_Model>  (1) 
DiffSBDD

>  <Protein>  (1) 
generic_title2

$$$$
DiffSBDD_31
     RDKit          3D

  0  0  0  0  0  0  0  0  0  0999 V3000
M  V30 BEGIN CTAB
M  V30 COUNTS 59 61 0 0 1
M  V30 BEGIN ATOM
M  V30 1 C 22.197183 8.713045 -20.572462 0
M  V30 2 C 17.525992 7.937952 -18.512110 0
M  V30 3 C 16.709339 8.929875 -19.101524 0
M  V30 4 C 12.622893 6.383943 -18.083242 0
M  V30 5 C 19.201482 10.390186 -17.658323 0
M  V30 6 O 11.965359 1.395305 -17.985016 0
M  V30 7 C 19.537552 7.023833 -19.786982 0
M  V30 8 C 12.373819 4.238573 -19.224014 0
M  V30 9 C 10.965856 2.360057 -18.226646 0 CFG=2
M  V30 10 C 19.889006 7.642158 -21.164613 0
M  V30 11 C 19.790915 9.345647 -18.626433 0 CFG=1
M  V30 12 C 20.725851 8.950327 -20.986420 0 CFG=1
M  V30 13 C 11.543921 3.775491 -18.178410 0
M  V30 14 O 19.636744 5.812934 -19.584502 0
M  V30 15 F 9.994564 2.227216 -17.290241 0
M  V30 16 C 13.209103 7.786825 -18.028334 0
M  V30 17 C 19.047592 7.976290 -18.678176 0 CFG=1
M  V30 18 C 12.908847 5.540338 -19.177309 0
M  V30 19 C 20.672828 6.609448 -22.015888 0
M  V30 20 C 15.310959 8.879446 -18.942725 0
M  V30 21 C 20.051203 9.949703 -20.020617 0
M  V30 22 C 16.932907 6.896452 -17.766600 0
M  V30 23 C 11.256649 4.624048 -17.085213 0
M  V30 24 C 14.721016 7.837804 -18.197917 0
M  V30 25 C 11.796168 5.923699 -17.038510 0
M  V30 26 C 15.535617 6.846091 -17.609254 0
M  V30 27 C 18.583792 7.927840 -21.942844 0
M  V30 28 C 10.302375 2.028419 -19.573209 0
M  V30 29 H 22.281969 8.107437 -19.670114 0
M  V30 30 H 22.758516 8.208606 -21.358797 0
M  V30 31 H 22.709722 9.656878 -20.385053 0
M  V30 32 H 17.152310 9.728339 -19.673174 0
M  V30 33 H 18.251213 10.790112 -17.998100 0
M  V30 34 H 19.038943 9.990035 -16.659614 0
M  V30 35 H 19.879899 11.236949 -17.553871 0
M  V30 36 H 12.170620 1.420593 -17.061895 0
M  V30 37 H 12.601200 3.594870 -20.060288 0
M  V30 38 H 20.776255 9.118586 -18.218557 0
M  V30 39 H 20.768855 9.444423 -21.958084 0
M  V30 40 H 12.731995 8.385467 -18.805430 0
M  V30 41 H 12.960073 8.259995 -17.077597 0
M  V30 42 H 19.374804 7.479259 -17.766995 0
M  V30 43 H 13.543557 5.891115 -19.978334 0
M  V30 44 H 21.031207 7.051300 -22.946131 0
M  V30 45 H 21.538929 6.208646 -21.487434 0
M  V30 46 H 20.048288 5.756636 -22.285755 0
M  V30 47 H 14.690032 9.640905 -19.393288 0
M  V30 48 H 20.679319 10.835567 -19.919624 0
M  V30 49 H 19.123261 10.317161 -20.453503 0
M  V30 50 H 17.552231 6.135046 -17.315459 0
M  V30 51 H 10.625747 4.277459 -16.280556 0
M  V30 52 H 11.576581 6.567206 -16.199204 0
M  V30 53 H 15.087872 6.047367 -17.036054 0
M  V30 54 H 18.797295 8.242090 -22.964911 0
M  V30 55 H 17.954688 7.038453 -22.005093 0
M  V30 56 H 17.979999 8.712271 -21.496401 0
M  V30 57 H 11.015079 2.031044 -20.397420 0
M  V30 58 H 9.844992 1.038743 -19.547326 0
M  V30 59 H 9.516509 2.746288 -19.809130 0
M  V30 END ATOM
M  V30 BEGIN BOND
M  V30 1 1 3 2
M  V30 2 1 9 6
M  V30 3 1 10 7
M  V30 4 1 11 5
M  V30 5 1 12 1
M  V30 6 1 12 10
M  V30 7 1 13 8
M  V30 8 1 13 9
M  V30 9 2 14 7
M  V30 10 1 9 15 CFG=1
M  V30 11 1 16 4
M  V30 12 1 17 2
M  V30 13 1 17 7
M  V30 14 1 17 11
M  V30 15 1 18 4
M  V30 16 2 18 8
M  V30 17 1 19 10
M  V30 18 2 20 3
M  V30 19 1 21 11
M  V30 20 1 21 12
M  V30 21 2 22 2
M  V30 22 2 23 13
M  V30 23 1 24 16
M  V30 24 1 24 20
M  V30 25 2 25 4
M  V30 26 1 25 23
M  V30 27 1 26 22
M  V30 28 2 26 24
M  V30 29 1 27 10
M  V30 30 1 28 9
M  V30 31 1 29 1
M  V30 32 1 30 1
M  V30 33 1 31 1
M  V30 34 1 32 3
M  V30 35 1 33 5
M  V30 36 1 34 5
M  V30 37 1 35 5
M  V30 38 1 36 6
M  V30 39 1 37 8
M  V30 40 1 11 38 CFG=1
M  V30 41 1 12 39 CFG=3
M  V30 42 1 40 16
M  V30 43 1 41 16
M  V30 44 1 17 42 CFG=1
M  V30 45 1 43 18
M  V30 46 1 44 19
M  V30 47 1 45 19
M  V30 48 1 46 19
M  V30 49 1 47 20
M  V30 50 1 48 21
M  V30 51 1 49 21
M  V30 52 1 50 22
M  V30 53 1 51 23
M  V30 54 1 52 25
M  V30 55 1 53 26
M  V30 56 1 54 27
M  V30 57 1 55 27
M  V30 58 1 56 27
M  V30 59 1 57 28
M  V30 60 1 58 28
M  V30 61 1 59 28
M  V30 END BOND
M  V30 END CTAB
M  END
>  <i_epik_Tot_Q>  (1) 
0

>  <i_epik_Tot_abs_Q>  (1) 
0

>  <i_i_glide_confnum>  (1) 
98

>  <i_i_glide_lignum>  (1) 
93

>  <i_i_glide_posenum>  (1) 
215

>  <i_i_glide_rotatable_bonds>  (1) 
5

>  <i_lp_mmshare_version>  (1) 
72125

>  <i_m_source_file_index>  (1) 
32

>  <i_f3d_flags>  (1) 
0

>  <num_sample>  (1) 
50

>  <b_lp_Chiralities_Consistent>  (1) 
1

>  <r_epik_Charging_Adjusted_Penalty>  (1) 
0

>  <r_epik_Ionization_Penalty>  (1) 
1.3037473646551527e-05

>  <r_epik_Ionization_Penalty_Charging>  (1) 
0

>  <r_epik_Ionization_Penalty_Neutral>  (1) 
1.3037473646551527e-05

>  <r_epik_State_Penalty>  (1) 
-0

>  <r_glide_ring_energy>  (1) 
1.3203360407337346

>  <r_i_docking_score>  (1) 
-2.7219035557240008

>  <r_i_glide_ecoul>  (1) 
-1.9989421199238409

>  <r_i_glide_eff_state_penalty>  (1) 
-0

>  <r_i_glide_einternal>  (1) 
3.4595619243391802

>  <r_i_glide_emodel>  (1) 
-23.236400870616343

>  <r_i_glide_emodel_strain>  (1) 
0.13303754204986262

>  <r_i_glide_energy>  (1) 
-22.423053501354879

>  <r_i_glide_erotb>  (1) 
0.5309461335497756

>  <r_i_glide_esite>  (1) 
0

>  <r_i_glide_evdw>  (1) 
-20.42411138143104

>  <r_i_glide_gscore>  (1) 
-2.7219035557240008

>  <r_i_glide_gscore_strain>  (1) 
0

>  <r_i_glide_hbond>  (1) 
0

>  <r_i_glide_ligand_efficiency>  (1) 
-0.097210841275857177

>  <r_i_glide_ligand_efficiency_ln>  (1) 
-0.62829525922217389

>  <r_i_glide_ligand_efficiency_sa>  (1) 
-0.29518936856502337

>  <r_i_glide_lipo>  (1) 
-0.93731726363284407

>  <r_i_glide_metal>  (1) 
-0

>  <r_i_glide_rewards>  (1) 
-0.99448553858080424

>  <r_lp_Energy>  (1) 
34.726877999999999

>  <r_lp_tautomer_probability>  (1) 
1

>  <s_epik_cmdline>  (1) 
J2VwaWtfcHl0aG9uJywgJy1waHQnLCAnMS4wJywgJy1waCcsICc3LjQnLCAnLXRuJywgJzgnLCAnLW1hJywgJzUwMCcsICctaW1hZScsICc8aW5maWxlLm1hZT4nLCAnLW9tYWUnLCAnPG91dGZpbGUubWFlPic=

>  <s_epik_input>  (1) 
W0NIM11bQ0BASF0xW0NIMl1bQ0BASF0oW0NIM10pW0NASF0oQyg9TylDMShbQ0gzXSlbQ0gzXSljMltjSF1bY0hdYyhbY0hdW2NIXTIpW0NIMl1jM1tjSF1bY0hdYyhbQ0BdKEYpKFtPSF0pW0NIM10pW2NIXVtjSF0z

>  <s_glide_docking_method>  (1) 
confgen

>  <s_i_glide_gridfile>  (1) 
gpcr_drd2_6luq_protein_autoprepared_prepared

>  <s_lp_Force_Field>  (1) 
S-OPLS

>  <s_lp_Variant>  (1) 
DiffSBDD_31-1

>  <s_m_source_file>  (1) 
generated_generic_title2_ligand_DiffSBDD_2026-06-23_prepared.sdf

>  <GenAI_Model>  (1) 
DiffSBDD

>  <Protein>  (1) 
generic_title2

$$$$
DiffSBDD_25
     RDKit          3D

  0  0  0  0  0  0  0  0  0  0999 V3000
M  V30 BEGIN CTAB
M  V30 COUNTS 43 45 0 0 1
M  V30 BEGIN ATOM
M  V30 1 C 11.128096 5.760164 -18.392816 0 CFG=2
M  V30 2 C 8.981930 4.791809 -15.364986 0
M  V30 3 C 7.694821 4.787940 -15.929044 0
M  V30 4 C 9.940616 5.420880 -17.530889 0
M  V30 5 N 15.398720 10.390222 -20.403663 0 CHG=1
M  V30 6 N 13.262625 7.075019 -18.675092 0
M  V30 7 C 8.641174 5.411654 -18.088030 0
M  V30 8 C 12.239644 4.759285 -18.548095 0
M  V30 9 C 14.975424 10.208154 -17.984834 0
M  V30 10 C 14.801111 9.541761 -19.353584 0 CFG=2
M  V30 11 C 14.710151 7.073603 -18.443306 0 CFG=1
M  V30 12 C 12.525206 6.096009 -17.890504 0 CFG=2
M  V30 13 C 7.524199 5.097272 -17.289501 0
M  V30 14 C 15.654079 5.922058 -20.396502 0
M  V30 15 C 15.492672 7.416463 -20.709984 0
M  V30 16 C 15.383084 5.765321 -18.893182 0
M  V30 17 C 10.102217 5.107320 -16.160419 0
M  V30 18 C 15.409509 8.118631 -19.345827 0 CFG=1
M  V30 19 H 10.799935 6.273128 -19.295430 0
M  V30 20 H 9.113891 4.552908 -14.319430 0
M  V30 21 H 6.837109 4.546800 -15.317578 0
M  V30 22 H 16.361244 10.596660 -20.184122 0
M  V30 23 H 15.353401 9.902137 -21.286420 0
M  V30 24 H 12.895489 7.994018 -18.465554 0
M  V30 25 H 8.502853 5.648038 -19.132904 0
M  V30 26 H 12.239016 3.884210 -17.900397 0
M  V30 27 H 12.620040 4.593970 -19.554343 0
M  V30 28 H 14.483424 9.630727 -17.202118 0
M  V30 29 H 16.022984 10.320352 -17.704646 0
M  V30 30 H 14.509273 11.190216 -17.975339 0
M  V30 31 H 13.738343 9.486258 -19.587715 0
M  V30 32 H 14.897600 7.267876 -17.386096 0
M  V30 33 H 12.669129 6.081878 -16.812433 0
M  V30 34 H 6.535030 5.093400 -17.723415 0
M  V30 35 H 16.652930 5.563651 -20.648102 0
M  V30 36 H 14.942313 5.337558 -20.980597 0
M  V30 37 H 16.312855 7.792060 -21.322549 0
M  V30 38 H 14.566820 7.569342 -21.267077 0
M  V30 39 H 16.340162 5.679528 -18.376947 0
M  V30 40 H 14.837161 4.855714 -18.651804 0
M  V30 41 H 11.086329 5.107035 -15.717881 0
M  V30 42 H 16.436636 8.207335 -18.985256 0
M  V30 43 H 14.869937 11.255209 -20.496103 0
M  V30 END ATOM
M  V30 BEGIN BOND
M  V30 1 2 3 2
M  V30 2 1 4 1
M  V30 3 1 7 4
M  V30 4 1 8 1
M  V30 5 1 10 5
M  V30 6 1 10 9
M  V30 7 1 11 6
M  V30 8 1 12 1
M  V30 9 1 12 6
M  V30 10 1 12 8
M  V30 11 1 13 3
M  V30 12 2 13 7
M  V30 13 1 15 14
M  V30 14 1 16 11
M  V30 15 1 16 14
M  V30 16 1 17 2
M  V30 17 2 17 4
M  V30 18 1 18 10
M  V30 19 1 18 11
M  V30 20 1 18 15
M  V30 21 1 1 19 CFG=3
M  V30 22 1 20 2
M  V30 23 1 21 3
M  V30 24 1 22 5
M  V30 25 1 23 5
M  V30 26 1 24 6
M  V30 27 1 25 7
M  V30 28 1 26 8
M  V30 29 1 27 8
M  V30 30 1 28 9
M  V30 31 1 29 9
M  V30 32 1 30 9
M  V30 33 1 10 31 CFG=3
M  V30 34 1 11 32 CFG=1
M  V30 35 1 12 33 CFG=1
M  V30 36 1 34 13
M  V30 37 1 35 14
M  V30 38 1 36 14
M  V30 39 1 37 15
M  V30 40 1 38 15
M  V30 41 1 39 16
M  V30 42 1 40 16
M  V30 43 1 41 17
M  V30 44 1 18 42 CFG=1
M  V30 45 1 43 5
M  V30 END BOND
M  V30 END CTAB
M  END
>  <i_epik_Tot_Q>  (1) 
1

>  <i_epik_Tot_abs_Q>  (1) 
1

>  <i_i_glide_confnum>  (1) 
38

>  <i_i_glide_lignum>  (1) 
75

>  <i_i_glide_posenum>  (1) 
397

>  <i_i_glide_rotatable_bonds>  (1) 
4

>  <i_lp_mmshare_version>  (1) 
72125

>  <i_m_source_file_index>  (1) 
26

>  <i_f3d_flags>  (1) 
0

>  <num_sample>  (1) 
50

>  <b_lp_Chiralities_Consistent>  (1) 
1

>  <r_epik_Charging_Adjusted_Penalty>  (1) 
0.70247939945427629

>  <r_epik_Ionization_Penalty>  (1) 
0.7024793994542764

>  <r_epik_Ionization_Penalty_Charging>  (1) 
0.00054833754919439773

>  <r_epik_Ionization_Penalty_Neutral>  (1) 
0.70193106190508203

>  <r_epik_State_Penalty>  (1) 
0.70193106190508192

>  <r_glide_ring_energy>  (1) 
0.097090295733864004

>  <r_i_docking_score>  (1) 
-2.720258306611854

>  <r_i_glide_ecoul>  (1) 
-6.1501667597931045

>  <r_i_glide_eff_state_penalty>  (1) 
0.70193106190508192

>  <r_i_glide_einternal>  (1) 
1.9478281853259016

>  <r_i_glide_emodel>  (1) 
-26.898186137246686

>  <r_i_glide_emodel_strain>  (1) 
0.21006451978399809

>  <r_i_glide_energy>  (1) 
-22.237919143088327

>  <r_i_glide_erotb>  (1) 
0.86719654817177239

>  <r_i_glide_esite>  (1) 
-0.02289855171298762

>  <r_i_glide_evdw>  (1) 
-16.087752383295221

>  <r_i_glide_gscore>  (1) 
-3.422189368516936

>  <r_i_glide_gscore_strain>  (1) 
0

>  <r_i_glide_hbond>  (1) 
0

>  <r_i_glide_ligand_efficiency>  (1) 
-0.15112546147843633

>  <r_i_glide_ligand_efficiency_ln>  (1) 
-0.6992283709366931

>  <r_i_glide_ligand_efficiency_sa>  (1) 
-0.39606075261546014

>  <r_i_glide_lipo>  (1) 
-0.80360461820562967

>  <r_i_glide_metal>  (1) 
-0

>  <r_i_glide_rewards>  (1) 
-1.7359701136363639

>  <r_lp_Energy>  (1) 
26.397838999999998

>  <s_epik_cmdline>  (1) 
J2VwaWtfcHl0aG9uJywgJy1waHQnLCAnMS4wJywgJy1waCcsICc3LjQnLCAnLXRuJywgJzgnLCAnLW1hJywgJzUwMCcsICctaW1hZScsICc8aW5maWxlLm1hZT4nLCAnLW9tYWUnLCAnPG91dGZpbGUubWFlPic=

>  <s_epik_input>  (1) 
W2NIXTFbY0hdW2NIXVtjSF1bY0hdYzFbQ0BIXTJbQ0gyXVtDQEhdMltOSF1bQ0BIXTNbQ0gyXVtDSDJdW0NIMl1bQ0BIXTNbQ0BIXShbTkgyXSlbQ0gzXQ==

>  <s_glide_docking_method>  (1) 
confgen

>  <s_i_glide_gridfile>  (1) 
gpcr_drd2_6luq_protein_autoprepared_prepared

>  <s_lp_Force_Field>  (1) 
S-OPLS

>  <s_lp_Variant>  (1) 
DiffSBDD_25-4

>  <s_m_source_file>  (1) 
generated_generic_title2_ligand_DiffSBDD_2026-06-23_prepared.sdf

>  <GenAI_Model>  (1) 
DiffSBDD

>  <Protein>  (1) 
generic_title2

$$$$
DiffSBDD_8
     RDKit          3D

  0  0  0  0  0  0  0  0  0  0999 V3000
M  V30 BEGIN CTAB
M  V30 COUNTS 70 73 0 0 1
M  V30 BEGIN ATOM
M  V30 1 N 6.575762 4.746526 -15.294480 0
M  V30 2 C 5.551866 7.851716 -17.241012 0
M  V30 3 C 8.515346 5.924391 -12.633693 0 CFG=1
M  V30 4 N 5.801000 6.761824 -19.330639 0
M  V30 5 O 6.575504 3.590237 -11.585978 0
M  V30 6 C 8.823633 5.610223 -8.475852 0
M  V30 7 F 6.381274 4.677466 -18.652746 0
M  V30 8 C 9.635298 6.737166 -7.824649 0
M  V30 9 N 8.575517 5.990224 -9.873409 0 CHG=1
M  V30 10 C 7.390577 5.427374 -10.552443 0 CFG=1
M  V30 11 C 5.719999 5.768397 -18.272109 0 CFG=1
M  V30 12 C 12.198504 7.682786 -2.341394 0
M  V30 13 C 7.178768 5.780538 -12.012435 0 CFG=2
M  V30 14 O 8.876893 3.590511 -11.185075 0
M  V30 15 O 4.857058 6.344929 -20.332510 0
M  V30 16 C 10.202173 6.380026 -6.448809 0
M  V30 17 C 5.109945 4.424554 -13.121757 0
M  V30 18 C 7.499730 4.030743 -16.181389 0
M  V30 19 C 6.270748 4.051641 -14.036901 0 CFG=2
M  V30 20 C 6.305159 6.516591 -17.063839 0 CFG=2
M  V30 21 C 6.040648 5.961889 -15.638432 0
M  V30 22 C 8.575316 6.403683 -13.968313 0
M  V30 23 C 7.564861 3.990225 -10.707662 0 CFG=2
M  V30 24 C 6.509642 4.545189 -12.601066 0 CFG=2
M  V30 25 O 12.575731 8.783245 -1.550056 0
M  V30 26 O 5.375387 6.623917 -14.860223 0
M  V30 27 C 12.014236 8.197881 -3.766035 0
M  V30 28 C 5.477751 6.516664 -21.594171 0
M  V30 29 C 5.254833 7.976957 -18.742762 0
M  V30 30 O 11.375364 7.206901 -4.547794 0
M  V30 31 C 10.932009 7.528985 -5.766659 0
M  V30 32 N 8.908179 7.256252 -12.785010 0 CHG=1
M  V30 33 O 11.081302 8.625483 -6.309376 0
M  V30 34 H 4.571753 7.835013 -16.761759 0
M  V30 35 H 6.090490 8.686538 -16.785035 0
M  V30 36 H 9.421587 5.445387 -12.290611 0
M  V30 37 H 9.365259 4.663682 -8.447874 0
M  V30 38 H 7.877374 5.475347 -7.949262 0
M  V30 39 H 9.002765 7.623844 -7.743969 0
M  V30 40 H 10.470396 7.007479 -8.473518 0
M  V30 41 H 8.320288 6.976671 -9.806842 0
M  V30 42 H 6.473586 5.590368 -9.984981 0
M  V30 43 H 4.682072 5.497946 -18.089808 0
M  V30 44 H 12.959005 6.902667 -2.303115 0
M  V30 45 H 11.275447 7.261428 -1.944536 0
M  V30 46 H 6.558351 6.665328 -12.163761 0
M  V30 47 H 8.936111 2.642143 -11.129225 0
M  V30 48 H 10.927109 5.580460 -6.559258 0
M  V30 49 H 9.415376 6.016438 -5.787086 0
M  V30 50 H 4.497864 3.591688 -12.791813 0
M  V30 51 H 4.575453 5.349266 -13.196040 0
M  V30 52 H 8.111379 4.665526 -16.822317 0
M  V30 53 H 8.216196 3.470783 -15.577910 0
M  V30 54 H 6.975118 3.296624 -16.792972 0
M  V30 55 H 6.394719 2.973424 -14.134272 0
M  V30 56 H 7.367984 6.680185 -17.220990 0
M  V30 57 H 9.393759 5.990103 -14.553290 0
M  V30 58 H 7.902486 7.103791 -14.445924 0
M  V30 59 H 7.346763 3.590286 -9.722048 0
M  V30 60 H 12.626587 8.519018 -0.645042 0
M  V30 61 H 11.397235 9.097713 -3.745902 0
M  V30 62 H 12.973160 8.467715 -4.205507 0
M  V30 63 H 4.808053 6.165731 -22.379272 0
M  V30 64 H 5.700320 7.566646 -21.787959 0
M  V30 65 H 6.403120 5.944011 -21.664703 0
M  V30 66 H 4.173980 8.027950 -18.901858 0
M  V30 67 H 5.702845 8.856428 -19.204616 0
M  V30 68 H 8.217864 7.966659 -12.586637 0
M  V30 69 H 9.406418 5.836066 -10.421960 0
M  V30 70 H 9.894036 7.475388 -12.729324 0
M  V30 END ATOM
M  V30 BEGIN BOND
M  V30 1 1 8 6
M  V30 2 1 9 6
M  V30 3 1 10 9
M  V30 4 1 11 4
M  V30 5 1 11 7
M  V30 6 1 13 3
M  V30 7 1 13 10
M  V30 8 1 15 4
M  V30 9 1 16 8
M  V30 10 1 18 1
M  V30 11 1 19 1
M  V30 12 1 19 17
M  V30 13 1 20 2
M  V30 14 1 20 11
M  V30 15 1 21 1
M  V30 16 1 21 20
M  V30 17 1 22 3
M  V30 18 1 23 5
M  V30 19 1 23 10
M  V30 20 1 23 14
M  V30 21 1 24 5 CFG=1
M  V30 22 1 24 13
M  V30 23 1 24 17
M  V30 24 1 24 19
M  V30 25 1 25 12
M  V30 26 2 26 21
M  V30 27 1 27 12
M  V30 28 1 28 15
M  V30 29 1 29 2
M  V30 30 1 29 4
M  V30 31 1 30 27
M  V30 32 1 31 16
M  V30 33 1 31 30
M  V30 34 1 32 3
M  V30 35 1 32 22
M  V30 36 2 33 31
M  V30 37 1 34 2
M  V30 38 1 35 2
M  V30 39 1 3 36 CFG=3
M  V30 40 1 37 6
M  V30 41 1 38 6
M  V30 42 1 39 8
M  V30 43 1 40 8
M  V30 44 1 41 9
M  V30 45 1 10 42 CFG=1
M  V30 46 1 11 43 CFG=1
M  V30 47 1 44 12
M  V30 48 1 45 12
M  V30 49 1 13 46 CFG=1
M  V30 50 1 47 14
M  V30 51 1 48 16
M  V30 52 1 49 16
M  V30 53 1 50 17
M  V30 54 1 51 17
M  V30 55 1 52 18
M  V30 56 1 53 18
M  V30 57 1 54 18
M  V30 58 1 19 55 CFG=3
M  V30 59 1 20 56 CFG=3
M  V30 60 1 57 22
M  V30 61 1 58 22
M  V30 62 1 23 59 CFG=1
M  V30 63 1 60 25
M  V30 64 1 61 27
M  V30 65 1 62 27
M  V30 66 1 63 28
M  V30 67 1 64 28
M  V30 68 1 65 28
M  V30 69 1 66 29
M  V30 70 1 67 29
M  V30 71 1 68 32
M  V30 72 1 69 9
M  V30 73 1 70 32
M  V30 END BOND
M  V30 END CTAB
M  END
>  <i_epik_Tot_Q>  (1) 
2

>  <i_epik_Tot_abs_Q>  (1) 
2

>  <i_i_glide_confnum>  (1) 
708

>  <i_i_glide_lignum>  (1) 
43

>  <i_i_glide_posenum>  (1) 
315

>  <i_i_glide_rotatable_bonds>  (1) 
15

>  <i_lp_mmshare_version>  (1) 
72125

>  <i_m_source_file_index>  (1) 
9

>  <i_f3d_flags>  (1) 
0

>  <num_sample>  (1) 
50

>  <b_lp_Chiralities_Consistent>  (1) 
1

>  <r_epik_Charging_Adjusted_Penalty>  (1) 
2.8797985042560583

>  <r_epik_Ionization_Penalty>  (1) 
1.6442763990741283

>  <r_epik_Ionization_Penalty_Charging>  (1) 
1.6439676131770962

>  <r_epik_Ionization_Penalty_Neutral>  (1) 
0.00030878589703216643

>  <r_epik_State_Penalty>  (1) 
1.2358308910789622

>  <r_glide_ring_energy>  (1) 
0

>  <r_i_docking_score>  (1) 
-2.7052683921404603

>  <r_i_glide_ecoul>  (1) 
-9.4830505623881365

>  <r_i_glide_eff_state_penalty>  (1) 
1.2358308910789622

>  <r_i_glide_einternal>  (1) 
13.823995222225172

>  <r_i_glide_emodel>  (1) 
-14.749306448610678

>  <r_i_glide_emodel_strain>  (1) 
8.6377295065351802

>  <r_i_glide_energy>  (1) 
-17.200747247879399

>  <r_i_glide_erotb>  (1) 
1.0700444368793263

>  <r_i_glide_esite>  (1) 
-0.11816059950482929

>  <r_i_glide_evdw>  (1) 
-7.7176966854912603

>  <r_i_glide_gscore>  (1) 
-3.9410992832194225

>  <r_i_glide_gscore_strain>  (1) 
1.1594323766337951

>  <r_i_glide_hbond>  (1) 
-0.36771517126191361

>  <r_i_glide_ligand_efficiency>  (1) 
-0.081977830064862436

>  <r_i_glide_ligand_efficiency_ln>  (1) 
-0.60163768328194933

>  <r_i_glide_ligand_efficiency_sa>  (1) 
-0.26294670423161026

>  <r_i_glide_lipo>  (1) 
-2.1224190709069242

>  <r_i_glide_metal>  (1) 
-0

>  <r_i_glide_rewards>  (1) 
-1.7539388364260931

>  <r_lp_Energy>  (1) 
51.457698000000001

>  <s_epik_Chemistry_Notes>  (1) 
This compound has an ester and may undergo hydrolysis at high or low pH. This compound contains an acetal/aminal-like group ( X-CH(R)-Y where X, Y are N, S, or O) that may be acid/base labile, releasing an aldehyde. This compound has a N-S or N-O group and may undergo hydrolysis at high or low pH.

>  <s_epik_cmdline>  (1) 
J2VwaWtfcHl0aG9uJywgJy1waHQnLCAnMS4wJywgJy1waCcsICc3LjQnLCAnLXRuJywgJzgnLCAnLW1hJywgJzUwMCcsICctaW1hZScsICc8aW5maWxlLm1hZT4nLCAnLW9tYWUnLCAnPG91dGZpbGUubWFlPic=

>  <s_epik_input>  (1) 
W0NIM11PTjFbQ0BIXShGKVtDQEBIXShbQ0gyXVtDSDJdMSlDKD1PKU4oW0NIM10pW0NASF0yW0NIMl1DMjNPW0NAQEhdKFtPSF0pW0NASF0oW0NASF0zW0NASF00W0NIMl1bTkhdNClbTkhdW0NIMl1bQ0gyXVtDSDJdQyg9TylPW0NIMl1bQ0gyXVtPSF0=

>  <s_glide_docking_method>  (1) 
confgen

>  <s_i_glide_gridfile>  (1) 
gpcr_drd2_6luq_protein_autoprepared_prepared

>  <s_lp_Force_Field>  (1) 
S-OPLS

>  <s_lp_Variant>  (1) 
DiffSBDD_8-12

>  <s_m_source_file>  (1) 
generated_generic_title2_ligand_DiffSBDD_2026-06-23_prepared.sdf

>  <GenAI_Model>  (1) 
DiffSBDD

>  <Protein>  (1) 
generic_title2

$$$$
DiffSBDD_37
     RDKit          3D

  0  0  0  0  0  0  0  0  0  0999 V3000
M  V30 BEGIN CTAB
M  V30 COUNTS 80 85 0 0 1
M  V30 BEGIN ATOM
M  V30 1 C 11.722638 5.813229 -20.325080 0 CFG=1
M  V30 2 O 19.394133 9.387167 -20.202336 0
M  V30 3 F 6.575410 7.878940 -15.693464 0
M  V30 4 C 15.464424 6.441741 -20.615790 0
M  V30 5 C 11.912382 4.379554 -17.541091 0
M  V30 6 O 12.185193 7.189701 -18.427932 0 CHG=-1
M  V30 7 C 11.642549 7.144478 -19.552655 0
M  V30 8 C 7.703887 5.136083 -15.114684 0
M  V30 9 C 13.653462 4.620303 -21.482205 0
M  V30 10 O 11.419388 3.837977 -18.763120 0
M  V30 11 C 8.691177 5.919340 -20.546523 0
M  V30 12 C 15.671635 9.047067 -20.704295 0
M  V30 13 F 5.882398 6.375226 -11.557444 0
M  V30 14 C 17.851117 7.955927 -19.018976 0
M  V30 15 C 14.140478 6.037221 -21.262310 0 CFG=2
M  V30 16 C 8.223133 2.910430 -16.159794 0
M  V30 17 O 7.350880 5.484245 -20.646606 0
M  V30 18 C 8.614454 2.660777 -18.681809 0
M  V30 19 C 7.321468 4.161639 -20.172509 0
M  V30 20 C 16.377779 7.786347 -18.618540 0
M  V30 21 C 18.042459 9.251410 -19.819917 0 CFG=2
M  V30 22 C 6.485860 6.104995 -12.720272 0
M  V30 23 C 7.997503 5.974643 -12.739948 0
M  V30 24 O 13.465447 6.954063 -22.106187 0
M  V30 25 C 8.218796 4.433144 -16.360660 0 CFG=1
M  V30 26 C 6.268037 5.619697 -15.174213 0 CFG=1
M  V30 27 O 11.047491 8.086330 -20.112728 0
M  V30 28 N 13.155657 5.412902 -20.363305 0 CFG=1 CHG=1
M  V30 29 C 10.792384 4.677362 -19.748014 0 CFG=1
M  V30 30 C 9.349601 5.168459 -19.354165 0 CFG=2
M  V30 31 C 9.069699 2.260095 -17.260146 0
M  V30 32 C 5.722219 5.944931 -13.806597 0
M  V30 33 C 15.426880 7.787229 -19.837139 0 CFG=2
M  V30 34 C 6.059023 6.751617 -16.183873 0 CFG=2
M  V30 35 C 8.473768 5.303133 -14.019038 0
M  V30 36 S 6.767882 6.389969 -17.824406 0
M  V30 37 C 17.151661 9.255242 -21.072157 0
M  V30 38 C 7.436117 4.689549 -17.673648 0 CFG=1
M  V30 39 C 8.228976 4.159855 -18.924713 0 CFG=2
M  V30 40 H 11.373269 6.002947 -21.340840 0
M  V30 41 H 19.918258 9.525092 -19.428178 0
M  V30 42 H 15.761625 5.632481 -19.947065 0
M  V30 43 H 16.232530 6.476615 -21.388563 0
M  V30 44 H 12.890432 4.838802 -17.673234 0
M  V30 45 H 11.235773 5.104481 -17.096370 0
M  V30 46 H 12.058346 3.578186 -16.817079 0
M  V30 47 H 12.875771 4.412860 -22.216957 0
M  V30 48 H 14.219024 3.776359 -21.094309 0
M  V30 49 H 8.695442 7.000639 -20.415193 0
M  V30 50 H 9.177011 5.691281 -21.495762 0
M  V30 51 H 15.064700 9.030026 -21.608821 0
M  V30 52 H 15.332923 9.920877 -20.144050 0
M  V30 53 H 18.171532 7.101719 -19.614437 0
M  V30 54 H 18.476964 7.963473 -18.126002 0
M  V30 55 H 7.206975 2.517104 -16.187200 0
M  V30 56 H 8.575400 2.634731 -15.169645 0
M  V30 57 H 7.722011 2.060771 -18.874434 0
M  V30 58 H 9.342806 2.314270 -19.414982 0
M  V30 59 H 6.296485 3.844088 -19.972494 0
M  V30 60 H 7.722654 3.509906 -20.952365 0
M  V30 61 H 16.097403 8.604517 -17.953006 0
M  V30 62 H 16.246285 6.875980 -18.033743 0
M  V30 63 H 17.782107 10.103563 -19.192231 0
M  V30 64 H 8.304962 5.377037 -11.882336 0
M  V30 65 H 8.466773 6.952849 -12.644225 0
M  V30 66 H 13.602431 7.833555 -21.781799 0
M  V30 67 H 9.239052 4.783420 -16.476302 0
M  V30 68 H 5.685585 4.788962 -15.505265 0
M  V30 69 H 10.643873 3.984848 -20.578902 0
M  V30 70 H 9.474813 5.878013 -18.536220 0
M  V30 71 H 9.013267 1.175753 -17.160451 0
M  V30 72 H 10.115256 2.505979 -17.108468 0
M  V30 73 H 4.648000 6.036531 -13.724464 0
M  V30 74 H 14.426273 7.891049 -19.426460 0
M  V30 75 H 4.995341 6.952509 -16.316129 0
M  V30 76 H 9.492340 4.939435 -14.022955 0
M  V30 77 H 17.475266 8.477194 -21.762195 0
M  V30 78 H 17.264612 10.200092 -21.603466 0
M  V30 79 H 6.545741 4.078921 -17.623057 0
M  V30 80 H 13.548531 5.169913 -19.465770 0
M  V30 END ATOM
M  V30 BEGIN BOND
M  V30 1 1 7 1
M  V30 2 1 7 6
M  V30 3 1 10 5
M  V30 4 1 15 4
M  V30 5 1 15 9
M  V30 6 1 17 11
M  V30 7 1 19 17
M  V30 8 1 20 14
M  V30 9 1 21 2
M  V30 10 1 21 14
M  V30 11 1 22 13
M  V30 12 1 23 22
M  V30 13 1 15 24 CFG=3
M  V30 14 1 25 8
M  V30 15 1 25 16
M  V30 16 1 26 8
M  V30 17 2 27 7
M  V30 18 1 28 1
M  V30 19 1 28 9
M  V30 20 1 28 15
M  V30 21 1 29 1
M  V30 22 1 29 10
M  V30 23 1 30 11
M  V30 24 1 30 29
M  V30 25 1 31 16
M  V30 26 1 31 18
M  V30 27 2 32 22
M  V30 28 1 32 26
M  V30 29 1 33 4
M  V30 30 1 33 12
M  V30 31 1 33 20
M  V30 32 1 34 3
M  V30 33 1 34 26
M  V30 34 2 35 8
M  V30 35 1 35 23
M  V30 36 1 36 34
M  V30 37 1 37 12
M  V30 38 1 37 21
M  V30 39 1 38 25
M  V30 40 1 38 36
M  V30 41 1 39 18 CFG=1
M  V30 42 1 39 19
M  V30 43 1 39 30
M  V30 44 1 39 38
M  V30 45 1 1 40 CFG=3
M  V30 46 1 41 2
M  V30 47 1 42 4
M  V30 48 1 43 4
M  V30 49 1 44 5
M  V30 50 1 45 5
M  V30 51 1 46 5
M  V30 52 1 47 9
M  V30 53 1 48 9
M  V30 54 1 49 11
M  V30 55 1 50 11
M  V30 56 1 51 12
M  V30 57 1 52 12
M  V30 58 1 53 14
M  V30 59 1 54 14
M  V30 60 1 55 16
M  V30 61 1 56 16
M  V30 62 1 57 18
M  V30 63 1 58 18
M  V30 64 1 59 19
M  V30 65 1 60 19
M  V30 66 1 61 20
M  V30 67 1 62 20
M  V30 68 1 21 63 CFG=1
M  V30 69 1 64 23
M  V30 70 1 65 23
M  V30 71 1 66 24
M  V30 72 1 25 67 CFG=3
M  V30 73 1 26 68 CFG=3
M  V30 74 1 29 69 CFG=3
M  V30 75 1 30 70 CFG=1
M  V30 76 1 71 31
M  V30 77 1 72 31
M  V30 78 1 73 32
M  V30 79 1 33 74 CFG=1
M  V30 80 1 34 75 CFG=3
M  V30 81 1 76 35
M  V30 82 1 77 37
M  V30 83 1 78 37
M  V30 84 1 38 79 CFG=1
M  V30 85 1 28 80 CFG=1
M  V30 END BOND
M  V30 END CTAB
M  END
>  <i_epik_Tot_Q>  (1) 
0

>  <i_epik_Tot_abs_Q>  (1) 
2

>  <i_i_glide_confnum>  (1) 
280

>  <i_i_glide_lignum>  (1) 
101

>  <i_i_glide_posenum>  (1) 
147

>  <i_i_glide_rotatable_bonds>  (1) 
9

>  <i_lp_mmshare_version>  (1) 
72125

>  <i_m_source_file_index>  (1) 
38

>  <i_f3d_flags>  (1) 
0

>  <num_sample>  (1) 
50

>  <b_lp_Chiralities_Consistent>  (1) 
1

>  <r_epik_Charging_Adjusted_Penalty>  (1) 
0.53807329711462948

>  <r_epik_Ionization_Penalty>  (1) 
0.26903764201212299

>  <r_epik_Ionization_Penalty_Charging>  (1) 
0.26903696022575102

>  <r_epik_Ionization_Penalty_Neutral>  (1) 
6.8178637198181737e-07

>  <r_epik_State_Penalty>  (1) 
0.26903633688887846

>  <r_glide_ring_energy>  (1) 
2.4672132375129547

>  <r_i_docking_score>  (1) 
-2.7023712843414378

>  <r_i_glide_ecoul>  (1) 
0.59708884907450877

>  <r_i_glide_eff_state_penalty>  (1) 
0.26903633688887846

>  <r_i_glide_einternal>  (1) 
15.098486134998883

>  <r_i_glide_emodel>  (1) 
-15.771026464549793

>  <r_i_glide_emodel_strain>  (1) 
0.20566113582680146

>  <r_i_glide_energy>  (1) 
-20.595595017136503

>  <r_i_glide_erotb>  (1) 
0.23153238063810569

>  <r_i_glide_esite>  (1) 
-0.10000000000000001

>  <r_i_glide_evdw>  (1) 
-21.192683866211013

>  <r_i_glide_gscore>  (1) 
-2.9714076212303162

>  <r_i_glide_gscore_strain>  (1) 
0

>  <r_i_glide_hbond>  (1) 
0

>  <r_i_glide_ligand_efficiency>  (1) 
-0.069291571393370194

>  <r_i_glide_ligand_efficiency_ln>  (1) 
-0.5794651147335369

>  <r_i_glide_ligand_efficiency_sa>  (1) 
-0.23498236981363013

>  <r_i_glide_lipo>  (1) 
-1.5680309739969995

>  <r_i_glide_metal>  (1) 
-0

>  <r_i_glide_rewards>  (1) 
-0.56483816192204783

>  <r_lp_Energy>  (1) 
30.214154999999998

>  <s_epik_cmdline>  (1) 
J2VwaWtfcHl0aG9uJywgJy1waHQnLCAnMS4wJywgJy1waCcsICc3LjQnLCAnLXRuJywgJzgnLCAnLW1hJywgJzUwMCcsICctaW1hZScsICc8aW5maWxlLm1hZT4nLCAnLW9tYWUnLCAnPG91dGZpbGUubWFlPic=

>  <s_epik_input>  (1) 
W09IXVtDQEBIXTFbQ0gyXVtDSDJdW0NAQEhdKFtDSDJdW0NIMl0xKVtDSDJdW0NAQF0yKFtPSF0pW0NIMl1OMltDQEhdKEMoPU8pW09IXSlbQ0BASF0oT1tDSDNdKVtDQEhdM1tDSDJdT1tDSDJdW0NAXTM0W0NASF01W0NASF0oW0NIMl1bQ0gyXVtDSDJdNClDPTZbQ0BIXShbQ0BASF0oRilTNSlbQ0hdPUMoRilbQ0gyXVtDSF02

>  <s_glide_docking_method>  (1) 
confgen

>  <s_i_glide_gridfile>  (1) 
gpcr_drd2_6luq_protein_autoprepared_prepared

>  <s_lp_Force_Field>  (1) 
S-OPLS

>  <s_lp_Variant>  (1) 
DiffSBDD_37-2

>  <s_m_source_file>  (1) 
generated_generic_title2_ligand_DiffSBDD_2026-06-23_prepared.sdf

>  <GenAI_Model>  (1) 
DiffSBDD

>  <Protein>  (1) 
generic_title2

$$$$
DiffSBDD_43
     RDKit          3D

  0  0  0  0  0  0  0  0  0  0999 V3000
M  V30 BEGIN CTAB
M  V30 COUNTS 78 82 0 0 1
M  V30 BEGIN ATOM
M  V30 1 N 9.618373 1.613115 -18.006386 0
M  V30 2 C 8.146886 1.745193 -18.141255 0 CFG=1
M  V30 3 C 15.140259 9.262299 -18.534251 0
M  V30 4 C 6.357242 -0.660000 -18.217723 0 CFG=1
M  V30 5 C 14.508156 4.548546 -19.042229 0 CFG=2
M  V30 6 Cl 14.175402 6.796261 -16.785043 0
M  V30 7 C 4.366763 -2.301698 -18.576463 0
M  V30 8 C 16.942653 7.422743 -18.272835 0
M  V30 9 N 7.317226 -0.335995 -19.244298 0
M  V30 10 C 13.806860 3.599498 -18.042559 0
M  V30 11 C 5.836226 -2.049353 -18.265485 0
M  V30 12 O 9.936428 0.228257 -17.717561 0
M  V30 13 C 14.128220 8.225363 -19.092046 0 CFG=1
M  V30 14 C 11.516385 4.146273 -17.320575 0
M  V30 15 C 6.781879 -3.053770 -18.837018 0
M  V30 16 C 14.024161 8.300662 -20.628274 0
M  V30 17 C 15.926879 6.455739 -18.902973 0 CFG=1
M  V30 18 O 16.307452 4.689074 -17.284562 0
M  V30 19 C 17.064909 4.234906 -19.479814 0
M  V30 20 C 10.474344 1.975831 -19.140004 0
M  V30 21 C 15.984560 4.955259 -18.642691 0 CFG=1
M  V30 22 C 16.623588 8.861481 -18.742152 0
M  V30 23 C 7.559785 1.097582 -19.435369 0
M  V30 24 C 14.488136 6.823380 -18.550835 0 CFG=1
M  V30 25 C 8.065941 -1.266863 -19.906947 0
M  V30 26 N 12.358480 3.491238 -18.350986 0 CFG=2 CHG=1
M  V30 27 O 13.760100 5.738870 -19.102937 0
M  V30 28 C 7.437466 1.201697 -16.853637 0
M  V30 29 C 4.881873 -2.529011 -17.185044 0
M  V30 30 O 14.479592 3.936358 -20.313212 0
M  V30 31 N 7.782213 -2.580880 -19.630644 0
M  V30 32 C 7.032226 -0.292635 -16.879615 0
M  V30 33 O 6.652253 -4.258037 -18.623559 0
M  V30 34 C 7.862877 3.264872 -18.198337 0
M  V30 35 C 11.950843 2.104067 -18.694237 0
M  V30 36 O 8.956714 -0.952274 -20.694062 0
M  V30 37 H 14.954408 10.241109 -18.979292 0
M  V30 38 H 14.961428 9.396505 -17.467797 0
M  V30 39 H 5.500334 0.003119 -18.348957 0
M  V30 40 H 3.726777 -1.438024 -18.745059 0
M  V30 41 H 4.099787 -3.185297 -19.154000 0
M  V30 42 H 17.956676 7.150105 -18.566542 0
M  V30 43 H 16.913007 7.367950 -17.185367 0
M  V30 44 H 13.933680 3.967634 -17.024212 0
M  V30 45 H 14.308478 2.630512 -18.076134 0
M  V30 46 H 9.624391 -0.210360 -18.495123 0
M  V30 47 H 13.137562 8.476504 -18.713156 0
M  V30 48 H 11.531076 3.590176 -16.385026 0
M  V30 49 H 11.866481 5.157576 -17.116335 0
M  V30 50 H 10.485383 4.242012 -17.651553 0
M  V30 51 H 14.969897 8.096322 -21.127461 0
M  V30 52 H 13.286080 7.593975 -21.008028 0
M  V30 53 H 13.714073 9.296533 -20.943938 0
M  V30 54 H 16.039172 6.562702 -19.981556 0
M  V30 55 H 15.780617 5.252829 -16.732968 0
M  V30 56 H 17.005077 4.481435 -20.540109 0
M  V30 57 H 18.067223 4.513059 -19.151589 0
M  V30 58 H 16.977034 3.152295 -19.389093 0
M  V30 59 H 10.395750 1.207372 -19.910181 0
M  V30 60 H 10.156812 2.902667 -19.614357 0
M  V30 61 H 16.870149 8.953017 -19.800507 0
M  V30 62 H 17.270929 9.569963 -18.223965 0
M  V30 63 H 6.588203 1.544904 -19.651224 0
M  V30 64 H 8.154210 1.330630 -20.318900 0
M  V30 65 H 8.034492 1.411936 -15.964869 0
M  V30 66 H 6.509957 1.756414 -16.707629 0
M  V30 67 H 4.975417 -3.556309 -16.841341 0
M  V30 68 H 4.575312 -1.822254 -16.417431 0
M  V30 69 H 14.946907 4.494200 -20.917317 0
M  V30 70 H 8.373060 -3.270875 -20.067087 0
M  V30 71 H 6.362587 -0.480333 -16.040780 0
M  V30 72 H 7.896563 -0.933512 -16.704877 0
M  V30 73 H 6.790667 3.462527 -18.229533 0
M  V30 74 H 8.249556 3.777055 -17.316842 0
M  V30 75 H 8.281197 3.745352 -19.081462 0
M  V30 76 H 12.185459 1.435654 -17.863760 0
M  V30 77 H 12.578921 1.779715 -19.525235 0
M  V30 78 H 12.247514 4.038784 -19.194605 0
M  V30 END ATOM
M  V30 BEGIN BOND
M  V30 1 1 2 1 CFG=1
M  V30 2 1 9 4
M  V30 3 1 10 5
M  V30 4 1 11 4
M  V30 5 1 11 7
M  V30 6 1 12 1
M  V30 7 1 13 3
M  V30 8 1 15 11
M  V30 9 1 16 13
M  V30 10 1 17 8
M  V30 11 1 20 1
M  V30 12 1 21 5
M  V30 13 1 21 17
M  V30 14 1 21 18 CFG=1
M  V30 15 1 21 19
M  V30 16 1 22 3
M  V30 17 1 22 8
M  V30 18 1 23 2
M  V30 19 1 23 9
M  V30 20 1 24 6 CFG=1
M  V30 21 1 24 13
M  V30 22 1 24 17
M  V30 23 1 25 9
M  V30 24 1 26 10
M  V30 25 1 26 14
M  V30 26 1 27 5
M  V30 27 1 27 24
M  V30 28 1 28 2
M  V30 29 1 29 7
M  V30 30 1 29 11
M  V30 31 1 5 30 CFG=3
M  V30 32 1 31 15
M  V30 33 1 31 25
M  V30 34 1 32 4
M  V30 35 1 32 28
M  V30 36 2 33 15
M  V30 37 1 34 2
M  V30 38 1 35 20
M  V30 39 1 35 26
M  V30 40 2 36 25
M  V30 41 1 37 3
M  V30 42 1 38 3
M  V30 43 1 4 39 CFG=3
M  V30 44 1 40 7
M  V30 45 1 41 7
M  V30 46 1 42 8
M  V30 47 1 43 8
M  V30 48 1 44 10
M  V30 49 1 45 10
M  V30 50 1 46 12
M  V30 51 1 13 47 CFG=1
M  V30 52 1 48 14
M  V30 53 1 49 14
M  V30 54 1 50 14
M  V30 55 1 51 16
M  V30 56 1 52 16
M  V30 57 1 53 16
M  V30 58 1 17 54 CFG=3
M  V30 59 1 55 18
M  V30 60 1 56 19
M  V30 61 1 57 19
M  V30 62 1 58 19
M  V30 63 1 59 20
M  V30 64 1 60 20
M  V30 65 1 61 22
M  V30 66 1 62 22
M  V30 67 1 63 23
M  V30 68 1 64 23
M  V30 69 1 65 28
M  V30 70 1 66 28
M  V30 71 1 67 29
M  V30 72 1 68 29
M  V30 73 1 69 30
M  V30 74 1 70 31
M  V30 75 1 71 32
M  V30 76 1 72 32
M  V30 77 1 73 34
M  V30 78 1 74 34
M  V30 79 1 75 34
M  V30 80 1 76 35
M  V30 81 1 77 35
M  V30 82 1 26 78 CFG=3
M  V30 END BOND
M  V30 END CTAB
M  END
>  <i_epik_Tot_Q>  (1) 
1

>  <i_epik_Tot_abs_Q>  (1) 
1

>  <i_i_glide_confnum>  (1) 
174

>  <i_i_glide_lignum>  (1) 
118

>  <i_i_glide_posenum>  (1) 
373

>  <i_i_glide_rotatable_bonds>  (1) 
9

>  <i_lp_mmshare_version>  (1) 
72125

>  <i_m_source_file_index>  (1) 
44

>  <i_f3d_flags>  (1) 
0

>  <num_sample>  (1) 
50

>  <b_lp_Chiralities_Consistent>  (1) 
1

>  <r_epik_Charging_Adjusted_Penalty>  (1) 
0.34224393187987273

>  <r_epik_Ionization_Penalty>  (1) 
0.17191807241559104

>  <r_epik_Ionization_Penalty_Charging>  (1) 
0.17112196593993639

>  <r_epik_Ionization_Penalty_Neutral>  (1) 
0.00079610647565464391

>  <r_epik_State_Penalty>  (1) 
0.17112196593993634

>  <r_glide_ring_energy>  (1) 
0

>  <r_i_docking_score>  (1) 
-2.7012095497274653

>  <r_i_glide_ecoul>  (1) 
-4.8859687365162889

>  <r_i_glide_eff_state_penalty>  (1) 
0.17112196593993634

>  <r_i_glide_einternal>  (1) 
1.5532841177994836

>  <r_i_glide_emodel>  (1) 
-34.392257664300175

>  <r_i_glide_emodel_strain>  (1) 
0.28481489909174229

>  <r_i_glide_energy>  (1) 
-30.937215963866983

>  <r_i_glide_erotb>  (1) 
0.44011442581216542

>  <r_i_glide_esite>  (1) 
-0.008234668466678214

>  <r_i_glide_evdw>  (1) 
-26.051247227350693

>  <r_i_glide_gscore>  (1) 
-2.8723315156674016

>  <r_i_glide_gscore_strain>  (1) 
0

>  <r_i_glide_hbond>  (1) 
-0.29301607736538715

>  <r_i_glide_ligand_efficiency>  (1) 
-0.075033598603540697

>  <r_i_glide_ligand_efficiency_ln>  (1) 
-0.58933094550217513

>  <r_i_glide_ligand_efficiency_sa>  (1) 
-0.24775548381165291

>  <r_i_glide_lipo>  (1) 
-0.88581993348822452

>  <r_i_glide_metal>  (1) 
-0

>  <r_i_glide_rewards>  (1) 
-0.089917590314299412

>  <r_lp_Energy>  (1) 
41.055799999999998

>  <r_lp_tautomer_probability>  (1) 
0.99999999996150013

>  <s_epik_Chemistry_Notes>  (1) 
This compound has a N-S or N-O group and may undergo hydrolysis at high or low pH.

>  <s_epik_cmdline>  (1) 
J2VwaWtfcHl0aG9uJywgJy1waHQnLCAnMS4wJywgJy1waCcsICc3LjQnLCAnLXRuJywgJzgnLCAnLW1hJywgJzUwMCcsICctaW1hZScsICc8aW5maWxlLm1hZT4nLCAnLW9tYWUnLCAnPG91dGZpbGUubWFlPic=

>  <s_epik_input>  (1) 
W0NIMl0xW0NIMl1DMTJbQ0BASF0zTihDKD1PKVtOSF1DMj1PKVtDSDJdW0NAQF0oW0NIM10pKFtDSDJdW0NIMl0zKU4oW09IXSlbQ0gyXVtDSDJdTihbQ0gzXSlbQ0gyXVtDQF0oTzQpKFtPSF0pW0NAQF0oW09IXSkoW0NIM10pW0NAQEhdKFtDQF00NUNsKVtDSDJdW0NIMl1bQ0gyXVtDQEhdNVtDSDNd

>  <s_glide_docking_method>  (1) 
confgen

>  <s_i_glide_gridfile>  (1) 
gpcr_drd2_6luq_protein_autoprepared_prepared

>  <s_lp_Force_Field>  (1) 
S-OPLS

>  <s_lp_Variant>  (1) 
DiffSBDD_43-2

>  <s_m_source_file>  (1) 
generated_generic_title2_ligand_DiffSBDD_2026-06-23_prepared.sdf

>  <GenAI_Model>  (1) 
DiffSBDD

>  <Protein>  (1) 
generic_title2

$$$$
DiffSBDD_8
     RDKit          3D

  0  0  0  0  0  0  0  0  0  0999 V3000
M  V30 BEGIN CTAB
M  V30 COUNTS 69 72 0 0 1
M  V30 BEGIN ATOM
M  V30 1 N 7.069357 4.202498 -14.182265 0
M  V30 2 C 6.746323 0.561072 -13.174893 0
M  V30 3 C 7.124118 5.571943 -11.184602 0 CFG=1
M  V30 4 N 7.476479 0.343917 -15.441060 0
M  V30 5 O 8.312260 7.285322 -13.184967 0
M  V30 6 C 9.827375 5.916960 -8.942952 0
M  V30 7 F 6.575450 2.151531 -16.358795 0
M  V30 8 C 8.966421 5.767579 -7.676641 0
M  V30 9 N 9.375430 6.993042 -9.818253 0
M  V30 10 C 9.453037 6.659875 -11.240876 0 CFG=1
M  V30 11 C 6.354883 1.248285 -15.405979 0 CFG=2
M  V30 12 C 12.055784 10.052218 -6.166727 0
M  V30 13 C 8.548170 5.520260 -11.722386 0 CFG=2
M  V30 14 O 8.178209 8.790022 -11.509068 0
M  V30 15 O 7.215099 -0.567829 -16.523864 0
M  V30 16 C 9.133176 6.741016 -6.504457 0
M  V30 17 C 9.513837 5.276957 -14.150287 0
M  V30 18 C 5.685876 4.607337 -14.384569 0
M  V30 19 C 8.002759 5.260718 -14.362782 0 CFG=2
M  V30 20 C 6.355816 1.818866 -13.963039 0 CFG=2
M  V30 21 C 7.431451 2.924446 -13.862637 0
M  V30 22 C 6.165415 4.403597 -11.120243 0
M  V30 23 C 9.000263 7.848525 -12.133987 0 CFG=2
M  V30 24 C 8.558283 5.905616 -13.157950 0 CFG=2
M  V30 25 O 13.396025 9.989604 -5.766222 0
M  V30 26 O 8.572282 2.623084 -13.539688 0
M  V30 27 C 11.870697 9.082369 -7.340963 0
M  V30 28 C 8.464620 -0.892003 -17.112638 0
M  V30 29 C 7.304029 -0.409785 -14.221209 0
M  V30 30 O 10.631664 8.424127 -7.231686 0
M  V30 31 C 10.499967 7.373687 -6.416149 0
M  V30 32 N 6.975256 4.784695 -9.988492 0 CHG=1
M  V30 33 O 11.373706 6.938550 -5.664574 0
M  V30 34 H 7.470733 0.737967 -12.380154 0
M  V30 35 H 5.873795 0.112864 -12.697554 0
M  V30 36 H 6.632135 6.539122 -11.185040 0
M  V30 37 H 10.882312 6.038943 -8.702994 0
M  V30 38 H 9.776187 4.962967 -9.465983 0
M  V30 39 H 9.197023 4.788714 -7.290693 0
M  V30 40 H 7.911122 5.738562 -7.916616 0
M  V30 41 H 8.416171 7.295061 -9.582396 0
M  V30 42 H 10.483595 6.425966 -11.517697 0
M  V30 43 H 5.419718 0.729190 -15.623196 0
M  V30 44 H 11.456070 9.765167 -5.303000 0
M  V30 45 H 11.783411 11.074826 -6.426441 0
M  V30 46 H 8.990652 4.531485 -11.583050 0
M  V30 47 H 7.641527 8.355676 -10.849140 0
M  V30 48 H 8.953582 6.204324 -5.578784 0
M  V30 49 H 8.392508 7.538432 -6.559376 0
M  V30 50 H 10.071482 5.882829 -14.857766 0
M  V30 51 H 10.060899 4.416951 -13.786087 0
M  V30 52 H 4.892037 3.989220 -13.984272 0
M  V30 53 H 5.529842 5.564920 -13.882646 0
M  V30 54 H 5.544145 4.820309 -15.438057 0
M  V30 55 H 7.705518 5.945982 -15.155571 0
M  V30 56 H 5.381239 2.108612 -13.584743 0
M  V30 57 H 5.120974 4.561763 -10.865448 0
M  V30 58 H 6.450854 3.404892 -11.421482 0
M  V30 59 H 9.856647 8.389899 -12.521448 0
M  V30 60 H 13.938668 10.452952 -6.385606 0
M  V30 61 H 11.907160 9.591679 -8.301487 0
M  V30 62 H 12.665771 8.335928 -7.362956 0
M  V30 63 H 8.310330 -1.567735 -17.953687 0
M  V30 64 H 8.964143 -0.000180 -17.492025 0
M  V30 65 H 9.125940 -1.395383 -16.404072 0
M  V30 66 H 8.283850 -0.809185 -13.985916 0
M  V30 67 H 6.576270 -1.208271 -14.362694 0
M  V30 68 H 7.669560 4.081667 -9.782789 0
M  V30 69 H 6.406849 5.152709 -9.233060 0
M  V30 END ATOM
M  V30 BEGIN BOND
M  V30 1 1 8 6
M  V30 2 1 9 6
M  V30 3 1 10 9
M  V30 4 1 11 4
M  V30 5 1 11 7
M  V30 6 1 13 3
M  V30 7 1 13 10
M  V30 8 1 15 4
M  V30 9 1 16 8
M  V30 10 1 18 1
M  V30 11 1 19 1
M  V30 12 1 19 17
M  V30 13 1 20 2
M  V30 14 1 20 11
M  V30 15 1 21 1
M  V30 16 1 21 20
M  V30 17 1 22 3
M  V30 18 1 23 5
M  V30 19 1 23 10
M  V30 20 1 23 14
M  V30 21 1 24 5 CFG=1
M  V30 22 1 24 13
M  V30 23 1 24 17
M  V30 24 1 24 19
M  V30 25 1 25 12
M  V30 26 2 26 21
M  V30 27 1 27 12
M  V30 28 1 28 15
M  V30 29 1 29 2
M  V30 30 1 29 4
M  V30 31 1 30 27
M  V30 32 1 31 16
M  V30 33 1 31 30
M  V30 34 1 32 3
M  V30 35 1 32 22
M  V30 36 2 33 31
M  V30 37 1 34 2
M  V30 38 1 35 2
M  V30 39 1 3 36 CFG=1
M  V30 40 1 37 6
M  V30 41 1 38 6
M  V30 42 1 39 8
M  V30 43 1 40 8
M  V30 44 1 41 9
M  V30 45 1 10 42 CFG=3
M  V30 46 1 11 43 CFG=3
M  V30 47 1 44 12
M  V30 48 1 45 12
M  V30 49 1 13 46 CFG=3
M  V30 50 1 47 14
M  V30 51 1 48 16
M  V30 52 1 49 16
M  V30 53 1 50 17
M  V30 54 1 51 17
M  V30 55 1 52 18
M  V30 56 1 53 18
M  V30 57 1 54 18
M  V30 58 1 19 55 CFG=3
M  V30 59 1 20 56 CFG=1
M  V30 60 1 57 22
M  V30 61 1 58 22
M  V30 62 1 23 59 CFG=3
M  V30 63 1 60 25
M  V30 64 1 61 27
M  V30 65 1 62 27
M  V30 66 1 63 28
M  V30 67 1 64 28
M  V30 68 1 65 28
M  V30 69 1 66 29
M  V30 70 1 67 29
M  V30 71 1 68 32
M  V30 72 1 69 32
M  V30 END BOND
M  V30 END CTAB
M  END
>  <i_epik_Tot_Q>  (1) 
1

>  <i_epik_Tot_abs_Q>  (1) 
1

>  <i_i_glide_confnum>  (1) 
2453

>  <i_i_glide_lignum>  (1) 
38

>  <i_i_glide_posenum>  (1) 
394

>  <i_i_glide_rotatable_bonds>  (1) 
15

>  <i_lp_mmshare_version>  (1) 
72125

>  <i_m_source_file_index>  (1) 
9

>  <i_f3d_flags>  (1) 
0

>  <num_sample>  (1) 
50

>  <b_lp_Chiralities_Consistent>  (1) 
1

>  <r_epik_Charging_Adjusted_Penalty>  (1) 
1.2103720943885907

>  <r_epik_Ionization_Penalty>  (1) 
0.55446808147534954

>  <r_epik_Ionization_Penalty_Charging>  (1) 
0.13553905892425583

>  <r_epik_Ionization_Penalty_Neutral>  (1) 
0.41892902255109377

>  <r_epik_State_Penalty>  (1) 
1.074833035464335

>  <r_glide_ring_energy>  (1) 
0

>  <r_i_docking_score>  (1) 
-2.6877273198438245

>  <r_i_glide_ecoul>  (1) 
-13.795036738625255

>  <r_i_glide_eff_state_penalty>  (1) 
1.074833035464335

>  <r_i_glide_einternal>  (1) 
19.096717897168951

>  <r_i_glide_emodel>  (1) 
-22.254055540347334

>  <r_i_glide_emodel_strain>  (1) 
8.3460812533314623

>  <r_i_glide_energy>  (1) 
-29.310109711406973

>  <r_i_glide_erotb>  (1) 
1.0741905119875848

>  <r_i_glide_esite>  (1) 
-0.14589557912636261

>  <r_i_glide_evdw>  (1) 
-15.515072972781716

>  <r_i_glide_gscore>  (1) 
-3.7625603553081595

>  <r_i_glide_gscore_strain>  (1) 
1.0865203133328656

>  <r_i_glide_hbond>  (1) 
-0.40042190711888032

>  <r_i_glide_ligand_efficiency>  (1) 
-0.081446282419509838

>  <r_i_glide_ligand_efficiency_ln>  (1) 
-0.59773663962598911

>  <r_i_glide_ligand_efficiency_sa>  (1) 
-0.26124174691111335

>  <r_i_glide_lipo>  (1) 
-1.1906912218867904

>  <r_i_glide_metal>  (1) 
-0

>  <r_i_glide_rewards>  (1) 
-1.3412533130637034

>  <r_lp_Energy>  (1) 
41.909411999999996

>  <s_epik_Chemistry_Notes>  (1) 
This compound has an ester and may undergo hydrolysis at high or low pH. This compound contains an acetal/aminal-like group ( X-CH(R)-Y where X, Y are N, S, or O) that may be acid/base labile, releasing an aldehyde. This compound has a N-S or N-O group and may undergo hydrolysis at high or low pH.

>  <s_epik_cmdline>  (1) 
J2VwaWtfcHl0aG9uJywgJy1waHQnLCAnMS4wJywgJy1waCcsICc3LjQnLCAnLXRuJywgJzgnLCAnLW1hJywgJzUwMCcsICctaW1hZScsICc8aW5maWxlLm1hZT4nLCAnLW9tYWUnLCAnPG91dGZpbGUubWFlPic=

>  <s_epik_input>  (1) 
W0NIM11PTjFbQ0BIXShGKVtDQEBIXShbQ0gyXVtDSDJdMSlDKD1PKU4oW0NIM10pW0NASF0yW0NIMl1DMjNPW0NAQEhdKFtPSF0pW0NASF0oW0NASF0zW0NASF00W0NIMl1bTkhdNClbTkhdW0NIMl1bQ0gyXVtDSDJdQyg9TylPW0NIMl1bQ0gyXVtPSF0=

>  <s_glide_docking_method>  (1) 
confgen

>  <s_i_glide_gridfile>  (1) 
gpcr_drd2_6luq_protein_autoprepared_prepared

>  <s_lp_Force_Field>  (1) 
S-OPLS

>  <s_lp_Variant>  (1) 
DiffSBDD_8-7

>  <s_m_source_file>  (1) 
generated_generic_title2_ligand_DiffSBDD_2026-06-23_prepared.sdf

>  <GenAI_Model>  (1) 
DiffSBDD

>  <Protein>  (1) 
generic_title2

$$$$
DiffSBDD_35
     RDKit          3D

  0  0  0  0  0  0  0  0  0  0999 V3000
M  V30 BEGIN CTAB
M  V30 COUNTS 81 86 0 0 1
M  V30 BEGIN ATOM
M  V30 1 C 14.664267 4.344968 -20.083455 0
M  V30 2 O 14.587399 6.625860 -19.285339 0
M  V30 3 C 7.986384 1.463804 -18.960427 0
M  V30 4 C 8.437173 5.961000 -13.056414 0
M  V30 5 O 15.497262 3.470021 -19.831395 0
M  V30 6 C 7.201588 4.144672 -13.453709 0
M  V30 7 C 8.711567 5.526131 -14.265640 0
M  V30 8 C 8.129182 2.973398 -19.216415 0
M  V30 9 C 11.057334 5.001633 -19.535896 0
M  V30 10 C 6.692288 1.563801 -16.681602 0
M  V30 11 C 17.797126 6.295271 -17.650559 0
M  V30 12 F 9.029332 7.047692 -12.536009 0
M  V30 13 C 14.214816 8.029824 -23.332320 0
M  V30 14 O 10.498822 4.496257 -16.476169 0
M  V30 15 C 14.788292 6.295597 -21.740224 0
M  V30 16 N 14.900041 7.626483 -22.083879 0
M  V30 17 C 12.833017 2.689795 -19.905007 0
M  V30 18 C 7.411958 5.161297 -12.278458 0
M  V30 19 C 18.212274 7.093934 -18.904066 0 CFG=2
M  V30 20 N 13.314055 4.064669 -20.135368 0
M  V30 21 C 7.375440 2.600741 -16.232044 0
M  V30 22 O 18.540962 9.498589 -19.388046 0
M  V30 23 F 4.972167 3.588449 -13.461533 0
M  V30 24 O 8.528407 5.689107 -17.566933 0
M  V30 25 N 9.334226 3.459089 -18.524809 0
M  V30 26 F 6.260592 1.908352 -13.910932 0
M  V30 27 C 15.151439 5.831328 -20.336352 0 CFG=2
M  V30 28 C 10.543185 3.559678 -19.380748 0
M  V30 29 C 18.777691 8.464124 -18.454241 0
M  V30 30 O 15.232092 9.842910 -21.693336 0
M  V30 31 C 17.092480 7.200269 -19.955244 0
M  V30 32 S 9.168435 4.448171 -17.101640 0
M  V30 33 F 6.174977 2.689393 -11.985050 0
M  V30 34 C 16.652583 5.906174 -20.503599 0
M  V30 35 C 16.585343 8.420040 -20.304044 0
M  V30 36 C 7.460159 4.987880 -10.781681 0
M  V30 37 C 6.307481 5.739926 -11.439098 0
M  V30 38 C 7.968987 4.402667 -14.550909 0
M  V30 39 C 6.760596 1.065498 -18.122164 0
M  V30 40 C 15.516182 8.687185 -21.375434 0
M  V30 41 O 14.348411 5.465300 -22.544356 0
M  V30 42 C 6.162632 3.046193 -13.251858 0
M  V30 43 C 11.677911 2.655028 -18.890877 0
M  V30 44 C 12.263821 5.063114 -20.482240 0
M  V30 45 C 8.032995 3.679555 -15.863031 0
M  V30 46 C 17.158363 9.666818 -19.644780 0
M  V30 47 H 13.649934 6.500719 -19.279874 0
M  V30 48 H 7.923617 0.955151 -19.923470 0
M  V30 49 H 8.883191 1.063375 -18.485682 0
M  V30 50 H 9.412238 5.989950 -14.935650 0
M  V30 51 H 7.252952 3.526531 -18.874253 0
M  V30 52 H 8.181756 3.175178 -20.286891 0
M  V30 53 H 10.258682 5.642124 -19.914393 0
M  V30 54 H 11.364273 5.423757 -18.579978 0
M  V30 55 H 5.992096 1.047947 -16.043340 0
M  V30 56 H 17.542909 5.260322 -17.869327 0
M  V30 57 H 18.607612 6.273397 -16.920255 0
M  V30 58 H 16.929642 6.750940 -17.171591 0
M  V30 59 H 14.920304 8.553803 -23.977742 0
M  V30 60 H 13.771426 7.234420 -23.931830 0
M  V30 61 H 13.400658 8.720860 -23.104683 0
M  V30 62 H 12.497770 2.289000 -20.861110 0
M  V30 63 H 13.609533 2.010112 -19.554862 0
M  V30 64 H 19.027702 6.563598 -19.399417 0
M  V30 65 H 10.294060 3.201542 -20.380704 0
M  V30 66 H 18.360125 8.769922 -17.492932 0
M  V30 67 H 19.857251 8.389375 -18.322097 0
M  V30 68 H 17.170720 5.113046 -19.972101 0
M  V30 69 H 17.060985 5.797357 -21.515351 0
M  V30 70 H 7.238419 4.024565 -10.335251 0
M  V30 71 H 8.179734 5.591257 -10.231085 0
M  V30 72 H 6.272020 6.820815 -11.342955 0
M  V30 73 H 5.338157 5.246492 -11.444342 0
M  V30 74 H 5.848182 1.381775 -18.630044 0
M  V30 75 H 6.715442 -0.024097 -18.083493 0
M  V30 76 H 11.318444 1.632846 -18.779292 0
M  V30 77 H 12.035151 2.965939 -17.909725 0
M  V30 78 H 12.549172 6.106335 -20.512725 0
M  V30 79 H 11.922439 4.832171 -21.492275 0
M  V30 80 H 17.079458 10.539660 -20.289704 0
M  V30 81 H 16.606761 9.893485 -18.731079 0
M  V30 END ATOM
M  V30 BEGIN BOND
M  V30 1 2 5 1
M  V30 2 2 7 4
M  V30 3 1 8 3
M  V30 4 1 12 4
M  V30 5 1 16 13
M  V30 6 1 16 15
M  V30 7 1 18 4
M  V30 8 1 18 6
M  V30 9 1 19 11
M  V30 10 1 20 1
M  V30 11 1 20 17
M  V30 12 2 21 10
M  V30 13 1 25 8
M  V30 14 1 27 1
M  V30 15 1 27 2 CFG=1
M  V30 16 1 27 15
M  V30 17 1 28 9
M  V30 18 1 28 25
M  V30 19 1 29 19
M  V30 20 1 29 22
M  V30 21 1 31 19
M  V30 22 2 32 14
M  V30 23 2 32 24
M  V30 24 1 32 25
M  V30 25 1 34 27
M  V30 26 1 34 31
M  V30 27 2 35 31
M  V30 28 1 36 18
M  V30 29 1 37 18
M  V30 30 1 37 36
M  V30 31 2 38 6
M  V30 32 1 38 7
M  V30 33 1 39 3
M  V30 34 1 39 10
M  V30 35 1 40 16
M  V30 36 2 40 30
M  V30 37 1 40 35
M  V30 38 2 41 15
M  V30 39 1 42 6
M  V30 40 1 42 23
M  V30 41 1 42 26
M  V30 42 1 42 33
M  V30 43 1 43 17
M  V30 44 1 43 28
M  V30 45 1 44 9
M  V30 46 1 44 20
M  V30 47 2 45 21
M  V30 48 1 45 32
M  V30 49 1 45 38
M  V30 50 1 46 22
M  V30 51 1 46 35
M  V30 52 1 47 2
M  V30 53 1 48 3
M  V30 54 1 49 3
M  V30 55 1 50 7
M  V30 56 1 51 8
M  V30 57 1 52 8
M  V30 58 1 53 9
M  V30 59 1 54 9
M  V30 60 1 55 10
M  V30 61 1 56 11
M  V30 62 1 57 11
M  V30 63 1 58 11
M  V30 64 1 59 13
M  V30 65 1 60 13
M  V30 66 1 61 13
M  V30 67 1 62 17
M  V30 68 1 63 17
M  V30 69 1 19 64 CFG=3
M  V30 70 1 65 28
M  V30 71 1 66 29
M  V30 72 1 67 29
M  V30 73 1 68 34
M  V30 74 1 69 34
M  V30 75 1 70 36
M  V30 76 1 71 36
M  V30 77 1 72 37
M  V30 78 1 73 37
M  V30 79 1 74 39
M  V30 80 1 75 39
M  V30 81 1 76 43
M  V30 82 1 77 43
M  V30 83 1 78 44
M  V30 84 1 79 44
M  V30 85 1 80 46
M  V30 86 1 81 46
M  V30 END BOND
M  V30 END CTAB
M  END
>  <i_epik_Tot_Q>  (1) 
0

>  <i_epik_Tot_abs_Q>  (1) 
0

>  <i_i_glide_confnum>  (1) 
64

>  <i_i_glide_lignum>  (1) 
98

>  <i_i_glide_posenum>  (1) 
141

>  <i_i_glide_rotatable_bonds>  (1) 
6

>  <i_lp_mmshare_version>  (1) 
72125

>  <i_m_source_file_index>  (1) 
36

>  <i_f3d_flags>  (1) 
0

>  <num_sample>  (1) 
50

>  <b_lp_Chiralities_Consistent>  (1) 
1

>  <r_epik_Charging_Adjusted_Penalty>  (1) 
0.04028888123744899

>  <r_epik_Ionization_Penalty>  (1) 
0.040288881244714927

>  <r_epik_Ionization_Penalty_Charging>  (1) 
0

>  <r_epik_Ionization_Penalty_Neutral>  (1) 
0.040288881244714927

>  <r_epik_State_Penalty>  (1) 
0.04028888123744899

>  <r_glide_ring_energy>  (1) 
0

>  <r_i_docking_score>  (1) 
-2.6735930154887941

>  <r_i_glide_ecoul>  (1) 
0.63451800415770288

>  <r_i_glide_eff_state_penalty>  (1) 
0.04028888123744899

>  <r_i_glide_einternal>  (1) 
13.392207238597994

>  <r_i_glide_emodel>  (1) 
-12.279861840712123

>  <r_i_glide_emodel_strain>  (1) 
5.9326347257185716

>  <r_i_glide_energy>  (1) 
-20.261221821241421

>  <r_i_glide_erotb>  (1) 
0.028804905803733735

>  <r_i_glide_esite>  (1) 
-0.0070968938801740603

>  <r_i_glide_evdw>  (1) 
-20.895739825399122

>  <r_i_glide_gscore>  (1) 
-2.7138818967262432

>  <r_i_glide_gscore_strain>  (1) 
0.48315868142964291

>  <r_i_glide_hbond>  (1) 
0

>  <r_i_glide_ligand_efficiency>  (1) 
-0.058121587293234654

>  <r_i_glide_ligand_efficiency_ln>  (1) 
-0.5536946722597299

>  <r_i_glide_ligand_efficiency_sa>  (1) 
-0.20825242961109194

>  <r_i_glide_lipo>  (1) 
-1.3239794401625218

>  <r_i_glide_metal>  (1) 
-0

>  <r_i_glide_rewards>  (1) 
-0.94515985927062296

>  <r_lp_Energy>  (1) 
64.057782000000003

>  <s_epik_cmdline>  (1) 
J2VwaWtfcHl0aG9uJywgJy1waHQnLCAnMS4wJywgJy1waCcsICc3LjQnLCAnLXRuJywgJzgnLCAnLW1hJywgJzUwMCcsICctaW1hZScsICc8aW5maWxlLm1hZT4nLCAnLW9tYWUnLCAnPG91dGZpbGUubWFlPic=

>  <s_epik_input>  (1) 
W0NIM11bQ0BASF0xW0NIMl1PW0NIMl1DKD1DMTIpQyg9TylOKFtDSDNdKUMoPU8pW0NAXShbT0hdKShbQ0gyXTIpQyg9TylOM1tDSDJdW0NIMl1bQ0hdKFtDSDJdW0NIMl0zKU4oUzQoPU8pPU8pW0NIMl1bQ0gyXVtDSDJdW0NIXT1DPUM0Qyg9QzVDKEYpKEYpRilbQ0hdPUMoRilDNTZbQ0gyXVtDSDJdNg==

>  <s_glide_docking_method>  (1) 
confgen

>  <s_i_glide_gridfile>  (1) 
gpcr_drd2_6luq_protein_autoprepared_prepared

>  <s_lp_Force_Field>  (1) 
S-OPLS

>  <s_lp_Variant>  (1) 
DiffSBDD_35-1

>  <s_m_source_file>  (1) 
generated_generic_title2_ligand_DiffSBDD_2026-06-23_prepared.sdf

>  <GenAI_Model>  (1) 
DiffSBDD

>  <Protein>  (1) 
generic_title2

$$$$
DiffSBDD_8
     RDKit          3D

  0  0  0  0  0  0  0  0  0  0999 V3000
M  V30 BEGIN CTAB
M  V30 COUNTS 69 72 0 0 1
M  V30 BEGIN ATOM
M  V30 1 N 7.588572 2.884521 -15.056559 0
M  V30 2 C 7.578284 0.787040 -18.195809 0
M  V30 3 C 6.683250 5.142676 -11.815377 0 CFG=1
M  V30 4 N 9.940718 0.897980 -17.796366 0
M  V30 5 O 9.375397 4.202112 -13.198593 0
M  V30 6 C 10.196558 6.842478 -9.777558 0
M  V30 7 F 10.089085 3.100921 -17.184981 0
M  V30 8 C 9.863608 8.150623 -9.043384 0
M  V30 9 N 8.975390 6.192681 -10.247552 0
M  V30 10 C 9.145462 4.934818 -10.994654 0 CFG=1
M  V30 11 C 9.365060 2.231332 -17.886287 0 CFG=2
M  V30 12 C 12.510180 9.827778 -5.134329 0
M  V30 13 C 7.843097 4.255958 -11.412397 0 CFG=2
M  V30 14 O 9.283573 6.477201 -12.785036 0
M  V30 15 O 11.030715 0.868593 -18.736216 0
M  V30 16 C 9.336393 7.936839 -7.612007 0
M  V30 17 C 8.407765 1.997111 -12.785070 0
M  V30 18 C 7.484189 4.245415 -15.601108 0
M  V30 19 C 7.398370 2.757045 -13.635838 0 CFG=1
M  V30 20 C 7.919792 2.050450 -17.392775 0 CFG=2
M  V30 21 C 7.775187 1.803093 -15.859388 0
M  V30 22 C 5.323855 4.534555 -11.677723 0
M  V30 23 C 9.776615 5.237981 -12.359019 0 CFG=2
M  V30 24 C 8.275159 3.503905 -12.647160 0 CFG=2
M  V30 25 O 13.178744 9.590225 -6.350079 0
M  V30 26 O 7.823825 0.654133 -15.414843 0
M  V30 27 C 11.635370 8.631395 -4.764133 0
M  V30 28 C 12.225185 0.761885 -17.980763 0
M  V30 29 C 8.907651 0.019032 -18.339385 0
M  V30 30 O 10.547046 8.613371 -5.666548 0
M  V30 31 C 10.452073 7.663343 -6.609892 0
M  V30 32 N 5.775228 5.590211 -10.784967 0 CHG=1
M  V30 33 O 11.176334 6.672149 -6.694426 0
M  V30 34 H 6.798765 0.173583 -17.739317 0
M  V30 35 H 7.214430 1.069035 -19.184643 0
M  V30 36 H 6.825967 5.909174 -12.572258 0
M  V30 37 H 10.848970 7.071949 -10.619417 0
M  V30 38 H 10.754395 6.171038 -9.126471 0
M  V30 39 H 9.136443 8.725799 -9.619335 0
M  V30 40 H 10.758976 8.774490 -9.007659 0
M  V30 41 H 8.311490 6.119215 -9.479954 0
M  V30 42 H 9.775426 4.224020 -10.458434 0
M  V30 43 H 9.370472 2.578091 -18.921953 0
M  V30 44 H 13.259297 9.990206 -4.358619 0
M  V30 45 H 11.902507 10.730683 -5.215395 0
M  V30 46 H 7.502429 3.590867 -10.636214 0
M  V30 47 H 9.021590 6.914517 -11.980435 0
M  V30 48 H 8.611209 7.123479 -7.580554 0
M  V30 49 H 8.800320 8.831261 -7.292337 0
M  V30 50 H 9.351891 1.646800 -13.185087 0
M  V30 51 H 7.934907 1.265515 -12.136179 0
M  V30 52 H 8.347101 4.511491 -16.209336 0
M  V30 53 H 6.580138 4.375954 -16.194566 0
M  V30 54 H 7.433660 4.989652 -14.806608 0
M  V30 55 H 6.362791 2.603267 -13.340967 0
M  V30 56 H 7.278263 2.864332 -17.726721 0
M  V30 57 H 4.575422 4.790330 -12.414743 0
M  V30 58 H 5.199258 3.614146 -11.111727 0
M  V30 59 H 10.861266 5.314604 -12.334717 0
M  V30 60 H 12.535276 9.368959 -7.007018 0
M  V30 61 H 12.175417 7.687755 -4.737940 0
M  V30 62 H 11.256205 8.791720 -3.757303 0
M  V30 63 H 13.083445 0.748307 -18.652279 0
M  V30 64 H 12.345646 1.608043 -17.302449 0
M  V30 65 H 12.242520 -0.158011 -17.394472 0
M  V30 66 H 8.896664 -0.914165 -17.774304 0
M  V30 67 H 9.095632 -0.225359 -19.385805 0
M  V30 68 H 6.045729 5.320260 -9.848071 0
M  V30 69 H 5.467858 6.541445 -10.940514 0
M  V30 END ATOM
M  V30 BEGIN BOND
M  V30 1 1 8 6
M  V30 2 1 9 6
M  V30 3 1 10 9
M  V30 4 1 11 4
M  V30 5 1 11 7
M  V30 6 1 13 3
M  V30 7 1 13 10
M  V30 8 1 15 4
M  V30 9 1 16 8
M  V30 10 1 18 1
M  V30 11 1 19 1
M  V30 12 1 19 17
M  V30 13 1 20 2
M  V30 14 1 20 11
M  V30 15 1 21 1
M  V30 16 1 21 20
M  V30 17 1 22 3
M  V30 18 1 23 5
M  V30 19 1 23 10
M  V30 20 1 23 14
M  V30 21 1 24 5 CFG=3
M  V30 22 1 24 13
M  V30 23 1 24 17
M  V30 24 1 24 19
M  V30 25 1 25 12
M  V30 26 2 26 21
M  V30 27 1 27 12
M  V30 28 1 28 15
M  V30 29 1 29 2
M  V30 30 1 29 4
M  V30 31 1 30 27
M  V30 32 1 31 16
M  V30 33 1 31 30
M  V30 34 1 32 3
M  V30 35 1 32 22
M  V30 36 2 33 31
M  V30 37 1 34 2
M  V30 38 1 35 2
M  V30 39 1 3 36 CFG=3
M  V30 40 1 37 6
M  V30 41 1 38 6
M  V30 42 1 39 8
M  V30 43 1 40 8
M  V30 44 1 41 9
M  V30 45 1 10 42 CFG=1
M  V30 46 1 11 43 CFG=3
M  V30 47 1 44 12
M  V30 48 1 45 12
M  V30 49 1 13 46 CFG=1
M  V30 50 1 47 14
M  V30 51 1 48 16
M  V30 52 1 49 16
M  V30 53 1 50 17
M  V30 54 1 51 17
M  V30 55 1 52 18
M  V30 56 1 53 18
M  V30 57 1 54 18
M  V30 58 1 19 55 CFG=3
M  V30 59 1 20 56 CFG=3
M  V30 60 1 57 22
M  V30 61 1 58 22
M  V30 62 1 23 59 CFG=1
M  V30 63 1 60 25
M  V30 64 1 61 27
M  V30 65 1 62 27
M  V30 66 1 63 28
M  V30 67 1 64 28
M  V30 68 1 65 28
M  V30 69 1 66 29
M  V30 70 1 67 29
M  V30 71 1 68 32
M  V30 72 1 69 32
M  V30 END BOND
M  V30 END CTAB
M  END
>  <i_epik_Tot_Q>  (1) 
1

>  <i_epik_Tot_abs_Q>  (1) 
1

>  <i_i_glide_confnum>  (1) 
9253

>  <i_i_glide_lignum>  (1) 
36

>  <i_i_glide_posenum>  (1) 
399

>  <i_i_glide_rotatable_bonds>  (1) 
15

>  <i_lp_mmshare_version>  (1) 
72125

>  <i_m_source_file_index>  (1) 
9

>  <i_f3d_flags>  (1) 
0

>  <num_sample>  (1) 
50

>  <b_lp_Chiralities_Consistent>  (1) 
1

>  <r_epik_Charging_Adjusted_Penalty>  (1) 
1.2103720943885907

>  <r_epik_Ionization_Penalty>  (1) 
0.55446808147534954

>  <r_epik_Ionization_Penalty_Charging>  (1) 
0.13553905892425583

>  <r_epik_Ionization_Penalty_Neutral>  (1) 
0.41892902255109377

>  <r_epik_State_Penalty>  (1) 
1.074833035464335

>  <r_glide_ring_energy>  (1) 
0.39280565251892818

>  <r_i_docking_score>  (1) 
-2.6488493958539743

>  <r_i_glide_ecoul>  (1) 
-4.4084932001871504

>  <r_i_glide_eff_state_penalty>  (1) 
1.074833035464335

>  <r_i_glide_einternal>  (1) 
14.119997635437429

>  <r_i_glide_emodel>  (1) 
-30.647323884517569

>  <r_i_glide_emodel_strain>  (1) 
2.7560651964580103

>  <r_i_glide_energy>  (1) 
-29.179916981225702

>  <r_i_glide_erotb>  (1) 
1.0741905119875848

>  <r_i_glide_esite>  (1) 
-0.083576867195967575

>  <r_i_glide_evdw>  (1) 
-24.771423781038553

>  <r_i_glide_gscore>  (1) 
-3.7236824313183092

>  <r_i_glide_gscore_strain>  (1) 
0

>  <r_i_glide_hbond>  (1) 
-0.022886780809316311

>  <r_i_glide_ligand_efficiency>  (1) 
-0.080268163510726492

>  <r_i_glide_ligand_efficiency_ln>  (1) 
-0.58909039062976354

>  <r_i_glide_ligand_efficiency_sa>  (1) 
-0.25746289006637357

>  <r_i_glide_lipo>  (1) 
-1.4809039028096547

>  <r_i_glide_metal>  (1) 
-0

>  <r_i_glide_rewards>  (1) 
-1.3106602234109546

>  <r_lp_Energy>  (1) 
39.739995999999998

>  <s_epik_Chemistry_Notes>  (1) 
This compound has an ester and may undergo hydrolysis at high or low pH. This compound contains an acetal/aminal-like group ( X-CH(R)-Y where X, Y are N, S, or O) that may be acid/base labile, releasing an aldehyde. This compound has a N-S or N-O group and may undergo hydrolysis at high or low pH.

>  <s_epik_cmdline>  (1) 
J2VwaWtfcHl0aG9uJywgJy1waHQnLCAnMS4wJywgJy1waCcsICc3LjQnLCAnLXRuJywgJzgnLCAnLW1hJywgJzUwMCcsICctaW1hZScsICc8aW5maWxlLm1hZT4nLCAnLW9tYWUnLCAnPG91dGZpbGUubWFlPic=

>  <s_epik_input>  (1) 
W0NIM11PTjFbQ0BIXShGKVtDQEBIXShbQ0gyXVtDSDJdMSlDKD1PKU4oW0NIM10pW0NASF0yW0NIMl1DMjNPW0NAQEhdKFtPSF0pW0NASF0oW0NASF0zW0NASF00W0NIMl1bTkhdNClbTkhdW0NIMl1bQ0gyXVtDSDJdQyg9TylPW0NIMl1bQ0gyXVtPSF0=

>  <s_glide_docking_method>  (1) 
confgen

>  <s_i_glide_gridfile>  (1) 
gpcr_drd2_6luq_protein_autoprepared_prepared

>  <s_lp_Force_Field>  (1) 
S-OPLS

>  <s_lp_Variant>  (1) 
DiffSBDD_8-5

>  <s_m_source_file>  (1) 
generated_generic_title2_ligand_DiffSBDD_2026-06-23_prepared.sdf

>  <GenAI_Model>  (1) 
DiffSBDD

>  <Protein>  (1) 
generic_title2

$$$$
DiffSBDD_26
     RDKit          3D

  0  0  0  0  0  0  0  0  0  0999 V3000
M  V30 BEGIN CTAB
M  V30 COUNTS 76 80 0 0 1
M  V30 BEGIN ATOM
M  V30 1 C 10.008064 7.081988 -11.208947 0
M  V30 2 C 11.169022 2.077217 -22.975436 0
M  V30 3 O 5.204217 5.989902 -10.785307 0
M  V30 4 C 10.978679 7.796908 -10.254995 0
M  V30 5 N 6.428857 5.789971 -20.507970 0
M  V30 6 C 9.148911 8.093777 -11.970058 0
M  V30 7 F 12.413764 1.996682 -23.473329 0
M  V30 8 C 8.455055 4.460491 -22.851992 0
M  V30 9 C 7.861952 6.452906 -18.777272 0 CFG=1
M  V30 10 C 5.446937 6.255820 -18.209299 0
M  V30 11 C 10.463715 3.191365 -23.184371 0
M  V30 12 C 6.072865 2.587088 -21.315817 0
M  V30 13 C 5.276767 5.584806 -19.611657 0
M  V30 14 C 7.251425 5.527638 -11.793132 0 CFG=1
M  V30 15 C 6.513073 4.590554 -14.002320 0
M  V30 16 C 9.178946 4.062319 -11.455551 0
M  V30 17 O 6.038845 4.935033 -11.335878 0
M  V30 18 C 7.873042 4.788047 -9.384915 0
M  V30 19 C 7.431113 3.828805 -16.877531 0
M  V30 20 C 5.515366 3.857201 -21.969686 0
M  V30 21 C 7.293169 5.306021 -16.449357 0 CFG=2
M  V30 22 C 6.394953 5.558656 -15.197527 0
M  V30 23 C 8.396331 5.208823 -10.774793 0 CFG=2
M  V30 24 C 9.355989 0.980894 -21.707254 0
M  V30 25 C 7.566865 5.414454 -22.689446 0
M  V30 26 C 6.897658 6.283642 -17.609490 0 CFG=1
M  V30 27 O 9.217826 6.292819 -10.336871 0
M  V30 28 C 6.283976 5.226912 -21.859551 0 CFG=2
M  V30 29 C 8.544947 2.226832 -21.956973 0
M  V30 30 C 8.930086 5.712792 -19.552690 0
M  V30 31 C 7.519487 5.279914 -19.709723 0 CFG=2
M  V30 32 C 9.132771 3.344074 -22.681846 0
M  V30 33 O 8.938478 0.003194 -21.081629 0
M  V30 34 C 8.293955 3.656086 -12.634566 0
M  V30 35 C 7.314040 2.201238 -21.486046 0
M  V30 36 O 10.630775 1.033400 -22.256193 0
M  V30 37 N 7.611648 4.860496 -13.057605 0
M  V30 38 H 10.586811 6.477540 -11.905118 0
M  V30 39 H 5.687320 6.217362 -9.997461 0
M  V30 40 H 11.720228 8.389885 -10.784577 0
M  V30 41 H 10.440366 8.464402 -9.581122 0
M  V30 42 H 11.521979 7.083827 -9.635505 0
M  V30 43 H 9.775362 8.867350 -12.385078 0
M  V30 44 H 8.632938 7.643203 -12.814828 0
M  V30 45 H 8.420440 8.574016 -11.315660 0
M  V30 46 H 7.755499 7.453893 -19.188577 0
M  V30 47 H 4.720786 5.835161 -17.518380 0
M  V30 48 H 5.136232 7.293948 -18.336742 0
M  V30 49 H 10.911738 3.997965 -23.746543 0
M  V30 50 H 5.362369 1.960875 -20.795417 0
M  V30 51 H 5.129728 4.518384 -19.449718 0
M  V30 52 H 4.369568 5.951097 -20.090552 0
M  V30 53 H 7.081380 6.590383 -11.947339 0
M  V30 54 H 6.557118 3.561203 -14.348365 0
M  V30 55 H 5.549726 4.620090 -13.495792 0
M  V30 56 H 9.375272 3.222172 -10.791819 0
M  V30 57 H 10.142488 4.390466 -11.839192 0
M  V30 58 H 7.145087 3.987367 -9.439432 0
M  V30 59 H 8.688822 4.456455 -8.740338 0
M  V30 60 H 7.375687 5.596807 -8.862500 0
M  V30 61 H 6.576225 3.468187 -17.444580 0
M  V30 62 H 8.310607 3.701762 -17.506499 0
M  V30 63 H 7.599292 3.148191 -16.047756 0
M  V30 64 H 4.500579 3.990515 -21.596268 0
M  V30 65 H 5.379225 3.631550 -23.028004 0
M  V30 66 H 8.296274 5.592150 -16.132747 0
M  V30 67 H 5.353368 5.535084 -15.500986 0
M  V30 68 H 6.553112 6.576699 -14.840009 0
M  V30 69 H 7.729264 6.398276 -23.103082 0
M  V30 70 H 6.926343 7.247809 -17.106727 0
M  V30 71 H 5.597473 5.925206 -22.340294 0
M  V30 72 H 9.599284 5.073821 -18.980738 0
M  V30 73 H 9.394827 6.230447 -20.389233 0
M  V30 74 H 7.410925 4.265596 -19.344698 0
M  V30 75 H 7.561393 2.911886 -12.322121 0
M  V30 76 H 8.874542 3.221286 -13.447265 0
M  V30 END ATOM
M  V30 BEGIN BOND
M  V30 1 1 4 1
M  V30 2 1 6 1
M  V30 3 1 7 2
M  V30 4 2 11 2
M  V30 5 1 13 5
M  V30 6 1 13 10
M  V30 7 1 17 3
M  V30 8 1 17 14
M  V30 9 1 20 12
M  V30 10 1 21 19
M  V30 11 1 22 15
M  V30 12 1 22 21
M  V30 13 1 23 14
M  V30 14 1 23 16
M  V30 15 1 23 18
M  V30 16 2 25 8
M  V30 17 1 26 9
M  V30 18 1 26 10
M  V30 19 1 26 21
M  V30 20 1 27 1
M  V30 21 1 23 27 CFG=1
M  V30 22 1 28 5
M  V30 23 1 28 20
M  V30 24 1 28 25
M  V30 25 1 29 24
M  V30 26 1 30 9
M  V30 27 1 31 5
M  V30 28 1 31 9
M  V30 29 1 31 30
M  V30 30 2 32 8
M  V30 31 1 32 11
M  V30 32 1 32 29
M  V30 33 2 33 24
M  V30 34 1 34 16
M  V30 35 2 35 12
M  V30 36 2 35 29
M  V30 37 1 36 2
M  V30 38 1 36 24
M  V30 39 1 37 14
M  V30 40 1 37 15
M  V30 41 1 37 34
M  V30 42 1 38 1
M  V30 43 1 39 3
M  V30 44 1 40 4
M  V30 45 1 41 4
M  V30 46 1 42 4
M  V30 47 1 43 6
M  V30 48 1 44 6
M  V30 49 1 45 6
M  V30 50 1 9 46 CFG=3
M  V30 51 1 47 10
M  V30 52 1 48 10
M  V30 53 1 49 11
M  V30 54 1 50 12
M  V30 55 1 51 13
M  V30 56 1 52 13
M  V30 57 1 14 53 CFG=3
M  V30 58 1 54 15
M  V30 59 1 55 15
M  V30 60 1 56 16
M  V30 61 1 57 16
M  V30 62 1 58 18
M  V30 63 1 59 18
M  V30 64 1 60 18
M  V30 65 1 61 19
M  V30 66 1 62 19
M  V30 67 1 63 19
M  V30 68 1 64 20
M  V30 69 1 65 20
M  V30 70 1 21 66 CFG=1
M  V30 71 1 67 22
M  V30 72 1 68 22
M  V30 73 1 69 25
M  V30 74 1 26 70 CFG=1
M  V30 75 1 28 71 CFG=3
M  V30 76 1 72 30
M  V30 77 1 73 30
M  V30 78 1 31 74 CFG=1
M  V30 79 1 75 34
M  V30 80 1 76 34
M  V30 END BOND
M  V30 END CTAB
M  END
>  <i_epik_Tot_Q>  (1) 
0

>  <i_epik_Tot_abs_Q>  (1) 
0

>  <i_i_glide_confnum>  (1) 
10

>  <i_i_glide_lignum>  (1) 
76

>  <i_i_glide_posenum>  (1) 
23

>  <i_i_glide_rotatable_bonds>  (1) 
9

>  <i_lp_mmshare_version>  (1) 
72125

>  <i_m_source_file_index>  (1) 
27

>  <i_f3d_flags>  (1) 
0

>  <num_sample>  (1) 
50

>  <b_lp_Chiralities_Consistent>  (1) 
1

>  <r_epik_Charging_Adjusted_Penalty>  (1) 
0

>  <r_epik_Ionization_Penalty>  (1) 
0.071693018493777738

>  <r_epik_Ionization_Penalty_Charging>  (1) 
0

>  <r_epik_Ionization_Penalty_Neutral>  (1) 
0.071693018493777738

>  <r_epik_State_Penalty>  (1) 
-0

>  <r_glide_ring_energy>  (1) 
1.2337109712795384

>  <r_i_docking_score>  (1) 
-2.6158516692686433

>  <r_i_glide_ecoul>  (1) 
-1.2009396622687412

>  <r_i_glide_eff_state_penalty>  (1) 
-0

>  <r_i_glide_einternal>  (1) 
34.66722226622268

>  <r_i_glide_emodel>  (1) 
-11.007120492718478

>  <r_i_glide_emodel_strain>  (1) 
5.4463322357181028

>  <r_i_glide_energy>  (1) 
-29.489151481752945

>  <r_i_glide_erotb>  (1) 
0.54216957858083481

>  <r_i_glide_esite>  (1) 
-0.13708956155435251

>  <r_i_glide_evdw>  (1) 
-28.288211819484204

>  <r_i_glide_gscore>  (1) 
-2.6158516692686433

>  <r_i_glide_gscore_strain>  (1) 
0.36158305892952569

>  <r_i_glide_hbond>  (1) 
-0.10003654267504812

>  <r_i_glide_ligand_efficiency>  (1) 
-0.070698693764017384

>  <r_i_glide_ligand_efficiency_ln>  (1) 
-0.56731690280049474

>  <r_i_glide_ligand_efficiency_sa>  (1) 
-0.23558373224328427

>  <r_i_glide_lipo>  (1) 
-1.6466819223209088

>  <r_i_glide_metal>  (1) 
-0

>  <r_i_glide_rewards>  (1) 
-0.041244739914172879

>  <r_lp_Energy>  (1) 
45.427697999999999

>  <r_lp_tautomer_probability>  (1) 
1

>  <s_epik_Chemistry_Notes>  (1) 
This compound contains an acetal/aminal-like group ( X-CH(R)-Y where X, Y are N, S, or O) that may be acid/base labile, releasing an aldehyde.

>  <s_epik_cmdline>  (1) 
J2VwaWtfcHl0aG9uJywgJy1waHQnLCAnMS4wJywgJy1waCcsICc3LjQnLCAnLXRuJywgJzgnLCAnLW1hJywgJzUwMCcsICctaW1hZScsICc8aW5maWxlLm1hZT4nLCAnLW9tYWUnLCAnPG91dGZpbGUubWFlPic=

>  <s_epik_input>  (1) 
W0NIM11bQ0hdKFtDSDNdKU9bQ0BAXTEoW0NIM10pW0NASF0oT1tPSF0pTihbQ0gyXVtDSDJdMSlbQ0gyXVtDSDJdW0NAQEhdKFtDSDNdKVtDQEBIXTJbQ0gyXVtDSDJdTihbQ0BIXShbQ0BASF0yMylbQ0gyXTMpW0NASF0oW0NIMl1bQ0hdPUM0KVtDSF09Qz1jKGM9NDUpW2NIXWMoRilvYzU9Tw==

>  <s_glide_docking_method>  (1) 
confgen

>  <s_i_glide_gridfile>  (1) 
gpcr_drd2_6luq_protein_autoprepared_prepared

>  <s_lp_Force_Field>  (1) 
S-OPLS

>  <s_lp_Variant>  (1) 
DiffSBDD_26-1

>  <s_m_source_file>  (1) 
generated_generic_title2_ligand_DiffSBDD_2026-06-23_prepared.sdf

>  <GenAI_Model>  (1) 
DiffSBDD

>  <Protein>  (1) 
generic_title2

$$$$
DiffSBDD_8
     RDKit          3D

  0  0  0  0  0  0  0  0  0  0999 V3000
M  V30 BEGIN CTAB
M  V30 COUNTS 69 72 0 0 1
M  V30 BEGIN ATOM
M  V30 1 N 6.429604 4.562498 -14.383336 0
M  V30 2 C 6.574780 7.061726 -17.211156 0
M  V30 3 C 7.443286 6.965972 -12.819966 0 CFG=1
M  V30 4 N 6.916708 5.338524 -18.650883 0
M  V30 5 O 9.772749 5.190429 -13.506138 0
M  V30 6 C 10.483915 7.237986 -9.611382 0
M  V30 7 F 7.271828 3.638921 -17.186413 0
M  V30 8 C 10.783035 8.610525 -9.011201 0
M  V30 9 N 9.569232 7.317448 -10.751084 0
M  V30 10 C 9.327418 5.989852 -11.325198 0 CFG=1
M  V30 11 C 7.585355 4.911147 -17.428842 0 CFG=2
M  V30 12 C 11.816818 8.249170 -3.456133 0
M  V30 13 C 8.030354 5.771772 -12.092419 0 CFG=2
M  V30 14 O 11.268401 6.758934 -12.671249 0
M  V30 15 O 7.733754 4.876490 -19.738186 0
M  V30 16 C 11.844567 8.523052 -7.895700 0
M  V30 17 C 8.254540 3.285259 -13.011163 0
M  V30 18 C 5.420161 4.022186 -13.453606 0
M  V30 19 C 7.762500 4.076653 -14.220182 0 CFG=2
M  V30 20 C 7.166508 5.931574 -16.331830 0 CFG=2
M  V30 21 C 6.092758 5.494449 -15.316569 0
M  V30 22 C 5.945616 7.230245 -12.713347 0
M  V30 23 C 10.411462 5.668854 -12.371200 0 CFG=2
M  V30 24 C 8.503606 4.765742 -13.111028 0 CFG=2
M  V30 25 O 12.993148 7.590462 -3.075990 0
M  V30 26 O 4.975434 5.989448 -15.370880 0
M  V30 27 C 12.106024 9.504665 -4.292264 0
M  V30 28 C 6.880347 4.142730 -20.597193 0
M  V30 29 C 7.074262 6.779685 -18.621471 0
M  V30 30 O 12.345572 9.192757 -5.657013 0
M  V30 31 C 11.351602 8.850629 -6.486395 0
M  V30 32 N 6.920616 7.992119 -11.985052 0 CHG=1
M  V30 33 O 10.164762 8.791072 -6.179141 0
M  V30 34 H 5.490032 7.050786 -17.320007 0
M  V30 35 H 6.800094 8.027200 -16.784155 0
M  V30 36 H 8.037057 7.435045 -13.601155 0
M  V30 37 H 11.424465 6.790179 -9.922456 0
M  V30 38 H 10.066617 6.587280 -8.843279 0
M  V30 39 H 9.851340 9.061315 -8.668366 0
M  V30 40 H 11.179029 9.260586 -9.789055 0
M  V30 41 H 10.047626 7.852298 -11.472043 0
M  V30 42 H 9.371931 5.217495 -10.553589 0
M  V30 43 H 8.669904 4.942192 -17.559172 0
M  V30 44 H 11.162076 7.542985 -3.972104 0
M  V30 45 H 11.376050 8.561873 -2.513289 0
M  V30 46 H 7.283922 5.339681 -11.426090 0
M  V30 47 H 11.864572 6.458746 -13.342713 0
M  V30 48 H 12.672439 9.190245 -8.131836 0
M  V30 49 H 12.271012 7.518833 -7.866155 0
M  V30 50 H 9.095106 2.613289 -13.150587 0
M  V30 51 H 7.520258 2.937065 -12.296292 0
M  V30 52 H 4.408307 4.398503 -13.589341 0
M  V30 53 H 5.373238 2.938743 -13.556817 0
M  V30 54 H 5.663813 4.234674 -12.415881 0
M  V30 55 H 8.329833 3.846605 -15.115357 0
M  V30 56 H 8.047353 6.272196 -15.784895 0
M  V30 57 H 5.426056 7.843212 -13.443895 0
M  V30 58 H 5.336650 6.672716 -12.006012 0
M  V30 59 H 10.975896 4.833768 -11.985072 0
M  V30 60 H 13.417478 7.264112 -3.854259 0
M  V30 61 H 11.283580 10.222660 -4.215166 0
M  V30 62 H 12.992472 9.989724 -3.892046 0
M  V30 63 H 7.457165 3.724667 -21.421653 0
M  V30 64 H 6.402075 3.311460 -20.076815 0
M  V30 65 H 6.106472 4.781959 -21.022699 0
M  V30 66 H 6.473422 7.266969 -19.388646 0
M  V30 67 H 8.115958 7.072854 -18.754596 0
M  V30 68 H 6.975814 7.813306 -10.970342 0
M  V30 69 H 7.068428 8.935300 -12.307931 0
M  V30 END ATOM
M  V30 BEGIN BOND
M  V30 1 1 8 6
M  V30 2 1 9 6
M  V30 3 1 10 9
M  V30 4 1 11 4
M  V30 5 1 11 7
M  V30 6 1 13 3
M  V30 7 1 13 10
M  V30 8 1 15 4
M  V30 9 1 16 8
M  V30 10 1 18 1
M  V30 11 1 19 1
M  V30 12 1 19 17
M  V30 13 1 20 2
M  V30 14 1 20 11
M  V30 15 1 21 1
M  V30 16 1 21 20
M  V30 17 1 22 3
M  V30 18 1 23 5
M  V30 19 1 23 10
M  V30 20 1 23 14
M  V30 21 1 24 5 CFG=3
M  V30 22 1 24 13
M  V30 23 1 24 17
M  V30 24 1 24 19
M  V30 25 1 25 12
M  V30 26 2 26 21
M  V30 27 1 27 12
M  V30 28 1 28 15
M  V30 29 1 29 2
M  V30 30 1 29 4
M  V30 31 1 30 27
M  V30 32 1 31 16
M  V30 33 1 31 30
M  V30 34 1 32 3
M  V30 35 1 32 22
M  V30 36 2 33 31
M  V30 37 1 34 2
M  V30 38 1 35 2
M  V30 39 1 3 36 CFG=3
M  V30 40 1 37 6
M  V30 41 1 38 6
M  V30 42 1 39 8
M  V30 43 1 40 8
M  V30 44 1 41 9
M  V30 45 1 10 42 CFG=1
M  V30 46 1 11 43 CFG=3
M  V30 47 1 44 12
M  V30 48 1 45 12
M  V30 49 1 13 46 CFG=1
M  V30 50 1 47 14
M  V30 51 1 48 16
M  V30 52 1 49 16
M  V30 53 1 50 17
M  V30 54 1 51 17
M  V30 55 1 52 18
M  V30 56 1 53 18
M  V30 57 1 54 18
M  V30 58 1 19 55 CFG=3
M  V30 59 1 20 56 CFG=1
M  V30 60 1 57 22
M  V30 61 1 58 22
M  V30 62 1 23 59 CFG=1
M  V30 63 1 60 25
M  V30 64 1 61 27
M  V30 65 1 62 27
M  V30 66 1 63 28
M  V30 67 1 64 28
M  V30 68 1 65 28
M  V30 69 1 66 29
M  V30 70 1 67 29
M  V30 71 1 68 32
M  V30 72 1 69 32
M  V30 END BOND
M  V30 END CTAB
M  END
>  <i_epik_Tot_Q>  (1) 
1

>  <i_epik_Tot_abs_Q>  (1) 
1

>  <i_i_glide_confnum>  (1) 
4793

>  <i_i_glide_lignum>  (1) 
38

>  <i_i_glide_posenum>  (1) 
232

>  <i_i_glide_rotatable_bonds>  (1) 
15

>  <i_lp_mmshare_version>  (1) 
72125

>  <i_m_source_file_index>  (1) 
9

>  <i_f3d_flags>  (1) 
0

>  <num_sample>  (1) 
50

>  <b_lp_Chiralities_Consistent>  (1) 
1

>  <r_epik_Charging_Adjusted_Penalty>  (1) 
1.2103720943885907

>  <r_epik_Ionization_Penalty>  (1) 
0.55446808147534954

>  <r_epik_Ionization_Penalty_Charging>  (1) 
0.13553905892425583

>  <r_epik_Ionization_Penalty_Neutral>  (1) 
0.41892902255109377

>  <r_epik_State_Penalty>  (1) 
1.074833035464335

>  <r_glide_ring_energy>  (1) 
0

>  <r_i_docking_score>  (1) 
-2.6078700970881568

>  <r_i_glide_ecoul>  (1) 
-6.24009894551744

>  <r_i_glide_eff_state_penalty>  (1) 
1.074833035464335

>  <r_i_glide_einternal>  (1) 
66.268745472852359

>  <r_i_glide_emodel>  (1) 
2.4969465454947795

>  <r_i_glide_emodel_strain>  (1) 
8.5327021593278829

>  <r_i_glide_energy>  (1) 
-28.561778073210078

>  <r_i_glide_erotb>  (1) 
1.0741905119875848

>  <r_i_glide_esite>  (1) 
-0.10000000000000001

>  <r_i_glide_evdw>  (1) 
-22.321679127692637

>  <r_i_glide_gscore>  (1) 
-3.6827031325524917

>  <r_i_glide_gscore_strain>  (1) 
1.1331755398319707

>  <r_i_glide_hbond>  (1) 
-0.21856006778190512

>  <r_i_glide_ligand_efficiency>  (1) 
-0.079026366578428986

>  <r_i_glide_ligand_efficiency_ln>  (1) 
-0.57997680676369923

>  <r_i_glide_ligand_efficiency_sa>  (1) 
-0.25347978377514585

>  <r_i_glide_lipo>  (1) 
-1.9394009088582491

>  <r_i_glide_metal>  (1) 
-0

>  <r_i_glide_rewards>  (1) 
-1.5800094095196455

>  <r_lp_Energy>  (1) 
41.909411999999996

>  <s_epik_Chemistry_Notes>  (1) 
This compound has an ester and may undergo hydrolysis at high or low pH. This compound contains an acetal/aminal-like group ( X-CH(R)-Y where X, Y are N, S, or O) that may be acid/base labile, releasing an aldehyde. This compound has a N-S or N-O group and may undergo hydrolysis at high or low pH.

>  <s_epik_cmdline>  (1) 
J2VwaWtfcHl0aG9uJywgJy1waHQnLCAnMS4wJywgJy1waCcsICc3LjQnLCAnLXRuJywgJzgnLCAnLW1hJywgJzUwMCcsICctaW1hZScsICc8aW5maWxlLm1hZT4nLCAnLW9tYWUnLCAnPG91dGZpbGUubWFlPic=

>  <s_epik_input>  (1) 
W0NIM11PTjFbQ0BIXShGKVtDQEBIXShbQ0gyXVtDSDJdMSlDKD1PKU4oW0NIM10pW0NASF0yW0NIMl1DMjNPW0NAQEhdKFtPSF0pW0NASF0oW0NASF0zW0NASF00W0NIMl1bTkhdNClbTkhdW0NIMl1bQ0gyXVtDSDJdQyg9TylPW0NIMl1bQ0gyXVtPSF0=

>  <s_glide_docking_method>  (1) 
confgen

>  <s_i_glide_gridfile>  (1) 
gpcr_drd2_6luq_protein_autoprepared_prepared

>  <s_lp_Force_Field>  (1) 
S-OPLS

>  <s_lp_Variant>  (1) 
DiffSBDD_8-7

>  <s_m_source_file>  (1) 
generated_generic_title2_ligand_DiffSBDD_2026-06-23_prepared.sdf

>  <GenAI_Model>  (1) 
DiffSBDD

>  <Protein>  (1) 
generic_title2

$$$$
DiffSBDD_5
     RDKit          3D

  0  0  0  0  0  0  0  0  0  0999 V3000
M  V30 BEGIN CTAB
M  V30 COUNTS 64 67 0 0 1
M  V30 BEGIN ATOM
M  V30 1 C 9.890636 6.903871 -10.206055 0 CFG=1
M  V30 2 N 7.881440 3.339692 -13.195292 0
M  V30 3 C 6.303039 6.440785 -12.766651 0
M  V30 4 C 10.192851 6.831236 -8.707983 0
M  V30 5 C 7.064948 1.112541 -14.238166 0 CFG=2
M  V30 6 N 8.858779 5.938721 -10.629739 0
M  V30 7 C 7.646360 4.292470 -12.065127 0 CFG=1
M  V30 8 O 8.975457 8.525629 -11.686486 0 CHG=-1
M  V30 9 C 9.365451 6.509571 -7.714320 0
M  V30 10 C 8.860759 5.217288 -11.770673 0
M  V30 11 C 10.306770 1.791076 -19.408665 0
M  V30 12 O 7.541517 4.009877 -14.438091 0
M  V30 13 C 11.157367 7.306674 -6.296657 0 CFG=1
M  V30 14 C 9.375400 8.315849 -10.517022 0
M  V30 15 C 8.009704 2.932430 -17.586731 0
M  V30 16 C 8.151805 0.709996 -16.387830 0
M  V30 17 C 9.694122 6.825910 -6.281700 0
M  V30 18 O 10.946060 3.857090 -20.463510 0 CHG=-1
M  V30 19 C 10.419435 5.609823 -18.546445 0
M  V30 20 O 10.818244 3.777431 -17.221650 0
M  V30 21 O 8.575303 -0.426329 -16.171340 0
M  V30 22 C 8.614471 4.025175 -18.042285 0
M  V30 23 C 8.658546 1.617350 -17.440292 0
M  V30 24 O 9.375574 9.162770 -9.585915 0
M  V30 25 S 11.628955 7.590310 -8.032678 0
M  V30 26 C 10.059572 4.106962 -18.376262 0 CFG=1
M  V30 27 C 6.258847 5.023544 -12.153695 0
M  V30 28 C 7.978219 0.795348 -13.132540 0
M  V30 29 Cl 11.375289 8.780908 -5.314087 0
M  V30 30 C 6.108713 0.427389 -14.981981 0
M  V30 31 C 5.563098 5.070315 -10.785007 0
M  V30 32 C 9.672164 1.133140 -18.235851 0
M  V30 33 N 7.166607 1.268834 -15.656124 0
M  V30 34 O 9.778729 5.287483 -12.581371 0
M  V30 35 C 7.092800 2.104192 -13.123563 0 CFG=1
M  V30 36 C 10.455265 3.174869 -19.533265 0
M  V30 37 H 10.819692 6.790242 -10.763089 0
M  V30 38 H 6.755634 7.160638 -12.084622 0
M  V30 39 H 6.871166 6.469701 -13.696576 0
M  V30 40 H 5.300212 6.805914 -12.985230 0
M  V30 41 H 8.009748 5.962589 -10.081282 0
M  V30 42 H 7.615452 3.660769 -11.184798 0
M  V30 43 H 8.377339 6.128585 -7.925431 0
M  V30 44 H 10.674579 1.159055 -20.202840 0
M  V30 45 H 6.638285 4.244413 -14.293826 0
M  V30 46 H 11.789555 6.523376 -5.882593 0
M  V30 47 H 6.972892 3.024820 -17.301913 0
M  V30 48 H 9.023670 7.631772 -5.985014 0
M  V30 49 H 9.532994 5.990224 -5.607608 0
M  V30 50 H 9.898721 6.052582 -19.396144 0
M  V30 51 H 10.145243 6.183436 -17.660099 0
M  V30 52 H 11.489640 5.753163 -18.701173 0
M  V30 53 H 10.237525 3.782833 -16.477162 0
M  V30 54 H 8.051895 4.944632 -18.118237 0
M  V30 55 H 5.593109 4.436755 -12.787587 0
M  V30 56 H 9.044290 0.896421 -13.320552 0
M  V30 57 H 7.694086 0.003532 -12.442965 0
M  V30 58 H 6.203938 -0.655446 -15.052192 0
M  V30 59 H 5.087070 0.790188 -14.975567 0
M  V30 60 H 6.170315 5.590539 -10.045439 0
M  V30 61 H 4.606125 5.590211 -10.837329 0
M  V30 62 H 5.375971 4.066464 -10.400794 0
M  V30 63 H 10.000176 0.122856 -18.035786 0
M  V30 64 H 6.197937 2.084027 -12.503588 0
M  V30 END ATOM
M  V30 BEGIN BOND
M  V30 1 1 4 1
M  V30 2 1 6 1
M  V30 3 1 7 2
M  V30 4 2 9 4
M  V30 5 1 10 6
M  V30 6 1 10 7
M  V30 7 1 12 2
M  V30 8 1 14 1
M  V30 9 1 14 8
M  V30 10 1 17 9
M  V30 11 1 17 13
M  V30 12 2 21 16
M  V30 13 2 22 15
M  V30 14 1 23 15
M  V30 15 1 23 16
M  V30 16 2 24 14
M  V30 17 1 25 4
M  V30 18 1 25 13
M  V30 19 1 26 19
M  V30 20 1 26 20 CFG=1
M  V30 21 1 26 22
M  V30 22 1 27 3
M  V30 23 1 27 7
M  V30 24 1 28 5
M  V30 25 1 29 13
M  V30 26 1 30 5
M  V30 27 1 31 27
M  V30 28 1 32 11
M  V30 29 2 32 23
M  V30 30 1 5 33 CFG=3
M  V30 31 1 33 16
M  V30 32 1 33 30
M  V30 33 2 34 10
M  V30 34 1 35 2
M  V30 35 1 35 5
M  V30 36 1 35 28
M  V30 37 2 36 11
M  V30 38 1 36 18
M  V30 39 1 36 26
M  V30 40 1 1 37 CFG=3
M  V30 41 1 38 3
M  V30 42 1 39 3
M  V30 43 1 40 3
M  V30 44 1 41 6
M  V30 45 1 7 42 CFG=1
M  V30 46 1 43 9
M  V30 47 1 44 11
M  V30 48 1 45 12
M  V30 49 1 13 46 CFG=1
M  V30 50 1 47 15
M  V30 51 1 48 17
M  V30 52 1 49 17
M  V30 53 1 50 19
M  V30 54 1 51 19
M  V30 55 1 52 19
M  V30 56 1 53 20
M  V30 57 1 54 22
M  V30 58 1 55 27
M  V30 59 1 56 28
M  V30 60 1 57 28
M  V30 61 1 58 30
M  V30 62 1 59 30
M  V30 63 1 60 31
M  V30 64 1 61 31
M  V30 65 1 62 31
M  V30 66 1 63 32
M  V30 67 1 35 64 CFG=1
M  V30 END BOND
M  V30 END CTAB
M  END
>  <i_epik_Tot_Q>  (1) 
-2

>  <i_epik_Tot_abs_Q>  (1) 
2

>  <i_i_glide_confnum>  (1) 
254

>  <i_i_glide_lignum>  (1) 
29

>  <i_i_glide_posenum>  (1) 
326

>  <i_i_glide_rotatable_bonds>  (1) 
12

>  <i_lp_mmshare_version>  (1) 
72125

>  <i_m_source_file_index>  (1) 
6

>  <i_f3d_flags>  (1) 
0

>  <num_sample>  (1) 
50

>  <b_lp_Chiralities_Consistent>  (1) 
1

>  <r_epik_Charging_Adjusted_Penalty>  (1) 
2.4843421674805191

>  <r_epik_Ionization_Penalty>  (1) 
1.2439101461513797

>  <r_epik_Ionization_Penalty_Charging>  (1) 
1.2421750937233493

>  <r_epik_Ionization_Penalty_Neutral>  (1) 
0.0017350524280304977

>  <r_epik_State_Penalty>  (1) 
1.2421670737571699

>  <r_glide_ring_energy>  (1) 
0

>  <r_i_docking_score>  (1) 
-2.5424521382081395

>  <r_i_glide_ecoul>  (1) 
1.5691999200904907

>  <r_i_glide_eff_state_penalty>  (1) 
1.2421670737571699

>  <r_i_glide_einternal>  (1) 
15.572100930170187

>  <r_i_glide_emodel>  (1) 
-33.260697926776174

>  <r_i_glide_emodel_strain>  (1) 
1.7763104342910196

>  <r_i_glide_energy>  (1) 
-36.826652652547565

>  <r_i_glide_erotb>  (1) 
0.49960406782581518

>  <r_i_glide_esite>  (1) 
-0.16828733249323885

>  <r_i_glide_evdw>  (1) 
-38.395852572638056

>  <r_i_glide_gscore>  (1) 
-3.7846192119653095

>  <r_i_glide_gscore_strain>  (1) 
0

>  <r_i_glide_hbond>  (1) 
-0.033561433073408142

>  <r_i_glide_ligand_efficiency>  (1) 
-0.070623670505781652

>  <r_i_glide_ligand_efficiency_ln>  (1) 
-0.55469436743824752

>  <r_i_glide_ligand_efficiency_sa>  (1) 
-0.23319422205999624

>  <r_i_glide_lipo>  (1) 
-1.9119787272199853

>  <r_i_glide_metal>  (1) 
-0

>  <r_i_glide_rewards>  (1) 
-0.48598314638616325

>  <r_lp_Energy>  (1) 
60.102664999999995

>  <s_epik_Chemistry_Notes>  (1) 
This compound has a N-S or N-O group and may undergo hydrolysis at high or low pH.

>  <s_epik_cmdline>  (1) 
J2VwaWtfcHl0aG9uJywgJy1waHQnLCAnMS4wJywgJy1waCcsICc3LjQnLCAnLXRuJywgJzgnLCAnLW1hJywgJzUwMCcsICctaW1hZScsICc8aW5maWxlLm1hZT4nLCAnLW9tYWUnLCAnPG91dGZpbGUubWFlPic=

>  <s_epik_input>  (1) 
UzFbQ0BASF0oQ2wpW0NIMl1bQ0hdPUMxW0NASF0oQyg9TylbT0hdKVtOSF1DKD1PKVtDQEBIXShbQ0hdKFtDSDNdKVtDSDNdKU4oW09IXSlbQ0hdMltDSDJdQzIzW0NIMl1OM0MoPU8pQyhbQ0hdPVtDSF1bQ0BAXTQoW0NIM10pW09IXSk9W0NIXVtDSF09QzRbT0hd

>  <s_glide_docking_method>  (1) 
confgen

>  <s_i_glide_gridfile>  (1) 
gpcr_drd2_6luq_protein_autoprepared_prepared

>  <s_lp_Force_Field>  (1) 
S-OPLS

>  <s_lp_Variant>  (1) 
DiffSBDD_5-2

>  <s_m_source_file>  (1) 
generated_generic_title2_ligand_DiffSBDD_2026-06-23_prepared.sdf

>  <GenAI_Model>  (1) 
DiffSBDD

>  <Protein>  (1) 
generic_title2

$$$$
DiffSBDD_8
     RDKit          3D

  0  0  0  0  0  0  0  0  0  0999 V3000
M  V30 BEGIN CTAB
M  V30 COUNTS 70 73 0 0 1
M  V30 BEGIN ATOM
M  V30 1 N 6.557032 4.703250 -15.313670 0
M  V30 2 C 5.589551 7.874306 -17.206261 0
M  V30 3 C 8.687262 5.189356 -13.206881 0 CFG=1
M  V30 4 N 5.712284 6.773075 -19.300690 0
M  V30 5 O 6.807106 3.615793 -11.612996 0
M  V30 6 C 8.984645 6.112588 -8.868495 0
M  V30 7 F 6.190506 4.654605 -18.630144 0
M  V30 8 C 9.786444 7.221801 -8.179584 0
M  V30 9 N 8.774501 6.390221 -10.317523 0 CHG=1
M  V30 10 C 7.621040 5.656709 -10.911161 0 CFG=1
M  V30 11 C 5.620476 5.789670 -18.234516 0 CFG=1
M  V30 12 C 11.645186 9.508188 -3.271283 0
M  V30 13 C 7.479845 5.671214 -12.427726 0 CFG=2
M  V30 14 O 9.060383 3.810991 -10.891494 0
M  V30 15 O 4.738213 6.376422 -20.280348 0
M  V30 16 C 10.015302 6.934859 -6.679367 0
M  V30 17 C 5.122969 4.420620 -13.102877 0
M  V30 18 C 7.432450 3.961360 -16.233567 0
M  V30 19 C 6.231912 3.993591 -14.064434 0 CFG=2
M  V30 20 C 6.297644 6.507560 -17.055174 0 CFG=2
M  V30 21 C 6.038837 5.939637 -15.635816 0
M  V30 22 C 9.016092 5.955418 -14.393952 0
M  V30 23 C 7.701567 4.190548 -10.683289 0 CFG=2
M  V30 24 C 6.557111 4.521726 -12.669060 0 CFG=2
M  V30 25 O 10.975411 10.390181 -4.149413 0
M  V30 26 O 5.375457 6.597985 -14.847346 0
M  V30 27 C 12.292121 8.370055 -4.069223 0
M  V30 28 C 5.367593 6.446886 -21.545563 0
M  V30 29 C 5.197372 7.989172 -18.690182 0
M  V30 30 O 11.360272 7.560718 -4.785356 0
M  V30 31 C 10.984905 7.923192 -6.033702 0
M  V30 32 N 9.865091 5.990216 -13.185046 0 CHG=1
M  V30 33 O 11.371314 8.936387 -6.620504 0
M  V30 34 H 4.643193 7.919040 -16.666953 0
M  V30 35 H 6.175682 8.692403 -16.785067 0
M  V30 36 H 8.934540 4.128087 -13.256990 0
M  V30 37 H 9.510727 5.164992 -8.746111 0
M  V30 38 H 8.027677 5.990556 -8.360787 0
M  V30 39 H 9.260302 8.172143 -8.288660 0
M  V30 40 H 10.748348 7.331103 -8.684333 0
M  V30 41 H 8.491963 7.366576 -10.351031 0
M  V30 42 H 6.685041 5.990200 -10.460968 0
M  V30 43 H 4.575562 5.589961 -18.006192 0
M  V30 44 H 12.445485 10.035507 -2.757548 0
M  V30 45 H 10.975871 9.179669 -2.481610 0
M  V30 46 H 7.075550 6.611049 -12.802489 0
M  V30 47 H 9.125105 2.867721 -10.783881 0
M  V30 48 H 10.422039 5.933819 -6.548596 0
M  V30 49 H 9.068458 6.962437 -6.136207 0
M  V30 50 H 4.505708 3.589737 -12.785331 0
M  V30 51 H 4.575685 5.339760 -13.189464 0
M  V30 52 H 8.001926 4.577048 -16.924946 0
M  V30 53 H 8.176162 3.401988 -15.665439 0
M  V30 54 H 6.879659 3.215253 -16.800894 0
M  V30 55 H 6.337102 2.913772 -14.146657 0
M  V30 56 H 7.362614 6.626315 -17.243034 0
M  V30 57 H 9.558432 5.509799 -15.223592 0
M  V30 58 H 8.340709 6.790289 -14.576632 0
M  V30 59 H 7.404214 3.990091 -9.654216 0
M  V30 60 H 11.338122 10.280784 -5.019633 0
M  V30 61 H 13.037235 8.790467 -4.743708 0
M  V30 62 H 12.837308 7.718335 -3.385349 0
M  V30 63 H 4.662356 6.150430 -22.321184 0
M  V30 64 H 5.697382 7.462966 -21.765253 0
M  V30 65 H 6.229615 5.780391 -21.601941 0
M  V30 66 H 4.108856 8.014644 -18.780118 0
M  V30 67 H 5.590149 8.876478 -19.185036 0
M  V30 68 H 9.855312 6.924498 -12.803362 0
M  V30 69 H 9.630056 6.198910 -10.810444 0
M  V30 70 H 10.747093 5.514027 -13.353005 0
M  V30 END ATOM
M  V30 BEGIN BOND
M  V30 1 1 8 6
M  V30 2 1 9 6
M  V30 3 1 10 9
M  V30 4 1 11 4
M  V30 5 1 11 7
M  V30 6 1 13 3
M  V30 7 1 13 10
M  V30 8 1 15 4
M  V30 9 1 16 8
M  V30 10 1 18 1
M  V30 11 1 19 1
M  V30 12 1 19 17
M  V30 13 1 20 2
M  V30 14 1 20 11
M  V30 15 1 21 1
M  V30 16 1 21 20
M  V30 17 1 22 3
M  V30 18 1 23 5
M  V30 19 1 23 10
M  V30 20 1 23 14
M  V30 21 1 24 5 CFG=1
M  V30 22 1 24 13
M  V30 23 1 24 17
M  V30 24 1 24 19
M  V30 25 1 25 12
M  V30 26 2 26 21
M  V30 27 1 27 12
M  V30 28 1 28 15
M  V30 29 1 29 2
M  V30 30 1 29 4
M  V30 31 1 30 27
M  V30 32 1 31 16
M  V30 33 1 31 30
M  V30 34 1 32 3
M  V30 35 1 32 22
M  V30 36 2 33 31
M  V30 37 1 34 2
M  V30 38 1 35 2
M  V30 39 1 3 36 CFG=3
M  V30 40 1 37 6
M  V30 41 1 38 6
M  V30 42 1 39 8
M  V30 43 1 40 8
M  V30 44 1 41 9
M  V30 45 1 10 42 CFG=1
M  V30 46 1 11 43 CFG=1
M  V30 47 1 44 12
M  V30 48 1 45 12
M  V30 49 1 13 46 CFG=3
M  V30 50 1 47 14
M  V30 51 1 48 16
M  V30 52 1 49 16
M  V30 53 1 50 17
M  V30 54 1 51 17
M  V30 55 1 52 18
M  V30 56 1 53 18
M  V30 57 1 54 18
M  V30 58 1 19 55 CFG=3
M  V30 59 1 20 56 CFG=3
M  V30 60 1 57 22
M  V30 61 1 58 22
M  V30 62 1 23 59 CFG=1
M  V30 63 1 60 25
M  V30 64 1 61 27
M  V30 65 1 62 27
M  V30 66 1 63 28
M  V30 67 1 64 28
M  V30 68 1 65 28
M  V30 69 1 66 29
M  V30 70 1 67 29
M  V30 71 1 68 32
M  V30 72 1 69 9
M  V30 73 1 70 32
M  V30 END BOND
M  V30 END CTAB
M  END
>  <i_epik_Tot_Q>  (1) 
2

>  <i_epik_Tot_abs_Q>  (1) 
2

>  <i_i_glide_confnum>  (1) 
1688

>  <i_i_glide_lignum>  (1) 
43

>  <i_i_glide_posenum>  (1) 
322

>  <i_i_glide_rotatable_bonds>  (1) 
15

>  <i_lp_mmshare_version>  (1) 
72125

>  <i_m_source_file_index>  (1) 
9

>  <i_f3d_flags>  (1) 
0

>  <num_sample>  (1) 
50

>  <b_lp_Chiralities_Consistent>  (1) 
1

>  <r_epik_Charging_Adjusted_Penalty>  (1) 
2.8797985042560583

>  <r_epik_Ionization_Penalty>  (1) 
1.6442763990741283

>  <r_epik_Ionization_Penalty_Charging>  (1) 
1.6439676131770962

>  <r_epik_Ionization_Penalty_Neutral>  (1) 
0.00030878589703216643

>  <r_epik_State_Penalty>  (1) 
1.2358308910789622

>  <r_glide_ring_energy>  (1) 
0

>  <r_i_docking_score>  (1) 
-2.5271546736481123

>  <r_i_glide_ecoul>  (1) 
-12.073448044639594

>  <r_i_glide_eff_state_penalty>  (1) 
1.2358308910789622

>  <r_i_glide_einternal>  (1) 
9.2640914600530948

>  <r_i_glide_emodel>  (1) 
-14.697769963996265

>  <r_i_glide_emodel_strain>  (1) 
10.084241118895761

>  <r_i_glide_energy>  (1) 
-16.907733374535326

>  <r_i_glide_erotb>  (1) 
1.0700444368793263

>  <r_i_glide_esite>  (1) 
-0.11609979270529887

>  <r_i_glide_evdw>  (1) 
-4.8342853298957298

>  <r_i_glide_gscore>  (1) 
-3.7629855647270745

>  <r_i_glide_gscore_strain>  (1) 
1.5210602797239403

>  <r_i_glide_hbond>  (1) 
-0.20972796983556313

>  <r_i_glide_ligand_efficiency>  (1) 
-0.076580444656003402

>  <r_i_glide_ligand_efficiency_ln>  (1) 
-0.5620261145127291

>  <r_i_glide_ligand_efficiency_sa>  (1) 
-0.24563440524047636

>  <r_i_glide_lipo>  (1) 
-2.0659174759576517

>  <r_i_glide_metal>  (1) 
-0

>  <r_i_glide_rewards>  (1) 
-1.9096135696411021

>  <r_lp_Energy>  (1) 
51.457698000000001

>  <s_epik_Chemistry_Notes>  (1) 
This compound has an ester and may undergo hydrolysis at high or low pH. This compound contains an acetal/aminal-like group ( X-CH(R)-Y where X, Y are N, S, or O) that may be acid/base labile, releasing an aldehyde. This compound has a N-S or N-O group and may undergo hydrolysis at high or low pH.

>  <s_epik_cmdline>  (1) 
J2VwaWtfcHl0aG9uJywgJy1waHQnLCAnMS4wJywgJy1waCcsICc3LjQnLCAnLXRuJywgJzgnLCAnLW1hJywgJzUwMCcsICctaW1hZScsICc8aW5maWxlLm1hZT4nLCAnLW9tYWUnLCAnPG91dGZpbGUubWFlPic=

>  <s_epik_input>  (1) 
W0NIM11PTjFbQ0BIXShGKVtDQEBIXShbQ0gyXVtDSDJdMSlDKD1PKU4oW0NIM10pW0NASF0yW0NIMl1DMjNPW0NAQEhdKFtPSF0pW0NASF0oW0NASF0zW0NASF00W0NIMl1bTkhdNClbTkhdW0NIMl1bQ0gyXVtDSDJdQyg9TylPW0NIMl1bQ0gyXVtPSF0=

>  <s_glide_docking_method>  (1) 
confgen

>  <s_i_glide_gridfile>  (1) 
gpcr_drd2_6luq_protein_autoprepared_prepared

>  <s_lp_Force_Field>  (1) 
S-OPLS

>  <s_lp_Variant>  (1) 
DiffSBDD_8-12

>  <s_m_source_file>  (1) 
generated_generic_title2_ligand_DiffSBDD_2026-06-23_prepared.sdf

>  <GenAI_Model>  (1) 
DiffSBDD

>  <Protein>  (1) 
generic_title2

$$$$
DiffSBDD_5
     RDKit          3D

  0  0  0  0  0  0  0  0  0  0999 V3000
M  V30 BEGIN CTAB
M  V30 COUNTS 64 67 0 0 1
M  V30 BEGIN ATOM
M  V30 1 C 7.378971 1.262357 -17.692080 0 CFG=1
M  V30 2 N 7.614989 4.119500 -14.107417 0
M  V30 3 C 5.946531 0.871354 -12.705406 0
M  V30 4 C 6.466905 0.068616 -17.937605 0
M  V30 5 C 6.901471 6.295531 -13.043072 0 CFG=2
M  V30 6 N 6.975369 1.929844 -16.447072 0
M  V30 7 C 6.915155 2.788521 -14.143510 0 CFG=1
M  V30 8 O 9.252474 -0.238031 -17.986327 0 CHG=-1
M  V30 9 C 6.293431 -1.012117 -17.178291 0
M  V30 10 C 7.426997 1.762795 -15.190123 0
M  V30 11 C 9.837413 5.522589 -8.373976 0
M  V30 12 O 8.399385 4.321598 -15.319663 0
M  V30 13 C 4.687911 -1.632786 -18.889013 0 CFG=1
M  V30 14 C 8.888271 0.946483 -17.808279 0
M  V30 15 C 10.657861 7.854482 -10.297753 0
M  V30 16 C 8.617284 7.305294 -11.629863 0
M  V30 17 C 5.332486 -2.104540 -17.562461 0
M  V30 18 O 11.307491 6.090775 -6.546727 0 CHG=-1
M  V30 19 C 11.453732 8.715917 -6.772083 0
M  V30 20 O 9.375421 8.389605 -7.695581 0
M  V30 21 O 8.775976 8.271161 -12.379900 0
M  V30 22 C 11.221491 8.195354 -9.147001 0
M  V30 23 C 9.470408 7.014359 -10.441555 0
M  V30 24 O 9.659763 1.929842 -17.749027 0
M  V30 25 S 5.410213 -0.013245 -19.330959 0
M  V30 26 C 10.677049 7.860381 -7.815862 0 CFG=1
M  V30 27 C 6.780002 2.175730 -12.728112 0
M  V30 28 C 7.154848 6.682093 -14.439334 0
M  V30 29 Cl 4.975369 -2.824304 -20.183433 0
M  V30 30 C 6.180709 6.884913 -12.013575 0
M  V30 31 C 6.175373 3.190299 -11.729507 0
M  V30 32 C 9.107844 5.990202 -9.580771 0
M  V30 33 N 7.598066 6.431455 -11.790171 0
M  V30 34 O 8.175428 0.848746 -14.855123 0
M  V30 35 C 6.665112 5.234375 -14.048411 0 CFG=1
M  V30 36 C 10.623486 6.355645 -7.562431 0
M  V30 37 H 7.175324 1.978566 -18.488375 0
M  V30 38 H 4.976453 1.011777 -13.184966 0
M  V30 39 H 6.441638 0.045696 -13.217355 0
M  V30 40 H 5.775126 0.530530 -11.684276 0
M  V30 41 H 6.304647 2.667925 -16.577878 0
M  V30 42 H 5.878733 2.973650 -14.385034 0
M  V30 43 H 6.853395 -1.134925 -16.262367 0
M  V30 44 H 9.755623 4.479617 -8.115108 0
M  V30 45 H 7.758198 4.230288 -16.006369 0
M  V30 46 H 3.608803 -1.525060 -18.777414 0
M  V30 47 H 11.104503 8.234932 -11.185063 0
M  V30 48 H 5.882289 -3.039950 -17.673342 0
M  V30 49 H 4.582715 -2.241035 -16.784329 0
M  V30 50 H 12.515061 8.473756 -6.785098 0
M  V30 51 H 11.375596 9.781946 -6.980830 0
M  V30 52 H 11.080052 8.564244 -5.758393 0
M  V30 53 H 8.783101 7.780767 -8.128148 0
M  V30 54 H 12.102024 8.821091 -9.161333 0
M  V30 55 H 7.784412 1.921854 -12.385051 0
M  V30 56 H 8.175409 6.794270 -14.767205 0
M  V30 57 H 6.438440 7.350783 -14.911666 0
M  V30 58 H 6.005135 7.958968 -12.037529 0
M  V30 59 H 5.411605 6.301542 -11.513221 0
M  V30 60 H 5.350393 3.745980 -12.170928 0
M  V30 61 H 5.775445 2.721949 -10.829701 0
M  V30 62 H 6.926618 3.907777 -11.403846 0
M  V30 63 H 8.229267 5.419404 -9.830181 0
M  V30 64 H 5.625648 5.069874 -14.326110 0
M  V30 END ATOM
M  V30 BEGIN BOND
M  V30 1 1 4 1
M  V30 2 1 6 1
M  V30 3 1 7 2
M  V30 4 2 9 4
M  V30 5 1 10 6
M  V30 6 1 10 7
M  V30 7 1 12 2
M  V30 8 1 14 1
M  V30 9 1 14 8
M  V30 10 1 17 9
M  V30 11 1 17 13
M  V30 12 2 21 16
M  V30 13 2 22 15
M  V30 14 1 23 15
M  V30 15 1 23 16
M  V30 16 2 24 14
M  V30 17 1 25 4
M  V30 18 1 25 13
M  V30 19 1 26 19
M  V30 20 1 26 20 CFG=3
M  V30 21 1 26 22
M  V30 22 1 27 3
M  V30 23 1 27 7
M  V30 24 1 28 5
M  V30 25 1 29 13
M  V30 26 1 30 5
M  V30 27 1 31 27
M  V30 28 1 32 11
M  V30 29 2 32 23
M  V30 30 1 5 33 CFG=1
M  V30 31 1 33 16
M  V30 32 1 33 30
M  V30 33 2 34 10
M  V30 34 1 35 2
M  V30 35 1 35 5
M  V30 36 1 35 28
M  V30 37 2 36 11
M  V30 38 1 36 18
M  V30 39 1 36 26
M  V30 40 1 1 37 CFG=3
M  V30 41 1 38 3
M  V30 42 1 39 3
M  V30 43 1 40 3
M  V30 44 1 41 6
M  V30 45 1 7 42 CFG=3
M  V30 46 1 43 9
M  V30 47 1 44 11
M  V30 48 1 45 12
M  V30 49 1 13 46 CFG=1
M  V30 50 1 47 15
M  V30 51 1 48 17
M  V30 52 1 49 17
M  V30 53 1 50 19
M  V30 54 1 51 19
M  V30 55 1 52 19
M  V30 56 1 53 20
M  V30 57 1 54 22
M  V30 58 1 55 27
M  V30 59 1 56 28
M  V30 60 1 57 28
M  V30 61 1 58 30
M  V30 62 1 59 30
M  V30 63 1 60 31
M  V30 64 1 61 31
M  V30 65 1 62 31
M  V30 66 1 63 32
M  V30 67 1 35 64 CFG=3
M  V30 END BOND
M  V30 END CTAB
M  END
>  <i_epik_Tot_Q>  (1) 
-2

>  <i_epik_Tot_abs_Q>  (1) 
2

>  <i_i_glide_confnum>  (1) 
802

>  <i_i_glide_lignum>  (1) 
29

>  <i_i_glide_posenum>  (1) 
399

>  <i_i_glide_rotatable_bonds>  (1) 
12

>  <i_lp_mmshare_version>  (1) 
72125

>  <i_m_source_file_index>  (1) 
6

>  <i_f3d_flags>  (1) 
0

>  <num_sample>  (1) 
50

>  <b_lp_Chiralities_Consistent>  (1) 
1

>  <r_epik_Charging_Adjusted_Penalty>  (1) 
2.4843421674805191

>  <r_epik_Ionization_Penalty>  (1) 
1.2439101461513797

>  <r_epik_Ionization_Penalty_Charging>  (1) 
1.2421750937233493

>  <r_epik_Ionization_Penalty_Neutral>  (1) 
0.0017350524280304977

>  <r_epik_State_Penalty>  (1) 
1.2421670737571699

>  <r_glide_ring_energy>  (1) 
0

>  <r_i_docking_score>  (1) 
-2.5064799906107731

>  <r_i_glide_ecoul>  (1) 
0.84045840129521587

>  <r_i_glide_eff_state_penalty>  (1) 
1.2421670737571699

>  <r_i_glide_einternal>  (1) 
20.272995324660222

>  <r_i_glide_emodel>  (1) 
-30.104664220471506

>  <r_i_glide_emodel_strain>  (1) 
3.0273166444065112

>  <r_i_glide_energy>  (1) 
-37.329067151719087

>  <r_i_glide_erotb>  (1) 
0.49960406782581518

>  <r_i_glide_esite>  (1) 
-0.19736267356978124

>  <r_i_glide_evdw>  (1) 
-38.169525553014303

>  <r_i_glide_gscore>  (1) 
-3.748647064367943

>  <r_i_glide_gscore_strain>  (1) 
0

>  <r_i_glide_hbond>  (1) 
-0.065760572400456449

>  <r_i_glide_ligand_efficiency>  (1) 
-0.069624444183632589

>  <r_i_glide_ligand_efficiency_ln>  (1) 
-0.54684621668761857

>  <r_i_glide_ligand_efficiency_sa>  (1) 
-0.22989484943907948

>  <r_i_glide_lipo>  (1) 
-1.9967129931472094

>  <r_i_glide_metal>  (1) 
-0

>  <r_i_glide_rewards>  (1) 
-0.20600737561987825

>  <r_lp_Energy>  (1) 
60.102664999999995

>  <s_epik_Chemistry_Notes>  (1) 
This compound has a N-S or N-O group and may undergo hydrolysis at high or low pH.

>  <s_epik_cmdline>  (1) 
J2VwaWtfcHl0aG9uJywgJy1waHQnLCAnMS4wJywgJy1waCcsICc3LjQnLCAnLXRuJywgJzgnLCAnLW1hJywgJzUwMCcsICctaW1hZScsICc8aW5maWxlLm1hZT4nLCAnLW9tYWUnLCAnPG91dGZpbGUubWFlPic=

>  <s_epik_input>  (1) 
UzFbQ0BASF0oQ2wpW0NIMl1bQ0hdPUMxW0NASF0oQyg9TylbT0hdKVtOSF1DKD1PKVtDQEBIXShbQ0hdKFtDSDNdKVtDSDNdKU4oW09IXSlbQ0hdMltDSDJdQzIzW0NIMl1OM0MoPU8pQyhbQ0hdPVtDSF1bQ0BAXTQoW0NIM10pW09IXSk9W0NIXVtDSF09QzRbT0hd

>  <s_glide_docking_method>  (1) 
confgen

>  <s_i_glide_gridfile>  (1) 
gpcr_drd2_6luq_protein_autoprepared_prepared

>  <s_lp_Force_Field>  (1) 
S-OPLS

>  <s_lp_Variant>  (1) 
DiffSBDD_5-2

>  <s_m_source_file>  (1) 
generated_generic_title2_ligand_DiffSBDD_2026-06-23_prepared.sdf

>  <GenAI_Model>  (1) 
DiffSBDD

>  <Protein>  (1) 
generic_title2

$$$$
DiffSBDD_43
     RDKit          3D

  0  0  0  0  0  0  0  0  0  0999 V3000
M  V30 BEGIN CTAB
M  V30 COUNTS 78 82 0 0 1
M  V30 BEGIN ATOM
M  V30 1 N 8.606011 4.532420 -16.400573 0
M  V30 2 C 8.122481 4.459264 -17.797744 0 CFG=1
M  V30 3 C 11.166897 8.980684 -8.648555 0
M  V30 4 C 9.101184 1.842736 -18.908196 0 CFG=1
M  V30 5 C 9.579538 5.570300 -11.534726 0 CFG=2
M  V30 6 Cl 8.975409 8.520033 -11.018118 0
M  V30 7 C 9.026202 -0.716202 -19.242652 0
M  V30 8 C 9.596425 7.123730 -8.016619 0
M  V30 9 N 9.921427 2.984414 -18.581655 0
M  V30 10 C 8.403709 5.879932 -12.517707 0
M  V30 11 C 9.817376 0.551309 -18.952921 0
M  V30 12 O 9.640963 5.546787 -16.319622 0
M  V30 13 C 11.439085 8.419409 -10.054787 0 CFG=1
M  V30 14 C 6.102798 4.950910 -12.683325 0
M  V30 15 C 10.964302 0.461959 -17.999508 0
M  V30 16 C 12.866038 7.991631 -10.247205 0
M  V30 17 C 9.986146 6.546221 -9.382268 0 CFG=1
M  V30 18 O 7.793159 5.590222 -9.786801 0
M  V30 19 C 9.662636 4.160927 -9.315819 0
M  V30 20 C 7.631518 4.870043 -15.357424 0
M  V30 21 C 9.184850 5.443022 -10.013554 0 CFG=1
M  V30 22 C 10.779730 7.973185 -7.548731 0
M  V30 23 C 9.291548 4.284718 -18.818702 0
M  V30 24 C 10.308851 7.494375 -10.502350 0 CFG=1
M  V30 25 C 11.113495 2.899595 -17.921371 0
M  V30 26 N 7.556517 4.693954 -12.823378 0 CFG=1 CHG=1
M  V30 27 O 10.527933 6.615811 -11.589945 0
M  V30 28 C 7.222190 3.192615 -17.880302 0
M  V30 29 C 9.999529 -0.197261 -20.263379 0
M  V30 30 O 10.173209 4.394250 -11.991649 0
M  V30 31 N 11.548729 1.633766 -17.625400 0
M  V30 32 C 7.967086 1.847938 -17.874591 0
M  V30 33 O 11.377905 -0.617341 -17.585803 0
M  V30 34 C 7.318634 5.728179 -18.167949 0
M  V30 35 C 7.906154 4.021068 -14.100543 0
M  V30 36 O 11.745486 3.897424 -17.574996 0
M  V30 37 H 11.992798 9.589899 -8.303129 0
M  V30 38 H 10.295626 9.590210 -8.800396 0
M  V30 39 H 8.662715 2.007097 -19.893637 0
M  V30 40 H 9.277316 -1.609785 -18.682747 0
M  V30 41 H 7.970866 -0.618198 -19.482736 0
M  V30 42 H 9.389767 6.322869 -7.304752 0
M  V30 43 H 8.695000 7.730611 -8.054406 0
M  V30 44 H 8.835536 6.306856 -13.420307 0
M  V30 45 H 7.756510 6.649765 -12.110587 0
M  V30 46 H 10.433706 5.040968 -16.458035 0
M  V30 47 H 11.385187 9.190973 -10.784846 0
M  V30 48 H 5.759103 5.694434 -13.403721 0
M  V30 49 H 5.523449 4.039013 -12.831749 0
M  V30 50 H 5.872197 5.318501 -11.683082 0
M  V30 51 H 13.143704 7.189431 -9.585133 0
M  V30 52 H 12.974824 7.791578 -11.310764 0
M  V30 53 H 13.559018 8.791802 -10.013063 0
M  V30 54 H 10.971851 6.140268 -9.179227 0
M  V30 55 H 7.557301 6.515759 -9.601773 0
M  V30 56 H 10.575361 4.210401 -8.751524 0
M  V30 57 H 8.975376 3.990413 -8.487148 0
M  V30 58 H 9.775414 3.294629 -9.978319 0
M  V30 59 H 7.673696 5.939976 -15.155702 0
M  V30 60 H 6.603963 4.693028 -15.663526 0
M  V30 61 H 11.635329 7.339162 -7.310454 0
M  V30 62 H 10.499420 8.483908 -6.625088 0
M  V30 63 H 8.897390 4.291742 -19.836294 0
M  V30 64 H 9.992365 5.120789 -18.789293 0
M  V30 65 H 6.575816 3.134941 -17.024380 0
M  V30 66 H 6.593931 3.244112 -18.770118 0
M  V30 67 H 9.593671 0.257479 -21.164994 0
M  V30 68 H 10.916550 -0.762637 -20.413958 0
M  V30 69 H 10.769887 4.598862 -12.706182 0
M  V30 70 H 12.376579 1.563035 -17.052816 0
M  V30 71 H 7.250813 1.047705 -18.062596 0
M  V30 72 H 8.369294 1.661945 -16.877247 0
M  V30 73 H 6.969075 5.676732 -19.198119 0
M  V30 74 H 6.434223 5.870354 -17.547624 0
M  V30 75 H 7.931235 6.624526 -18.095082 0
M  V30 76 H 7.384370 3.065697 -14.181479 0
M  V30 77 H 8.959816 3.765619 -14.062264 0
M  V30 78 H 7.784517 4.035608 -12.089952 0
M  V30 END ATOM
M  V30 BEGIN BOND
M  V30 1 1 2 1 CFG=1
M  V30 2 1 9 4
M  V30 3 1 10 5
M  V30 4 1 11 4
M  V30 5 1 11 7
M  V30 6 1 12 1
M  V30 7 1 13 3
M  V30 8 1 15 11
M  V30 9 1 16 13
M  V30 10 1 17 8
M  V30 11 1 20 1
M  V30 12 1 21 5
M  V30 13 1 21 17
M  V30 14 1 21 18 CFG=3
M  V30 15 1 21 19
M  V30 16 1 22 3
M  V30 17 1 22 8
M  V30 18 1 23 2
M  V30 19 1 23 9
M  V30 20 1 24 6 CFG=3
M  V30 21 1 24 13
M  V30 22 1 24 17
M  V30 23 1 25 9
M  V30 24 1 26 10
M  V30 25 1 26 14
M  V30 26 1 27 5
M  V30 27 1 27 24
M  V30 28 1 28 2
M  V30 29 1 29 7
M  V30 30 1 29 11
M  V30 31 1 5 30 CFG=3
M  V30 32 1 31 15
M  V30 33 1 31 25
M  V30 34 1 32 4
M  V30 35 1 32 28
M  V30 36 2 33 15
M  V30 37 1 34 2
M  V30 38 1 35 20
M  V30 39 1 35 26
M  V30 40 2 36 25
M  V30 41 1 37 3
M  V30 42 1 38 3
M  V30 43 1 4 39 CFG=3
M  V30 44 1 40 7
M  V30 45 1 41 7
M  V30 46 1 42 8
M  V30 47 1 43 8
M  V30 48 1 44 10
M  V30 49 1 45 10
M  V30 50 1 46 12
M  V30 51 1 13 47 CFG=3
M  V30 52 1 48 14
M  V30 53 1 49 14
M  V30 54 1 50 14
M  V30 55 1 51 16
M  V30 56 1 52 16
M  V30 57 1 53 16
M  V30 58 1 17 54 CFG=1
M  V30 59 1 55 18
M  V30 60 1 56 19
M  V30 61 1 57 19
M  V30 62 1 58 19
M  V30 63 1 59 20
M  V30 64 1 60 20
M  V30 65 1 61 22
M  V30 66 1 62 22
M  V30 67 1 63 23
M  V30 68 1 64 23
M  V30 69 1 65 28
M  V30 70 1 66 28
M  V30 71 1 67 29
M  V30 72 1 68 29
M  V30 73 1 69 30
M  V30 74 1 70 31
M  V30 75 1 71 32
M  V30 76 1 72 32
M  V30 77 1 73 34
M  V30 78 1 74 34
M  V30 79 1 75 34
M  V30 80 1 76 35
M  V30 81 1 77 35
M  V30 82 1 26 78 CFG=1
M  V30 END BOND
M  V30 END CTAB
M  END
>  <i_epik_Tot_Q>  (1) 
1

>  <i_epik_Tot_abs_Q>  (1) 
1

>  <i_i_glide_confnum>  (1) 
357

>  <i_i_glide_lignum>  (1) 
117

>  <i_i_glide_posenum>  (1) 
365

>  <i_i_glide_rotatable_bonds>  (1) 
9

>  <i_lp_mmshare_version>  (1) 
72125

>  <i_m_source_file_index>  (1) 
44

>  <i_f3d_flags>  (1) 
0

>  <num_sample>  (1) 
50

>  <b_lp_Chiralities_Consistent>  (1) 
1

>  <r_epik_Charging_Adjusted_Penalty>  (1) 
0.34224393187987273

>  <r_epik_Ionization_Penalty>  (1) 
0.17191807241559104

>  <r_epik_Ionization_Penalty_Charging>  (1) 
0.17112196593993639

>  <r_epik_Ionization_Penalty_Neutral>  (1) 
0.00079610647565464391

>  <r_epik_State_Penalty>  (1) 
0.17112196593993634

>  <r_glide_ring_energy>  (1) 
0

>  <r_i_docking_score>  (1) 
-2.5045830906824222

>  <r_i_glide_ecoul>  (1) 
-11.751783474190376

>  <r_i_glide_eff_state_penalty>  (1) 
0.17112196593993634

>  <r_i_glide_einternal>  (1) 
13.914279249724164

>  <r_i_glide_emodel>  (1) 
6.746192261869413

>  <r_i_glide_emodel_strain>  (1) 
7.5583586231697808

>  <r_i_glide_energy>  (1) 
-3.5019134910909333

>  <r_i_glide_erotb>  (1) 
0.44011442581216542

>  <r_i_glide_esite>  (1) 
0

>  <r_i_glide_evdw>  (1) 
8.2498699830994422

>  <r_i_glide_gscore>  (1) 
-2.6757050566223586

>  <r_i_glide_gscore_strain>  (1) 
0.8895896557924452

>  <r_i_glide_hbond>  (1) 
-0.4127712250423109

>  <r_i_glide_ligand_efficiency>  (1) 
-0.06957175251895617

>  <r_i_glide_ligand_efficiency_ln>  (1) 
-0.54643236437156595

>  <r_i_glide_ligand_efficiency_sa>  (1) 
-0.22972086539569481

>  <r_i_glide_lipo>  (1) 
-1.0756187177464054

>  <r_i_glide_metal>  (1) 
-0

>  <r_i_glide_rewards>  (1) 
-1.1667451734646688

>  <r_lp_Energy>  (1) 
45.907455999999996

>  <r_lp_tautomer_probability>  (1) 
0.99999999996150013

>  <s_epik_Chemistry_Notes>  (1) 
This compound has a N-S or N-O group and may undergo hydrolysis at high or low pH.

>  <s_epik_cmdline>  (1) 
J2VwaWtfcHl0aG9uJywgJy1waHQnLCAnMS4wJywgJy1waCcsICc3LjQnLCAnLXRuJywgJzgnLCAnLW1hJywgJzUwMCcsICctaW1hZScsICc8aW5maWxlLm1hZT4nLCAnLW9tYWUnLCAnPG91dGZpbGUubWFlPic=

>  <s_epik_input>  (1) 
W0NIMl0xW0NIMl1DMTJbQ0BASF0zTihDKD1PKVtOSF1DMj1PKVtDSDJdW0NAQF0oW0NIM10pKFtDSDJdW0NIMl0zKU4oW09IXSlbQ0gyXVtDSDJdTihbQ0gzXSlbQ0gyXVtDQF0oTzQpKFtPSF0pW0NAQF0oW09IXSkoW0NIM10pW0NAQEhdKFtDQF00NUNsKVtDSDJdW0NIMl1bQ0gyXVtDQEhdNVtDSDNd

>  <s_glide_docking_method>  (1) 
confgen

>  <s_i_glide_gridfile>  (1) 
gpcr_drd2_6luq_protein_autoprepared_prepared

>  <s_lp_Force_Field>  (1) 
S-OPLS

>  <s_lp_Variant>  (1) 
DiffSBDD_43-1

>  <s_m_source_file>  (1) 
generated_generic_title2_ligand_DiffSBDD_2026-06-23_prepared.sdf

>  <GenAI_Model>  (1) 
DiffSBDD

>  <Protein>  (1) 
generic_title2

$$$$
DiffSBDD_1
     RDKit          3D

  0  0  0  0  0  0  0  0  0  0999 V3000
M  V30 BEGIN CTAB
M  V30 COUNTS 89 91 0 0 1
M  V30 BEGIN ATOM
M  V30 1 O 7.622419 5.314765 -12.816433 0
M  V30 2 O 7.871578 5.190234 -9.115733 0
M  V30 3 C 8.997870 3.279714 -17.549776 0 CFG=2
M  V30 4 C 10.484452 1.186120 -17.864801 0
M  V30 5 C 7.476567 -2.552738 -19.017509 0
M  V30 6 C 11.137133 6.390216 -5.911972 0
M  V30 7 C 5.151756 0.071466 -19.140029 0
M  V30 8 C 9.015079 5.525484 -9.870798 0 CFG=1
M  V30 9 C 10.177986 4.152845 -16.993807 0 CFG=1
M  V30 10 C 7.024818 1.870201 -19.491037 0 CFG=2
M  V30 11 C 10.110143 -0.217776 -18.321280 0
M  V30 12 O 13.505129 5.655112 -18.793314 0 CHG=-1
M  V30 13 C 8.213792 -1.331779 -19.598321 0
M  V30 14 C 8.139494 2.747493 -16.360903 0
M  V30 15 C 8.681362 6.566549 -10.961788 0
M  V30 16 C 5.149932 -1.438752 -19.478445 0
M  V30 17 C 9.478620 2.145578 -18.524297 0 CFG=1
M  V30 18 C 6.022819 -2.317498 -18.556795 0
M  V30 19 C 10.113825 6.006494 -8.891440 0
M  V30 20 C 8.792268 4.653455 -14.854742 0 CFG=2
M  V30 21 C 10.353623 8.753819 -6.115324 0
M  V30 22 F 4.975409 1.887453 -20.527105 0
M  V30 23 C 10.790502 7.514404 -6.895989 0
M  V30 24 C 7.621115 3.872588 -15.459368 0
M  V30 25 C 6.784679 7.588115 -12.380207 0
M  V30 26 F 7.262696 2.876249 -20.337268 0
M  V30 27 O 12.823380 6.081442 -16.409892 0 CHG=-1
M  V30 28 O 13.340017 3.730936 -17.185013 0
M  V30 29 P 12.811020 5.100634 -17.565604 0
M  V30 30 C 9.687021 7.103706 -7.893652 0
M  V30 31 C 7.399806 6.295637 -11.803783 0 CFG=1
M  V30 32 C 8.431531 1.235285 -19.242551 0 CFG=1
M  V30 33 O 7.922997 -0.253590 -17.389938 0
M  V30 34 C 8.335117 5.791395 -13.947385 0
M  V30 35 C 11.057946 4.856465 -18.069600 0
M  V30 36 C 8.601807 -0.178165 -18.628059 0 CFG=2
M  V30 37 C 9.682440 5.206393 -15.980319 0
M  V30 38 C 5.897800 1.014100 -20.121673 0 CFG=2
M  V30 39 H 7.427320 6.016146 -8.922989 0
M  V30 40 H 8.364782 3.952662 -18.128700 0
M  V30 41 H 11.516719 1.443212 -18.107931 0
M  V30 42 H 10.405921 1.227412 -16.785039 0
M  V30 43 H 7.456276 -3.318216 -19.794342 0
M  V30 44 H 8.055215 -2.985945 -18.200687 0
M  V30 45 H 10.238072 5.990214 -5.443851 0
M  V30 46 H 11.660602 5.578313 -6.411729 0
M  V30 47 H 11.778757 6.745020 -5.108017 0
M  V30 48 H 4.103652 0.377185 -19.121765 0
M  V30 49 H 5.477735 0.243687 -18.115061 0
M  V30 50 H 9.356724 4.613244 -10.362004 0
M  V30 51 H 10.838240 3.490454 -16.438156 0
M  V30 52 H 6.612214 2.347311 -18.610578 0
M  V30 53 H 10.678382 -0.410030 -19.231705 0
M  V30 54 H 10.387769 -0.983735 -17.595042 0
M  V30 55 H 7.646249 -0.955249 -20.441319 0
M  V30 56 H 9.115861 -1.705780 -20.083183 0
M  V30 57 H 8.703107 2.046865 -15.750299 0
M  V30 58 H 7.280999 2.173955 -16.690471 0
M  V30 59 H 8.575696 7.540775 -10.500462 0
M  V30 60 H 9.562112 6.693716 -11.585882 0
M  V30 61 H 5.359382 -1.622852 -20.532501 0
M  V30 62 H 4.126712 -1.784120 -19.335569 0
M  V30 63 H 9.989932 2.624783 -19.354603 0
M  V30 64 H 5.552671 -3.298476 -18.479733 0
M  V30 65 H 5.994636 -1.931604 -17.538032 0
M  V30 66 H 10.470912 5.139046 -8.337731 0
M  V30 67 H 10.962899 6.390234 -9.456770 0
M  V30 68 H 9.375415 3.990221 -14.222795 0
M  V30 69 H 9.427583 8.544563 -5.585041 0
M  V30 70 H 11.104868 9.060723 -5.387383 0
M  V30 71 H 10.175381 9.590224 -6.784956 0
M  V30 72 H 11.691352 7.773634 -7.454640 0
M  V30 73 H 7.004529 3.450712 -14.664500 0
M  V30 74 H 6.978454 4.540491 -16.034763 0
M  V30 75 H 6.424704 8.240999 -11.585028 0
M  V30 76 H 7.512649 8.160541 -12.955540 0
M  V30 77 H 5.933084 7.362149 -13.022806 0
M  V30 78 H 9.375895 7.986115 -8.452674 0
M  V30 79 H 8.807064 6.785564 -7.332330 0
M  V30 80 H 6.630259 5.874487 -11.158671 0
M  V30 81 H 8.831733 1.107981 -20.250955 0
M  V30 82 H 8.090204 -1.098826 -16.998475 0
M  V30 83 H 7.733995 6.490998 -14.528928 0
M  V30 84 H 9.213715 6.316994 -13.585044 0
M  V30 85 H 11.107722 4.290438 -18.991515 0
M  V30 86 H 10.610862 5.808214 -18.353999 0
M  V30 87 H 9.135862 5.981745 -16.516778 0
M  V30 88 H 10.539678 5.700071 -15.526523 0
M  V30 89 H 6.216018 0.516711 -21.036502 0
M  V30 END ATOM
M  V30 BEGIN BOND
M  V30 1 1 8 2
M  V30 2 1 9 3
M  V30 3 1 11 4
M  V30 4 1 13 5
M  V30 5 1 14 3
M  V30 6 1 15 8
M  V30 7 1 16 7
M  V30 8 1 17 3
M  V30 9 1 17 4
M  V30 10 1 18 5
M  V30 11 1 18 16
M  V30 12 1 19 8
M  V30 13 1 23 6
M  V30 14 1 23 21
M  V30 15 1 24 14
M  V30 16 1 24 20
M  V30 17 1 26 10
M  V30 18 1 29 12
M  V30 19 1 29 27
M  V30 20 2 29 28
M  V30 21 1 30 19
M  V30 22 1 30 23
M  V30 23 1 31 1
M  V30 24 1 31 15
M  V30 25 1 31 25
M  V30 26 1 32 10
M  V30 27 1 32 17
M  V30 28 1 34 1
M  V30 29 1 34 20
M  V30 30 1 35 9
M  V30 31 1 35 29
M  V30 32 1 36 11
M  V30 33 1 36 13
M  V30 34 1 36 32
M  V30 35 1 36 33 CFG=1
M  V30 36 1 37 9
M  V30 37 1 37 20
M  V30 38 1 38 7
M  V30 39 1 38 10
M  V30 40 1 38 22
M  V30 41 1 39 2
M  V30 42 1 3 40 CFG=3
M  V30 43 1 41 4
M  V30 44 1 42 4
M  V30 45 1 43 5
M  V30 46 1 44 5
M  V30 47 1 45 6
M  V30 48 1 46 6
M  V30 49 1 47 6
M  V30 50 1 48 7
M  V30 51 1 49 7
M  V30 52 1 8 50 CFG=3
M  V30 53 1 9 51 CFG=1
M  V30 54 1 10 52 CFG=1
M  V30 55 1 53 11
M  V30 56 1 54 11
M  V30 57 1 55 13
M  V30 58 1 56 13
M  V30 59 1 57 14
M  V30 60 1 58 14
M  V30 61 1 59 15
M  V30 62 1 60 15
M  V30 63 1 61 16
M  V30 64 1 62 16
M  V30 65 1 17 63 CFG=3
M  V30 66 1 64 18
M  V30 67 1 65 18
M  V30 68 1 66 19
M  V30 69 1 67 19
M  V30 70 1 20 68 CFG=1
M  V30 71 1 69 21
M  V30 72 1 70 21
M  V30 73 1 71 21
M  V30 74 1 72 23
M  V30 75 1 73 24
M  V30 76 1 74 24
M  V30 77 1 75 25
M  V30 78 1 76 25
M  V30 79 1 77 25
M  V30 80 1 78 30
M  V30 81 1 79 30
M  V30 82 1 31 80 CFG=1
M  V30 83 1 32 81 CFG=3
M  V30 84 1 82 33
M  V30 85 1 83 34
M  V30 86 1 84 34
M  V30 87 1 85 35
M  V30 88 1 86 35
M  V30 89 1 87 37
M  V30 90 1 88 37
M  V30 91 1 38 89 CFG=3
M  V30 END BOND
M  V30 END CTAB
M  END
>  <i_epik_Tot_Q>  (1) 
-2

>  <i_epik_Tot_abs_Q>  (1) 
2

>  <i_i_glide_confnum>  (1) 
864

>  <i_i_glide_lignum>  (1) 
19

>  <i_i_glide_posenum>  (1) 
327

>  <i_i_glide_rotatable_bonds>  (1) 
13

>  <i_lp_mmshare_version>  (1) 
72125

>  <i_m_source_file_index>  (1) 
2

>  <i_f3d_flags>  (1) 
0

>  <num_sample>  (1) 
50

>  <b_lp_Chiralities_Consistent>  (1) 
1

>  <r_epik_Charging_Adjusted_Penalty>  (1) 
1.8994269935217587

>  <r_epik_Ionization_Penalty>  (1) 
0.94971411018702601

>  <r_epik_Ionization_Penalty_Charging>  (1) 
0.94971349676087924

>  <r_epik_Ionization_Penalty_Neutral>  (1) 
6.1342614676121867e-07

>  <r_epik_State_Penalty>  (1) 
0.94971349676087935

>  <r_glide_ring_energy>  (1) 
0

>  <r_i_docking_score>  (1) 
-2.4911514390365603

>  <r_i_glide_ecoul>  (1) 
-0.34462710491520721

>  <r_i_glide_eff_state_penalty>  (1) 
0.94971349676087935

>  <r_i_glide_einternal>  (1) 
7.7924323334775512

>  <r_i_glide_emodel>  (1) 
-32.979254353848162

>  <r_i_glide_emodel_strain>  (1) 
0.41011966176060355

>  <r_i_glide_energy>  (1) 
-30.216210438573661

>  <r_i_glide_erotb>  (1) 
0.50299043937721266

>  <r_i_glide_esite>  (1) 
0

>  <r_i_glide_evdw>  (1) 
-29.871583333658453

>  <r_i_glide_gscore>  (1) 
-3.4408649357974395

>  <r_i_glide_gscore_strain>  (1) 
0

>  <r_i_glide_hbond>  (1) 
-0.20990815379889774

>  <r_i_glide_ligand_efficiency>  (1) 
-0.065556616816751581

>  <r_i_glide_ligand_efficiency_ln>  (1) 
-0.53716553250700927

>  <r_i_glide_ligand_efficiency_sa>  (1) 
-0.22039973349086223

>  <r_i_glide_lipo>  (1) 
-1.8096524152598958

>  <r_i_glide_metal>  (1) 
-0

>  <r_i_glide_rewards>  (1) 
-0.37902157369565481

>  <r_lp_Energy>  (1) 
46.940445999999994

>  <s_epik_cmdline>  (1) 
J2VwaWtfcHl0aG9uJywgJy1waHQnLCAnMS4wJywgJy1waCcsICc3LjQnLCAnLXRuJywgJzgnLCAnLW1hJywgJzUwMCcsICctaW1hZScsICc8aW5maWxlLm1hZT4nLCAnLW9tYWUnLCAnPG91dGZpbGUubWFlPic=

>  <s_epik_input>  (1) 
W0NIM11bQ0hdKFtDSDNdKVtDSDJdW0NIMl1bQ0BASF0oW09IXSlbQ0gyXVtDQEBIXShbQ0gzXSlPW0NIMl1bQ0BASF0oW0NIMl1bQ0gyXTEpW0NIMl1bQ0BIXShbQ0gyXVAoPU8pKFtPSF0pW09IXSlbQ0BIXTFbQ0BASF0oW0NIMl1bQ0gyXTIpW0NAQEhdKFtDQF0yM1tPSF0pW0NAQEhdKEYpW0NASF0oRilbQ0gyXVtDSDJdW0NIMl1bQ0gyXVtDSDJdMw==

>  <s_glide_docking_method>  (1) 
confgen

>  <s_i_glide_gridfile>  (1) 
gpcr_drd2_6luq_protein_autoprepared_prepared

>  <s_lp_Force_Field>  (1) 
S-OPLS

>  <s_lp_Variant>  (1) 
DiffSBDD_1-3

>  <s_m_source_file>  (1) 
generated_generic_title2_ligand_DiffSBDD_2026-06-23_prepared.sdf

>  <GenAI_Model>  (1) 
DiffSBDD

>  <Protein>  (1) 
generic_title2

$$$$
DiffSBDD_5
     RDKit          3D

  0  0  0  0  0  0  0  0  0  0999 V3000
M  V30 BEGIN CTAB
M  V30 COUNTS 64 67 0 0 1
M  V30 BEGIN ATOM
M  V30 1 C 6.539723 1.074908 -17.472667 0 CFG=1
M  V30 2 N 7.127998 3.333168 -12.936927 0
M  V30 3 C 8.711124 0.337783 -13.514759 0
M  V30 4 C 6.639786 -0.421075 -17.725639 0
M  V30 5 C 6.860299 5.855246 -12.833892 0 CFG=2
M  V30 6 N 6.575414 1.303316 -16.025019 0
M  V30 7 C 6.853080 2.113886 -13.747580 0 CFG=1
M  V30 8 O 8.611012 1.585669 -18.578642 0 CHG=-1
M  V30 9 C 7.714455 -1.210719 -17.705749 0
M  V30 10 C 7.231863 2.184375 -15.249397 0
M  V30 11 C 9.846617 5.506338 -8.277922 0
M  V30 12 O 8.564387 3.533004 -12.866049 0
M  V30 13 C 6.091940 -2.983547 -18.001679 0 CFG=1
M  V30 14 C 7.434642 1.956904 -18.366844 0
M  V30 15 C 10.646647 7.687514 -10.352805 0
M  V30 16 C 8.575260 7.075854 -11.585124 0
M  V30 17 C 7.612679 -2.690273 -17.966642 0
M  V30 18 O 11.364709 6.174627 -6.523708 0 CHG=-1
M  V30 19 C 11.468101 8.788542 -6.884865 0
M  V30 20 O 9.375412 8.390318 -7.778144 0
M  V30 21 O 8.769550 7.932917 -12.440836 0
M  V30 22 C 11.229011 8.104219 -9.233604 0
M  V30 23 C 9.443347 6.863096 -10.408030 0
M  V30 24 O 6.909990 2.993842 -18.832028 0
M  V30 25 S 5.211530 -1.384199 -18.054015 0
M  V30 26 C 10.688548 7.869992 -7.871845 0 CFG=1
M  V30 27 C 7.334544 0.809623 -13.041127 0
M  V30 28 C 7.293481 5.674570 -14.235741 0
M  V30 29 Cl 5.665746 -4.010497 -19.395273 0
M  V30 30 C 6.149270 6.760945 -12.065455 0
M  V30 31 C 6.299309 -0.324196 -13.126718 0
M  V30 32 C 9.088826 5.908914 -9.475965 0
M  V30 33 N 7.497154 6.258902 -11.613458 0
M  V30 34 O 8.068916 2.993346 -15.648480 0
M  V30 35 C 6.496028 4.557911 -13.440382 0 CFG=1
M  V30 36 C 10.650479 6.381777 -7.532626 0
M  V30 37 H 5.521608 1.342568 -17.758055 0
M  V30 38 H 8.641031 -0.159328 -14.482466 0
M  V30 39 H 9.375406 1.189918 -13.585031 0
M  V30 40 H 9.201575 -0.337263 -12.818928 0
M  V30 41 H 5.961746 0.687198 -15.515199 0
M  V30 42 H 5.766269 2.054095 -13.751531 0
M  V30 43 H 8.695237 -0.802242 -17.508741 0
M  V30 44 H 9.775456 4.478170 -7.979071 0
M  V30 45 H 8.781474 3.648815 -13.782443 0
M  V30 46 H 5.784919 -3.511203 -17.096907 0
M  V30 47 H 11.087554 7.990045 -11.285294 0
M  V30 48 H 8.095953 -2.910864 -18.918920 0
M  V30 49 H 8.117151 -3.259828 -17.185166 0
M  V30 50 H 12.531533 8.551070 -6.874555 0
M  V30 51 H 11.386343 9.837894 -7.161694 0
M  V30 52 H 11.091431 8.699781 -5.864612 0
M  V30 53 H 8.789954 7.760053 -8.188567 0
M  V30 54 H 12.119958 8.711077 -9.299194 0
M  V30 55 H 7.438235 1.010852 -11.985392 0
M  V30 56 H 8.356729 5.546286 -14.426092 0
M  V30 57 H 6.751424 6.225581 -15.000908 0
M  V30 58 H 6.089794 7.798639 -12.384958 0
M  V30 59 H 5.295841 6.403701 -11.494172 0
M  V30 60 H 6.189109 -0.702527 -14.143501 0
M  V30 61 H 6.575409 -1.166037 -12.492915 0
M  V30 62 H 5.316659 0.004241 -12.787814 0
M  V30 63 H 8.198022 5.332938 -9.662667 0
M  V30 64 H 5.440493 4.489684 -13.697474 0
M  V30 END ATOM
M  V30 BEGIN BOND
M  V30 1 1 4 1
M  V30 2 1 6 1
M  V30 3 1 7 2
M  V30 4 2 9 4
M  V30 5 1 10 6
M  V30 6 1 10 7
M  V30 7 1 12 2
M  V30 8 1 14 1
M  V30 9 1 14 8
M  V30 10 1 17 9
M  V30 11 1 17 13
M  V30 12 2 21 16
M  V30 13 2 22 15
M  V30 14 1 23 15
M  V30 15 1 23 16
M  V30 16 2 24 14
M  V30 17 1 25 4
M  V30 18 1 25 13
M  V30 19 1 26 19
M  V30 20 1 26 20 CFG=3
M  V30 21 1 26 22
M  V30 22 1 27 3
M  V30 23 1 27 7
M  V30 24 1 28 5
M  V30 25 1 29 13
M  V30 26 1 30 5
M  V30 27 1 31 27
M  V30 28 1 32 11
M  V30 29 2 32 23
M  V30 30 1 5 33 CFG=1
M  V30 31 1 33 16
M  V30 32 1 33 30
M  V30 33 2 34 10
M  V30 34 1 35 2
M  V30 35 1 35 5
M  V30 36 1 35 28
M  V30 37 2 36 11
M  V30 38 1 36 18
M  V30 39 1 36 26
M  V30 40 1 1 37 CFG=3
M  V30 41 1 38 3
M  V30 42 1 39 3
M  V30 43 1 40 3
M  V30 44 1 41 6
M  V30 45 1 7 42 CFG=3
M  V30 46 1 43 9
M  V30 47 1 44 11
M  V30 48 1 45 12
M  V30 49 1 13 46 CFG=1
M  V30 50 1 47 15
M  V30 51 1 48 17
M  V30 52 1 49 17
M  V30 53 1 50 19
M  V30 54 1 51 19
M  V30 55 1 52 19
M  V30 56 1 53 20
M  V30 57 1 54 22
M  V30 58 1 55 27
M  V30 59 1 56 28
M  V30 60 1 57 28
M  V30 61 1 58 30
M  V30 62 1 59 30
M  V30 63 1 60 31
M  V30 64 1 61 31
M  V30 65 1 62 31
M  V30 66 1 63 32
M  V30 67 1 35 64 CFG=3
M  V30 END BOND
M  V30 END CTAB
M  END
>  <i_epik_Tot_Q>  (1) 
-2

>  <i_epik_Tot_abs_Q>  (1) 
2

>  <i_i_glide_confnum>  (1) 
820

>  <i_i_glide_lignum>  (1) 
29

>  <i_i_glide_posenum>  (1) 
261

>  <i_i_glide_rotatable_bonds>  (1) 
12

>  <i_lp_mmshare_version>  (1) 
72125

>  <i_m_source_file_index>  (1) 
6

>  <i_f3d_flags>  (1) 
0

>  <num_sample>  (1) 
50

>  <b_lp_Chiralities_Consistent>  (1) 
1

>  <r_epik_Charging_Adjusted_Penalty>  (1) 
2.4843421674805191

>  <r_epik_Ionization_Penalty>  (1) 
1.2439101461513797

>  <r_epik_Ionization_Penalty_Charging>  (1) 
1.2421750937233493

>  <r_epik_Ionization_Penalty_Neutral>  (1) 
0.0017350524280304977

>  <r_epik_State_Penalty>  (1) 
1.2421670737571699

>  <r_glide_ring_energy>  (1) 
0

>  <r_i_docking_score>  (1) 
-2.4740490467021208

>  <r_i_glide_ecoul>  (1) 
0.68396889025796848

>  <r_i_glide_eff_state_penalty>  (1) 
1.2421670737571699

>  <r_i_glide_einternal>  (1) 
14.238217350522405

>  <r_i_glide_emodel>  (1) 
-33.795245580772956

>  <r_i_glide_emodel_strain>  (1) 
0.98827396137409096

>  <r_i_glide_energy>  (1) 
-36.014600904985535

>  <r_i_glide_erotb>  (1) 
0.49960406782581518

>  <r_i_glide_esite>  (1) 
-0.19771976477286837

>  <r_i_glide_evdw>  (1) 
-36.6985697952435

>  <r_i_glide_gscore>  (1) 
-3.7162161204592907

>  <r_i_glide_gscore_strain>  (1) 
0

>  <r_i_glide_hbond>  (1) 
-0.06906494157034801

>  <r_i_glide_ligand_efficiency>  (1) 
-0.068723584630614468

>  <r_i_glide_ligand_efficiency_ln>  (1) 
-0.53977066090959958

>  <r_i_glide_ligand_efficiency_sa>  (1) 
-0.22692027673354193

>  <r_i_glide_lipo>  (1) 
-1.7149838652445364

>  <r_i_glide_metal>  (1) 
-0

>  <r_i_glide_rewards>  (1) 
-0.50171846047387336

>  <r_lp_Energy>  (1) 
60.102664999999995

>  <s_epik_Chemistry_Notes>  (1) 
This compound has a N-S or N-O group and may undergo hydrolysis at high or low pH.

>  <s_epik_cmdline>  (1) 
J2VwaWtfcHl0aG9uJywgJy1waHQnLCAnMS4wJywgJy1waCcsICc3LjQnLCAnLXRuJywgJzgnLCAnLW1hJywgJzUwMCcsICctaW1hZScsICc8aW5maWxlLm1hZT4nLCAnLW9tYWUnLCAnPG91dGZpbGUubWFlPic=

>  <s_epik_input>  (1) 
UzFbQ0BASF0oQ2wpW0NIMl1bQ0hdPUMxW0NASF0oQyg9TylbT0hdKVtOSF1DKD1PKVtDQEBIXShbQ0hdKFtDSDNdKVtDSDNdKU4oW09IXSlbQ0hdMltDSDJdQzIzW0NIMl1OM0MoPU8pQyhbQ0hdPVtDSF1bQ0BAXTQoW0NIM10pW09IXSk9W0NIXVtDSF09QzRbT0hd

>  <s_glide_docking_method>  (1) 
confgen

>  <s_i_glide_gridfile>  (1) 
gpcr_drd2_6luq_protein_autoprepared_prepared

>  <s_lp_Force_Field>  (1) 
S-OPLS

>  <s_lp_Variant>  (1) 
DiffSBDD_5-2

>  <s_m_source_file>  (1) 
generated_generic_title2_ligand_DiffSBDD_2026-06-23_prepared.sdf

>  <GenAI_Model>  (1) 
DiffSBDD

>  <Protein>  (1) 
generic_title2

$$$$
DiffSBDD_41
     RDKit          3D

  0  0  0  0  0  0  0  0  0  0999 V3000
M  V30 BEGIN CTAB
M  V30 COUNTS 77 81 0 0 1
M  V30 BEGIN ATOM
M  V30 1 C 6.065719 -0.213134 -16.577942 0
M  V30 2 C 7.767935 -0.513388 -20.702311 0
M  V30 3 C 11.877584 3.992100 -22.886658 0
M  V30 4 C 6.909762 0.530562 -15.546338 0
M  V30 5 C 14.451820 -2.841357 -23.237542 0
M  V30 6 C 13.347436 -1.985526 -23.096011 0
M  V30 7 C 14.513610 -0.749958 -21.326564 0
M  V30 8 C 15.645212 -1.614748 -21.498122 0
M  V30 9 C 8.078393 0.784467 -19.897386 0 CFG=1
M  V30 10 C 12.128587 1.140334 -19.866624 0
M  V30 11 C 4.694988 -0.500480 -15.981940 0
M  V30 12 C 15.597723 -2.652507 -22.447451 0
M  V30 13 C 13.374340 -0.942738 -22.152322 0
M  V30 14 C 8.095163 2.148427 -20.673727 0 CFG=2
M  V30 15 C 15.325809 0.300041 -19.231198 0
M  V30 16 N 14.515053 0.337773 -20.329523 0
M  V30 17 C 7.237070 1.055325 -18.605967 0 CFG=2
M  V30 18 C 11.250547 2.348397 -19.423978 0
M  V30 19 C 7.683047 3.186730 -19.605877 0
M  V30 20 C 4.973278 -0.075117 -18.970570 0
M  V30 21 C 7.011525 2.158086 -21.782034 0
M  V30 22 C 13.549646 1.470025 -20.465943 0 CFG=1
M  V30 23 O 15.375328 1.191092 -18.382419 0
M  V30 24 C 6.228117 0.005197 -18.093326 0 CFG=2
M  V30 25 C 8.882810 -0.978539 -21.650992 0
M  V30 26 C 13.662426 2.160490 -21.868983 0
M  V30 27 C 12.326554 2.644310 -22.354536 0 CFG=1
M  V30 28 C 6.671746 2.474984 -18.722258 0
M  V30 29 C 6.734792 -1.261485 -17.437619 0
M  V30 30 C 11.755718 3.676319 -21.419064 0 CFG=2
M  V30 31 F 16.774473 -1.433905 -20.785021 0
M  V30 32 C 9.459746 2.489464 -21.357623 0
M  V30 33 C 10.606522 3.187774 -20.559499 0 CFG=1
M  V30 34 H 7.601538 -1.330782 -20.002743 0
M  V30 35 H 6.850367 -0.429764 -21.279494 0
M  V30 36 H 10.964102 4.030753 -23.475723 0
M  V30 37 H 12.655376 4.688315 -23.193634 0
M  V30 38 H 7.968810 0.515824 -15.799310 0
M  V30 39 H 6.579989 1.565973 -15.462199 0
M  V30 40 H 6.823476 0.060684 -14.565915 0
M  V30 41 H 14.423668 -3.641169 -23.961174 0
M  V30 42 H 12.472196 -2.129494 -23.713061 0
M  V30 43 H 9.086824 0.605648 -19.532993 0
M  V30 44 H 11.527751 0.504896 -20.507387 0
M  V30 45 H 12.291147 0.540762 -18.970033 0
M  V30 46 H 4.175321 -1.289100 -16.524639 0
M  V30 47 H 4.786404 -0.809749 -14.943389 0
M  V30 48 H 4.076863 0.390234 -15.984974 0
M  V30 49 H 16.450630 -3.303673 -22.572813 0
M  V30 50 H 12.520356 -0.301957 -22.060588 0
M  V30 51 H 15.902042 -0.620478 -19.180623 0
M  V30 52 H 8.003790 1.139646 -17.839540 0
M  V30 53 H 10.479194 2.010000 -18.735676 0
M  V30 54 H 11.868226 3.007400 -18.812324 0
M  V30 55 H 8.516521 3.456259 -18.960282 0
M  V30 56 H 7.290566 4.111500 -20.029737 0
M  V30 57 H 4.413132 -0.989602 -18.776886 0
M  V30 58 H 4.309657 0.765748 -18.785056 0
M  V30 59 H 5.203859 -0.059920 -20.029648 0
M  V30 60 H 6.034452 1.848722 -21.410972 0
M  V30 61 H 6.889768 3.153644 -22.210264 0
M  V30 62 H 7.272534 1.492787 -22.605038 0
M  V30 63 H 13.883565 2.280954 -19.818124 0
M  V30 64 H 8.651020 -1.964153 -22.055428 0
M  V30 65 H 8.994248 -0.309601 -22.502567 0
M  V30 66 H 9.842064 -1.053525 -21.139058 0
M  V30 67 H 14.347564 3.007930 -21.806886 0
M  V30 68 H 14.088688 1.518900 -22.637624 0
M  V30 69 H 11.710021 1.829245 -22.719056 0
M  V30 70 H 6.575460 2.956185 -17.749155 0
M  V30 71 H 5.693329 2.494732 -19.199697 0
M  V30 72 H 6.188579 -2.184510 -17.621533 0
M  V30 73 H 7.811875 -1.383629 -17.339789 0
M  V30 74 H 12.468014 4.249314 -20.826017 0
M  V30 75 H 9.240583 3.153705 -22.193469 0
M  V30 76 H 9.830753 1.580275 -21.815137 0
M  V30 77 H 10.197335 4.095540 -20.118328 0
M  V30 END ATOM
M  V30 BEGIN BOND
M  V30 1 1 4 1
M  V30 2 2 6 5
M  V30 3 1 8 7
M  V30 4 1 9 2
M  V30 5 1 11 1
M  V30 6 1 12 5
M  V30 7 2 12 8
M  V30 8 1 13 6
M  V30 9 2 13 7
M  V30 10 1 14 9
M  V30 11 1 16 7
M  V30 12 1 16 15
M  V30 13 1 17 9
M  V30 14 1 18 10
M  V30 15 1 19 14
M  V30 16 1 14 21 CFG=3
M  V30 17 1 22 10
M  V30 18 1 22 16
M  V30 19 2 23 15
M  V30 20 1 24 1
M  V30 21 1 24 17
M  V30 22 1 24 20 CFG=3
M  V30 23 1 25 2
M  V30 24 1 26 22
M  V30 25 1 27 3
M  V30 26 1 27 26
M  V30 27 1 28 17
M  V30 28 1 28 19
M  V30 29 1 29 1
M  V30 30 1 29 24
M  V30 31 1 30 3
M  V30 32 1 30 27
M  V30 33 1 31 8
M  V30 34 1 32 14
M  V30 35 1 33 18
M  V30 36 1 33 30
M  V30 37 1 33 32
M  V30 38 1 34 2
M  V30 39 1 35 2
M  V30 40 1 36 3
M  V30 41 1 37 3
M  V30 42 1 38 4
M  V30 43 1 39 4
M  V30 44 1 40 4
M  V30 45 1 41 5
M  V30 46 1 42 6
M  V30 47 1 9 43 CFG=1
M  V30 48 1 44 10
M  V30 49 1 45 10
M  V30 50 1 46 11
M  V30 51 1 47 11
M  V30 52 1 48 11
M  V30 53 1 49 12
M  V30 54 1 50 13
M  V30 55 1 51 15
M  V30 56 1 17 52 CFG=1
M  V30 57 1 53 18
M  V30 58 1 54 18
M  V30 59 1 55 19
M  V30 60 1 56 19
M  V30 61 1 57 20
M  V30 62 1 58 20
M  V30 63 1 59 20
M  V30 64 1 60 21
M  V30 65 1 61 21
M  V30 66 1 62 21
M  V30 67 1 22 63 CFG=1
M  V30 68 1 64 25
M  V30 69 1 65 25
M  V30 70 1 66 25
M  V30 71 1 67 26
M  V30 72 1 68 26
M  V30 73 1 27 69 CFG=3
M  V30 74 1 70 28
M  V30 75 1 71 28
M  V30 76 1 72 29
M  V30 77 1 73 29
M  V30 78 1 30 74 CFG=1
M  V30 79 1 75 32
M  V30 80 1 76 32
M  V30 81 1 33 77 CFG=1
M  V30 END BOND
M  V30 END CTAB
M  END
>  <i_epik_Tot_Q>  (1) 
0

>  <i_epik_Tot_abs_Q>  (1) 
0

>  <i_i_glide_confnum>  (1) 
118

>  <i_i_glide_lignum>  (1) 
116

>  <i_i_glide_posenum>  (1) 
62

>  <i_i_glide_rotatable_bonds>  (1) 
7

>  <i_lp_mmshare_version>  (1) 
72125

>  <i_m_source_file_index>  (1) 
42

>  <i_f3d_flags>  (1) 
0

>  <num_sample>  (1) 
50

>  <b_lp_Chiralities_Consistent>  (1) 
1

>  <r_epik_Charging_Adjusted_Penalty>  (1) 
0

>  <r_epik_Ionization_Penalty>  (1) 
1.2096700552292907e-05

>  <r_epik_Ionization_Penalty_Charging>  (1) 
0

>  <r_epik_Ionization_Penalty_Neutral>  (1) 
1.2096700552292907e-05

>  <r_epik_State_Penalty>  (1) 
-0

>  <r_glide_ring_energy>  (1) 
0.29128280038351462

>  <r_i_docking_score>  (1) 
-2.44777539938696

>  <r_i_glide_ecoul>  (1) 
-1.7946464399170039

>  <r_i_glide_eff_state_penalty>  (1) 
-0

>  <r_i_glide_einternal>  (1) 
5.7268020136484523

>  <r_i_glide_emodel>  (1) 
-21.655561482636219

>  <r_i_glide_emodel_strain>  (1) 
0.12761495185262106

>  <r_i_glide_energy>  (1) 
-22.902376314728045

>  <r_i_glide_erotb>  (1) 
0.48765284155676775

>  <r_i_glide_esite>  (1) 
-0.024306209152598623

>  <r_i_glide_evdw>  (1) 
-21.107729874811042

>  <r_i_glide_gscore>  (1) 
-2.44777539938696

>  <r_i_glide_gscore_strain>  (1) 
0

>  <r_i_glide_hbond>  (1) 
-0.091811610590676537

>  <r_i_glide_ligand_efficiency>  (1) 
-0.074175012102635149

>  <r_i_glide_ligand_efficiency_ln>  (1) 
-0.5443725749209346

>  <r_i_glide_ligand_efficiency_sa>  (1) 
-0.23791889774705818

>  <r_i_glide_lipo>  (1) 
-1.143256166963708

>  <r_i_glide_metal>  (1) 
-0

>  <r_i_glide_rewards>  (1) 
-0.35147079450864144

>  <r_lp_Energy>  (1) 
75.135584999999992

>  <r_lp_tautomer_probability>  (1) 
1

>  <s_epik_cmdline>  (1) 
J2VwaWtfcHl0aG9uJywgJy1waHQnLCAnMS4wJywgJy1waCcsICc3LjQnLCAnLXRuJywgJzgnLCAnLW1hJywgJzUwMCcsICctaW1hZScsICc8aW5maWxlLm1hZT4nLCAnLW9tYWUnLCAnPG91dGZpbGUubWFlPic=

>  <s_epik_input>  (1) 
W0NIM11DMShbQ0gzXSlbQ0BAXShbQ0gzXSkoW0NIMl0xKVtDQEhdKFtDSDJdW0NIMl0yKVtDQEBIXShbQ0gyXVtDSDNdKVtDQF0yKFtDSDNdKVtDSDJdW0NASF0oW0NASF0oW0NIMl0zKVtDQEBIXTM0KVtDSDJdW0NIMl1bQ0BIXShbQ0gyXTQpTihbQ0hdPU8pYzVjKEYpW2NIXVtjSF1bY0hdW2NIXTU=

>  <s_glide_docking_method>  (1) 
confgen

>  <s_i_glide_gridfile>  (1) 
gpcr_drd2_6luq_protein_autoprepared_prepared

>  <s_lp_Force_Field>  (1) 
S-OPLS

>  <s_lp_Variant>  (1) 
DiffSBDD_41-1

>  <s_m_source_file>  (1) 
generated_generic_title2_ligand_DiffSBDD_2026-06-23_prepared.sdf

>  <GenAI_Model>  (1) 
DiffSBDD

>  <Protein>  (1) 
generic_title2

$$$$
DiffSBDD_39
     RDKit          3D

  0  0  0  0  0  0  0  0  0  0999 V3000
M  V30 BEGIN CTAB
M  V30 COUNTS 69 72 0 0 1
M  V30 BEGIN ATOM
M  V30 1 C 8.961328 2.896488 -20.902716 0
M  V30 2 F 5.219329 -0.638554 -15.478820 0
M  V30 3 F 4.967955 0.002428 -17.524604 0
M  V30 4 C 14.595339 9.690796 -19.327260 0
M  V30 5 C 10.628533 4.824877 -20.739499 0
M  V30 6 C 9.933029 7.033415 -19.833387 0 CFG=1
M  V30 7 O 15.628181 10.390679 -19.985250 0
M  V30 8 C 7.878394 -0.938445 -18.072878 0 CFG=2
M  V30 9 C 6.978658 4.463911 -19.429931 0
M  V30 10 C 12.356849 6.651649 -20.512875 0 CFG=2
M  V30 11 O 8.101226 -3.342376 -17.585006 0
M  V30 12 C 6.608729 3.176965 -20.197475 0
M  V30 13 N 7.760221 2.242743 -20.318237 0 CFG=2 CHG=1
M  V30 14 C 5.429298 -2.262943 -17.176504 0
M  V30 15 C 9.383405 4.159239 -20.116234 0 CFG=1
M  V30 16 C 8.034102 1.445896 -19.093255 0
M  V30 17 O 6.071072 -2.516488 -18.427678 0
M  V30 18 C 8.656524 6.392194 -19.252311 0
M  V30 19 N 11.063409 6.058785 -20.008238 0 CFG=2 CHG=1
M  V30 20 C 14.159958 8.474970 -20.167342 0 CFG=1
M  V30 21 C 15.256614 7.397963 -20.184742 0
M  V30 22 C 7.600185 -0.019702 -19.287679 0
M  V30 23 C 8.213162 5.151268 -20.042941 0 CFG=2
M  V30 24 C 7.464219 -2.394996 -18.418122 0 CFG=1
M  V30 25 C 7.141342 -0.458906 -16.822081 0
M  V30 26 C 14.835782 6.202687 -21.040023 0
M  V30 27 C 5.658475 -0.808713 -16.725139 0
M  V30 28 O 7.714555 0.189100 -15.946500 0
M  V30 29 C 13.506015 5.606940 -20.559127 0
M  V30 30 O 9.711059 7.515895 -21.147775 0
M  V30 31 C 12.829841 7.870533 -19.667341 0
M  V30 32 H 8.731203 3.167605 -21.934546 0
M  V30 33 H 9.781667 2.178782 -20.956330 0
M  V30 34 H 14.930812 9.383655 -18.336542 0
M  V30 35 H 13.775429 10.389437 -19.184450 0
M  V30 36 H 10.451854 5.061406 -21.790375 0
M  V30 37 H 11.407736 4.067663 -20.716998 0
M  V30 38 H 10.217536 7.857689 -19.185122 0
M  V30 39 H 15.234895 10.940704 -20.651251 0
M  V30 40 H 8.950469 -0.938268 -17.870190 0
M  V30 41 H 6.129808 5.148947 -19.443423 0
M  V30 42 H 7.162323 4.232582 -18.380168 0
M  V30 43 H 12.192847 6.995094 -21.535993 0
M  V30 44 H 7.832634 -3.209475 -16.676830 0
M  V30 45 H 6.278539 3.440756 -21.203070 0
M  V30 46 H 5.763538 2.673995 -19.724032 0
M  V30 47 H 5.772423 -2.969368 -16.420920 0
M  V30 48 H 4.362875 -2.449045 -17.296886 0
M  V30 49 H 9.643896 3.857192 -19.100282 0
M  V30 50 H 9.096874 1.465771 -18.848475 0
M  V30 51 H 7.525970 1.892092 -18.237454 0
M  V30 52 H 7.852206 7.128761 -19.229800 0
M  V30 53 H 8.840866 6.114599 -18.213148 0
M  V30 54 H 13.995821 8.817474 -21.190327 0
M  V30 55 H 16.188081 7.810803 -20.574137 0
M  V30 56 H 15.469608 7.066814 -19.167392 0
M  V30 57 H 6.540314 -0.057500 -19.544918 0
M  V30 58 H 8.126948 -0.422736 -20.153846 0
M  V30 59 H 7.953554 5.464197 -21.056330 0
M  V30 60 H 7.787815 -2.643209 -19.429640 0
M  V30 61 H 14.745240 6.513618 -22.081373 0
M  V30 62 H 15.614258 5.439711 -21.012891 0
M  V30 63 H 13.283243 4.795500 -21.249689 0
M  V30 64 H 13.643030 5.159123 -19.573867 0
M  V30 65 H 9.500722 8.438318 -21.111546 0
M  V30 66 H 12.930346 7.580768 -18.620322 0
M  V30 67 H 12.094865 8.672249 -19.695804 0
M  V30 68 H 7.473668 1.554760 -21.001340 0
M  V30 69 H 11.275396 5.746682 -19.071724 0
M  V30 END ATOM
M  V30 BEGIN BOND
M  V30 1 1 7 4
M  V30 2 1 12 9
M  V30 3 1 13 1
M  V30 4 1 13 12
M  V30 5 1 15 1
M  V30 6 1 15 5
M  V30 7 1 16 13
M  V30 8 1 17 14
M  V30 9 1 18 6
M  V30 10 1 19 5
M  V30 11 1 19 6
M  V30 12 1 19 10
M  V30 13 1 20 4
M  V30 14 1 21 20
M  V30 15 1 22 8
M  V30 16 1 22 16
M  V30 17 1 23 9
M  V30 18 1 23 15
M  V30 19 1 23 18
M  V30 20 1 24 8
M  V30 21 1 24 11
M  V30 22 1 24 17
M  V30 23 1 25 8
M  V30 24 1 26 21
M  V30 25 1 27 2
M  V30 26 1 27 3
M  V30 27 1 27 14
M  V30 28 1 27 25
M  V30 29 2 28 25
M  V30 30 1 29 10
M  V30 31 1 29 26
M  V30 32 1 30 6
M  V30 33 1 31 10
M  V30 34 1 31 20
M  V30 35 1 32 1
M  V30 36 1 33 1
M  V30 37 1 34 4
M  V30 38 1 35 4
M  V30 39 1 36 5
M  V30 40 1 37 5
M  V30 41 1 6 38 CFG=1
M  V30 42 1 39 7
M  V30 43 1 8 40 CFG=1
M  V30 44 1 41 9
M  V30 45 1 42 9
M  V30 46 1 10 43 CFG=3
M  V30 47 1 44 11
M  V30 48 1 45 12
M  V30 49 1 46 12
M  V30 50 1 47 14
M  V30 51 1 48 14
M  V30 52 1 15 49 CFG=1
M  V30 53 1 50 16
M  V30 54 1 51 16
M  V30 55 1 52 18
M  V30 56 1 53 18
M  V30 57 1 20 54 CFG=3
M  V30 58 1 55 21
M  V30 59 1 56 21
M  V30 60 1 57 22
M  V30 61 1 58 22
M  V30 62 1 23 59 CFG=3
M  V30 63 1 24 60 CFG=3
M  V30 64 1 61 26
M  V30 65 1 62 26
M  V30 66 1 63 29
M  V30 67 1 64 29
M  V30 68 1 65 30
M  V30 69 1 66 31
M  V30 70 1 67 31
M  V30 71 1 13 68 CFG=3
M  V30 72 1 19 69 CFG=1
M  V30 END BOND
M  V30 END CTAB
M  END
>  <i_epik_Tot_Q>  (1) 
2

>  <i_epik_Tot_abs_Q>  (1) 
2

>  <i_i_glide_confnum>  (1) 
54

>  <i_i_glide_lignum>  (1) 
114

>  <i_i_glide_posenum>  (1) 
230

>  <i_i_glide_rotatable_bonds>  (1) 
8

>  <i_lp_mmshare_version>  (1) 
72125

>  <i_m_source_file_index>  (1) 
40

>  <i_f3d_flags>  (1) 
0

>  <num_sample>  (1) 
50

>  <b_lp_Chiralities_Consistent>  (1) 
1

>  <r_epik_Charging_Adjusted_Penalty>  (1) 
1.743801429740254

>  <r_epik_Ionization_Penalty>  (1) 
1.6051069046209219

>  <r_epik_Ionization_Penalty_Charging>  (1) 
0.6098477401054202

>  <r_epik_Ionization_Penalty_Neutral>  (1) 
0.99525916451550167

>  <r_epik_State_Penalty>  (1) 
1.1339536896348337

>  <r_glide_ring_energy>  (1) 
1.2534239858201268

>  <r_i_docking_score>  (1) 
-2.436174821427957

>  <r_i_glide_ecoul>  (1) 
-10.310131262903621

>  <r_i_glide_eff_state_penalty>  (1) 
1.1339536896348337

>  <r_i_glide_einternal>  (1) 
3.7908853639052698

>  <r_i_glide_emodel>  (1) 
-36.464309033467821

>  <r_i_glide_emodel_strain>  (1) 
0.32656168177085476

>  <r_i_glide_energy>  (1) 
-30.007714973483594

>  <r_i_glide_erotb>  (1) 
0.49785121930328097

>  <r_i_glide_esite>  (1) 
-0.067667972123810219

>  <r_i_glide_evdw>  (1) 
-19.697583710579973

>  <r_i_glide_gscore>  (1) 
-3.5701285110627907

>  <r_i_glide_gscore_strain>  (1) 
0

>  <r_i_glide_hbond>  (1) 
-0.49792056525671419

>  <r_i_glide_ligand_efficiency>  (1) 
-0.07858628456219216

>  <r_i_glide_ligand_efficiency_ln>  (1) 
-0.5494320820239792

>  <r_i_glide_ligand_efficiency_sa>  (1) 
-0.24686943386699492

>  <r_i_glide_lipo>  (1) 
-0.35387878801065425

>  <r_i_glide_metal>  (1) 
-0

>  <r_i_glide_rewards>  (1) 
-0.61711353001035185

>  <r_lp_Energy>  (1) 
49.071247

>  <r_lp_tautomer_probability>  (1) 
0.99995000000000001

>  <s_epik_Chemistry_Notes>  (1) 
This compound contains an acetal/aminal-like group ( X-CH(R)-Y where X, Y are N, S, or O) that may be acid/base labile, releasing an aldehyde.

>  <s_epik_cmdline>  (1) 
J2VwaWtfcHl0aG9uJywgJy1waHQnLCAnMS4wJywgJy1waCcsICc3LjQnLCAnLXRuJywgJzgnLCAnLW1hJywgJzUwMCcsICctaW1hZScsICc8aW5maWxlLm1hZT4nLCAnLW9tYWUnLCAnPG91dGZpbGUubWFlPic=

>  <s_epik_input>  (1) 
RkMxKEYpW0NIMl1PW0NASF0oW09IXSlbQ0BIXShDMT1PKVtDSDJdW0NIMl1OKFtDSDJdMilbQ0gyXVtDSDJdW0NASF0oW0NAQEhdMjMpW0NIMl1bQ0BIXShbT0hdKU4oW0NIMl0zKVtDQEBIXTRbQ0gyXVtDSDJdW0NIMl1bQ0BASF0oW0NIMl00KVtDSDJdW09IXQ==

>  <s_glide_docking_method>  (1) 
confgen

>  <s_i_glide_gridfile>  (1) 
gpcr_drd2_6luq_protein_autoprepared_prepared

>  <s_lp_Force_Field>  (1) 
S-OPLS

>  <s_lp_Variant>  (1) 
DiffSBDD_39-10

>  <s_m_source_file>  (1) 
generated_generic_title2_ligand_DiffSBDD_2026-06-23_prepared.sdf

>  <GenAI_Model>  (1) 
DiffSBDD

>  <Protein>  (1) 
generic_title2

$$$$
DiffSBDD_8
     RDKit          3D

  0  0  0  0  0  0  0  0  0  0999 V3000
M  V30 BEGIN CTAB
M  V30 COUNTS 69 72 0 0 1
M  V30 BEGIN ATOM
M  V30 1 N 7.111594 4.662549 -16.453117 0
M  V30 2 C 6.341909 6.113578 -19.670816 0
M  V30 3 C 6.516801 1.860189 -13.147052 0 CFG=1
M  V30 4 N 8.548506 5.847109 -20.453497 0
M  V30 5 O 8.947986 4.390376 -14.353174 0
M  V30 6 C 7.178670 5.552784 -10.909657 0
M  V30 7 F 9.726515 6.087522 -18.496155 0
M  V30 8 C 7.563951 4.951249 -9.541914 0
M  V30 9 N 7.054892 4.573480 -12.007713 0
M  V30 10 C 8.182821 3.657541 -12.252419 0 CFG=1
M  V30 11 C 8.643546 6.507580 -19.154479 0 CFG=2
M  V30 12 C 11.733467 8.514345 -9.830029 0
M  V30 13 C 7.878043 2.546779 -13.266143 0 CFG=2
M  V30 14 O 9.657672 5.662371 -12.539627 0
M  V30 15 O 9.539762 6.319997 -21.435092 0
M  V30 16 C 9.070824 4.861574 -9.199884 0
M  V30 17 C 8.383362 2.518671 -15.891056 0
M  V30 18 C 6.647560 5.825562 -15.689347 0
M  V30 19 C 7.172195 3.420613 -15.722874 0 CFG=1
M  V30 20 C 7.314060 6.129316 -18.472961 0 CFG=2
M  V30 21 C 7.384121 4.734759 -17.787376 0
M  V30 22 C 6.179659 0.589002 -13.900749 0
M  V30 23 C 9.301844 4.389097 -13.012830 0 CFG=2
M  V30 24 C 8.152290 3.239216 -14.586411 0 CFG=2
M  V30 25 O 12.580669 7.997312 -8.826718 0
M  V30 26 O 7.686951 3.742678 -18.452627 0
M  V30 27 C 10.263035 8.393462 -9.402506 0
M  V30 28 C 9.822994 7.719750 -21.365523 0
M  V30 29 C 7.209378 6.138989 -20.942188 0
M  V30 30 O 9.775416 7.095201 -9.690697 0
M  V30 31 C 9.674332 6.179441 -8.717668 0
M  V30 32 N 6.553149 0.559223 -12.501977 0 CHG=1
M  V30 33 O 10.025283 6.344652 -7.548350 0
M  V30 34 H 5.697924 5.232305 -19.668225 0
M  V30 35 H 5.682022 6.981508 -19.647991 0
M  V30 36 H 5.687705 2.463469 -12.791224 0
M  V30 37 H 6.200957 6.019096 -10.785380 0
M  V30 38 H 7.831178 6.382727 -11.170083 0
M  V30 39 H 7.072675 3.990216 -9.413563 0
M  V30 40 H 7.115480 5.590226 -8.785067 0
M  V30 41 H 6.900256 5.101196 -12.861199 0
M  V30 42 H 8.581403 3.244414 -11.331554 0
M  V30 43 H 8.688527 7.590225 -19.213409 0
M  V30 44 H 11.990703 9.564470 -9.971221 0
M  V30 45 H 11.915640 8.007358 -10.778318 0
M  V30 46 H 8.655067 1.786831 -13.161076 0
M  V30 47 H 10.456585 5.907990 -12.981000 0
M  V30 48 H 9.656472 4.491969 -10.038917 0
M  V30 49 H 9.210137 4.150755 -8.385147 0
M  V30 50 H 9.223464 2.863782 -16.490912 0
M  V30 51 H 8.205006 1.446971 -15.924887 0
M  V30 52 H 7.429742 6.576235 -15.584985 0
M  V30 53 H 5.762102 6.276207 -16.139624 0
M  V30 54 H 6.356432 5.535256 -14.680325 0
M  V30 55 H 6.230783 2.905986 -15.585026 0
M  V30 56 H 7.035429 6.941407 -17.809071 0
M  V30 57 H 5.145808 0.261773 -13.999675 0
M  V30 58 H 6.934803 0.052228 -14.471721 0
M  V30 59 H 10.175413 3.767186 -12.904517 0
M  V30 60 H 12.306834 8.345905 -7.991623 0
M  V30 61 H 10.120446 8.680004 -8.359256 0
M  V30 62 H 9.655065 9.084197 -9.985021 0
M  V30 63 H 10.421961 7.990311 -22.235307 0
M  V30 64 H 8.933198 8.347862 -21.388705 0
M  V30 65 H 10.424433 7.972648 -20.490954 0
M  V30 66 H 6.893688 5.399822 -21.679129 0
M  V30 67 H 7.156231 7.123338 -21.405071 0
M  V30 68 H 7.468944 0.170892 -12.325377 0
M  V30 69 H 5.785640 0.328468 -11.886039 0
M  V30 END ATOM
M  V30 BEGIN BOND
M  V30 1 1 8 6
M  V30 2 1 9 6
M  V30 3 1 10 9
M  V30 4 1 11 4
M  V30 5 1 11 7
M  V30 6 1 13 3
M  V30 7 1 13 10
M  V30 8 1 15 4
M  V30 9 1 16 8
M  V30 10 1 18 1
M  V30 11 1 19 1
M  V30 12 1 19 17
M  V30 13 1 20 2
M  V30 14 1 20 11
M  V30 15 1 21 1
M  V30 16 1 21 20
M  V30 17 1 22 3
M  V30 18 1 23 5
M  V30 19 1 23 10
M  V30 20 1 23 14
M  V30 21 1 24 5 CFG=1
M  V30 22 1 24 13
M  V30 23 1 24 17
M  V30 24 1 24 19
M  V30 25 1 25 12
M  V30 26 2 26 21
M  V30 27 1 27 12
M  V30 28 1 28 15
M  V30 29 1 29 2
M  V30 30 1 29 4
M  V30 31 1 30 27
M  V30 32 1 31 16
M  V30 33 1 31 30
M  V30 34 1 32 3
M  V30 35 1 32 22
M  V30 36 2 33 31
M  V30 37 1 34 2
M  V30 38 1 35 2
M  V30 39 1 3 36 CFG=1
M  V30 40 1 37 6
M  V30 41 1 38 6
M  V30 42 1 39 8
M  V30 43 1 40 8
M  V30 44 1 41 9
M  V30 45 1 10 42 CFG=1
M  V30 46 1 11 43 CFG=3
M  V30 47 1 44 12
M  V30 48 1 45 12
M  V30 49 1 13 46 CFG=1
M  V30 50 1 47 14
M  V30 51 1 48 16
M  V30 52 1 49 16
M  V30 53 1 50 17
M  V30 54 1 51 17
M  V30 55 1 52 18
M  V30 56 1 53 18
M  V30 57 1 54 18
M  V30 58 1 19 55 CFG=1
M  V30 59 1 20 56 CFG=1
M  V30 60 1 57 22
M  V30 61 1 58 22
M  V30 62 1 23 59 CFG=3
M  V30 63 1 60 25
M  V30 64 1 61 27
M  V30 65 1 62 27
M  V30 66 1 63 28
M  V30 67 1 64 28
M  V30 68 1 65 28
M  V30 69 1 66 29
M  V30 70 1 67 29
M  V30 71 1 68 32
M  V30 72 1 69 32
M  V30 END BOND
M  V30 END CTAB
M  END
>  <i_epik_Tot_Q>  (1) 
1

>  <i_epik_Tot_abs_Q>  (1) 
1

>  <i_i_glide_confnum>  (1) 
8970

>  <i_i_glide_lignum>  (1) 
36

>  <i_i_glide_posenum>  (1) 
196

>  <i_i_glide_rotatable_bonds>  (1) 
15

>  <i_lp_mmshare_version>  (1) 
72125

>  <i_m_source_file_index>  (1) 
9

>  <i_f3d_flags>  (1) 
0

>  <num_sample>  (1) 
50

>  <b_lp_Chiralities_Consistent>  (1) 
1

>  <r_epik_Charging_Adjusted_Penalty>  (1) 
1.2103720943885907

>  <r_epik_Ionization_Penalty>  (1) 
0.55446808147534954

>  <r_epik_Ionization_Penalty_Charging>  (1) 
0.13553905892425583

>  <r_epik_Ionization_Penalty_Neutral>  (1) 
0.41892902255109377

>  <r_epik_State_Penalty>  (1) 
1.074833035464335

>  <r_glide_ring_energy>  (1) 
0

>  <r_i_docking_score>  (1) 
-2.4140585478518437

>  <r_i_glide_ecoul>  (1) 
-2.9402385836433904

>  <r_i_glide_eff_state_penalty>  (1) 
1.074833035464335

>  <r_i_glide_einternal>  (1) 
43.076826429471517

>  <r_i_glide_emodel>  (1) 
-21.176556519984057

>  <r_i_glide_emodel_strain>  (1) 
0.037003450252328207

>  <r_i_glide_energy>  (1) 
-32.179963503520362

>  <r_i_glide_erotb>  (1) 
1.0741905119875848

>  <r_i_glide_esite>  (1) 
-0.057307073096307608

>  <r_i_glide_evdw>  (1) 
-29.239724919876974

>  <r_i_glide_gscore>  (1) 
-3.4888915833161787

>  <r_i_glide_gscore_strain>  (1) 
0

>  <r_i_glide_hbond>  (1) 
0

>  <r_i_glide_ligand_efficiency>  (1) 
-0.073153289328843754

>  <r_i_glide_ligand_efficiency_ln>  (1) 
-0.53687412171603877

>  <r_i_glide_ligand_efficiency_sa>  (1) 
-0.23464168687438369

>  <r_i_glide_lipo>  (1) 
-1.7426671143379797

>  <r_i_glide_metal>  (1) 
-0

>  <r_i_glide_rewards>  (1) 
-0.86008587432911843

>  <r_lp_Energy>  (1) 
39.739995999999998

>  <s_epik_Chemistry_Notes>  (1) 
This compound has an ester and may undergo hydrolysis at high or low pH. This compound contains an acetal/aminal-like group ( X-CH(R)-Y where X, Y are N, S, or O) that may be acid/base labile, releasing an aldehyde. This compound has a N-S or N-O group and may undergo hydrolysis at high or low pH.

>  <s_epik_cmdline>  (1) 
J2VwaWtfcHl0aG9uJywgJy1waHQnLCAnMS4wJywgJy1waCcsICc3LjQnLCAnLXRuJywgJzgnLCAnLW1hJywgJzUwMCcsICctaW1hZScsICc8aW5maWxlLm1hZT4nLCAnLW9tYWUnLCAnPG91dGZpbGUubWFlPic=

>  <s_epik_input>  (1) 
W0NIM11PTjFbQ0BIXShGKVtDQEBIXShbQ0gyXVtDSDJdMSlDKD1PKU4oW0NIM10pW0NASF0yW0NIMl1DMjNPW0NAQEhdKFtPSF0pW0NASF0oW0NASF0zW0NASF00W0NIMl1bTkhdNClbTkhdW0NIMl1bQ0gyXVtDSDJdQyg9TylPW0NIMl1bQ0gyXVtPSF0=

>  <s_glide_docking_method>  (1) 
confgen

>  <s_i_glide_gridfile>  (1) 
gpcr_drd2_6luq_protein_autoprepared_prepared

>  <s_lp_Force_Field>  (1) 
S-OPLS

>  <s_lp_Variant>  (1) 
DiffSBDD_8-5

>  <s_m_source_file>  (1) 
generated_generic_title2_ligand_DiffSBDD_2026-06-23_prepared.sdf

>  <GenAI_Model>  (1) 
DiffSBDD

>  <Protein>  (1) 
generic_title2

$$$$
DiffSBDD_5
     RDKit          3D

  0  0  0  0  0  0  0  0  0  0999 V3000
M  V30 BEGIN CTAB
M  V30 COUNTS 65 68 0 0 1
M  V30 BEGIN ATOM
M  V30 1 C 8.065436 4.483571 -17.371285 0 CFG=1
M  V30 2 N 8.133311 1.329120 -17.135229 0
M  V30 3 C 5.602639 -0.556243 -18.317292 0
M  V30 4 C 7.060008 5.577426 -17.050145 0
M  V30 5 C 7.666003 0.749406 -14.729691 0 CFG=2
M  V30 6 N 7.904474 3.956055 -18.726984 0
M  V30 7 C 7.155303 1.576162 -18.237401 0 CFG=1
M  V30 8 O 10.099626 4.825981 -16.181688 0 CHG=-1
M  V30 9 C 6.760378 6.065214 -15.846562 0
M  V30 10 C 7.589710 2.732607 -19.186177 0
M  V30 11 C 9.607107 5.551979 -12.887435 0
M  V30 12 O 9.411020 0.956173 -17.705557 0
M  V30 13 C 5.228190 7.472737 -17.092050 0 CFG=1
M  V30 14 C 9.494228 5.028304 -17.254850 0
M  V30 15 C 6.902750 4.590997 -11.717461 0
M  V30 16 C 7.166091 2.578924 -13.185034 0
M  V30 17 C 5.760325 7.173632 -15.668346 0
M  V30 18 O 10.206839 7.294705 -11.438618 0
M  V30 19 C 9.120447 6.395211 -9.161326 0
M  V30 20 O 9.375397 4.390259 -10.182706 0
M  V30 21 O 6.039583 2.167783 -12.926393 0
M  V30 22 C 7.380219 5.407084 -10.764918 0
M  V30 23 C 7.717759 3.869470 -12.710873 0
M  V30 24 O 9.948214 5.660835 -18.236021 0
M  V30 25 S 6.100729 6.390181 -18.271807 0
M  V30 26 C 8.830773 5.648917 -10.486013 0 CFG=1
M  V30 27 C 6.666524 0.299690 -19.030781 0
M  V30 28 C 6.421724 0.386974 -15.408943 0
M  V30 29 Cl 3.484598 7.173401 -17.185022 0
M  V30 30 C 8.268958 0.388035 -13.536857 0
M  V30 31 C 7.766617 -0.598572 -19.631038 0
M  V30 32 C 8.914953 4.313147 -13.228305 0
M  V30 33 N 8.061020 1.833935 -13.866333 0
M  V30 34 O 7.636382 2.540392 -20.400151 0
M  V30 35 C 7.820392 0.319343 -16.139985 0 CFG=1
M  V30 36 C 9.541730 6.161735 -11.703687 0
M  V30 37 H 7.929075 3.722353 -16.608796 0
M  V30 38 H 6.032532 -1.185638 -17.540099 0
M  V30 39 H 4.819755 0.054922 -17.870709 0
M  V30 40 H 5.114327 -1.228710 -19.023051 0
M  V30 41 H 8.242003 4.600327 -19.428891 0
M  V30 42 H 6.261843 1.986445 -17.767015 0
M  V30 43 H 7.253221 5.689883 -14.963254 0
M  V30 44 H 10.236125 5.990218 -13.645000 0
M  V30 45 H 9.186816 0.168932 -18.177723 0
M  V30 46 H 5.376005 8.516588 -17.357981 0
M  V30 47 H 5.833306 4.442270 -11.746718 0
M  V30 48 H 4.977952 6.856029 -14.981259 0
M  V30 49 H 6.258685 8.043788 -15.239695 0
M  V30 50 H 10.631040 7.561895 -12.238083 0
M  V30 51 H 8.975440 7.470037 -9.245398 0
M  V30 52 H 8.492296 6.030729 -8.347254 0
M  V30 53 H 10.159391 6.268156 -8.852404 0
M  V30 54 H 9.362530 3.873035 -10.974389 0
M  V30 55 H 6.683881 5.880453 -10.091695 0
M  V30 56 H 6.111178 0.681142 -19.889293 0
M  V30 57 H 5.949297 -0.547284 -15.111127 0
M  V30 58 H 5.752681 1.190201 -15.685784 0
M  V30 59 H 9.294380 0.027927 -13.552299 0
M  V30 60 H 7.649905 -0.009770 -12.735505 0
M  V30 61 H 8.279642 -1.179003 -18.864404 0
M  V30 62 H 7.334590 -1.313420 -20.332082 0
M  V30 63 H 8.507449 -0.019248 -20.181957 0
M  V30 64 H 9.371933 3.731733 -13.985023 0
M  V30 65 H 8.170034 -0.700884 -16.297275 0
M  V30 END ATOM
M  V30 BEGIN BOND
M  V30 1 1 4 1
M  V30 2 1 6 1
M  V30 3 1 7 2
M  V30 4 2 9 4
M  V30 5 1 10 6
M  V30 6 1 10 7
M  V30 7 1 12 2
M  V30 8 1 14 1
M  V30 9 1 14 8
M  V30 10 1 17 9
M  V30 11 1 17 13
M  V30 12 2 21 16
M  V30 13 2 22 15
M  V30 14 1 23 15
M  V30 15 1 23 16
M  V30 16 2 24 14
M  V30 17 1 25 4
M  V30 18 1 25 13
M  V30 19 1 26 19
M  V30 20 1 26 20 CFG=1
M  V30 21 1 26 22
M  V30 22 1 27 3
M  V30 23 1 27 7
M  V30 24 1 28 5
M  V30 25 1 29 13
M  V30 26 1 30 5
M  V30 27 1 31 27
M  V30 28 1 32 11
M  V30 29 2 32 23
M  V30 30 1 5 33 CFG=3
M  V30 31 1 33 16
M  V30 32 1 33 30
M  V30 33 2 34 10
M  V30 34 1 35 2
M  V30 35 1 35 5
M  V30 36 1 35 28
M  V30 37 2 36 11
M  V30 38 1 36 18
M  V30 39 1 36 26
M  V30 40 1 1 37 CFG=1
M  V30 41 1 38 3
M  V30 42 1 39 3
M  V30 43 1 40 3
M  V30 44 1 41 6
M  V30 45 1 7 42 CFG=1
M  V30 46 1 43 9
M  V30 47 1 44 11
M  V30 48 1 45 12
M  V30 49 1 13 46 CFG=3
M  V30 50 1 47 15
M  V30 51 1 48 17
M  V30 52 1 49 17
M  V30 53 1 50 18
M  V30 54 1 51 19
M  V30 55 1 52 19
M  V30 56 1 53 19
M  V30 57 1 54 20
M  V30 58 1 55 22
M  V30 59 1 56 27
M  V30 60 1 57 28
M  V30 61 1 58 28
M  V30 62 1 59 30
M  V30 63 1 60 30
M  V30 64 1 61 31
M  V30 65 1 62 31
M  V30 66 1 63 31
M  V30 67 1 64 32
M  V30 68 1 35 65 CFG=1
M  V30 END BOND
M  V30 END CTAB
M  END
>  <i_epik_Tot_Q>  (1) 
-1

>  <i_epik_Tot_abs_Q>  (1) 
1

>  <i_i_glide_confnum>  (1) 
270

>  <i_i_glide_lignum>  (1) 
28

>  <i_i_glide_posenum>  (1) 
264

>  <i_i_glide_rotatable_bonds>  (1) 
13

>  <i_lp_mmshare_version>  (1) 
72125

>  <i_m_source_file_index>  (1) 
6

>  <i_f3d_flags>  (1) 
0

>  <num_sample>  (1) 
50

>  <b_lp_Chiralities_Consistent>  (1) 
1

>  <r_epik_Charging_Adjusted_Penalty>  (1) 
0.077690704590845053

>  <r_epik_Ionization_Penalty>  (1) 
0.082549720368024937

>  <r_epik_Ionization_Penalty_Charging>  (1) 
8.0199661793119585e-06

>  <r_epik_Ionization_Penalty_Neutral>  (1) 
0.082541700401845622

>  <r_epik_State_Penalty>  (1) 
0.077682684624665738

>  <r_glide_ring_energy>  (1) 
0

>  <r_i_docking_score>  (1) 
-2.4123154888797584

>  <r_i_glide_ecoul>  (1) 
-0.021705945903327029

>  <r_i_glide_eff_state_penalty>  (1) 
0.077682684624665738

>  <r_i_glide_einternal>  (1) 
17.591853693680662

>  <r_i_glide_emodel>  (1) 
-23.391677523147564

>  <r_i_glide_emodel_strain>  (1) 
4.3671246547995679

>  <r_i_glide_energy>  (1) 
-32.13831580798535

>  <r_i_glide_erotb>  (1) 
0.49788325422123908

>  <r_i_glide_esite>  (1) 
0

>  <r_i_glide_evdw>  (1) 
-32.116609862082022

>  <r_i_glide_gscore>  (1) 
-2.4899981735044241

>  <r_i_glide_gscore_strain>  (1) 
0.091781163699891977

>  <r_i_glide_hbond>  (1) 
0

>  <r_i_glide_ligand_efficiency>  (1) 
-0.067008763579993288

>  <r_i_glide_ligand_efficiency_ln>  (1) 
-0.52630206644074895

>  <r_i_glide_ligand_efficiency_sa>  (1) 
-0.22125806237951776

>  <r_i_glide_lipo>  (1) 
-2.5214842713116674

>  <r_i_glide_metal>  (1) 
-0

>  <r_i_glide_rewards>  (1) 
1.0509080648757132

>  <r_lp_Energy>  (1) 
46.399811

>  <s_epik_Chemistry_Notes>  (1) 
This compound has a N-S or N-O group and may undergo hydrolysis at high or low pH.

>  <s_epik_cmdline>  (1) 
J2VwaWtfcHl0aG9uJywgJy1waHQnLCAnMS4wJywgJy1waCcsICc3LjQnLCAnLXRuJywgJzgnLCAnLW1hJywgJzUwMCcsICctaW1hZScsICc8aW5maWxlLm1hZT4nLCAnLW9tYWUnLCAnPG91dGZpbGUubWFlPic=

>  <s_epik_input>  (1) 
UzFbQ0BASF0oQ2wpW0NIMl1bQ0hdPUMxW0NASF0oQyg9TylbT0hdKVtOSF1DKD1PKVtDQEBIXShbQ0hdKFtDSDNdKVtDSDNdKU4oW09IXSlbQ0hdMltDSDJdQzIzW0NIMl1OM0MoPU8pQyhbQ0hdPVtDSF1bQ0BAXTQoW0NIM10pW09IXSk9W0NIXVtDSF09QzRbT0hd

>  <s_glide_docking_method>  (1) 
confgen

>  <s_i_glide_gridfile>  (1) 
gpcr_drd2_6luq_protein_autoprepared_prepared

>  <s_lp_Force_Field>  (1) 
S-OPLS

>  <s_lp_Variant>  (1) 
DiffSBDD_5-1

>  <s_m_source_file>  (1) 
generated_generic_title2_ligand_DiffSBDD_2026-06-23_prepared.sdf

>  <GenAI_Model>  (1) 
DiffSBDD

>  <Protein>  (1) 
generic_title2

$$$$
DiffSBDD_28
     RDKit          3D

  0  0  0  0  0  0  0  0  0  0999 V3000
M  V30 BEGIN CTAB
M  V30 COUNTS 78 85 0 0 1
M  V30 BEGIN ATOM
M  V30 1 F 8.104431 2.226511 -18.678839 0
M  V30 2 C 11.428121 7.811468 -7.587808 0 CFG=1
M  V30 3 C 8.711338 5.802634 -9.295602 0 CFG=2
M  V30 4 C 11.774274 7.136090 -4.844531 0 CFG=2
M  V30 5 C 6.286657 3.074660 -12.154328 0 CFG=1
M  V30 6 C 12.846256 7.916297 -8.120438 0
M  V30 7 C 8.342394 4.533100 -11.480725 0 CFG=2
M  V30 8 C 7.158113 0.809778 -15.194508 0 CFG=1
M  V30 9 C 9.567426 4.710292 -8.619871 0
M  V30 10 C 6.817764 2.756995 -13.550661 0 CFG=1
M  V30 11 C 11.074077 9.423415 -6.154875 0 CFG=1
M  V30 12 C 9.575553 6.754681 -11.321738 0
M  V30 13 C 11.408370 7.969186 -6.047654 0 CFG=1
M  V30 14 O 12.172679 10.238521 -5.814891 0
M  V30 15 C 7.876661 1.278028 -17.701399 0 CFG=1
M  V30 16 C 6.950814 4.017662 -11.179362 0 CFG=1
M  V30 17 O 5.852865 4.439122 -11.984623 0
M  V30 18 N 8.570733 5.820847 -10.778422 0 CFG=2 CHG=1
M  V30 19 O 11.799746 7.245419 -2.360741 0
M  V30 20 C 8.686386 -0.073565 -17.876672 0
M  V30 21 O 10.420952 7.264757 -5.292352 0
M  V30 22 C 8.287540 3.209805 -13.643973 0
M  V30 23 C 10.836327 9.190215 -7.630761 0
M  V30 24 N 10.687519 6.743622 -8.291834 0
M  V30 25 C 12.177161 7.875236 -3.570463 0
M  V30 26 N 6.330218 -0.397948 -15.404589 0 CHG=1
M  V30 27 C 8.575216 4.576975 -13.002962 0
M  V30 28 C 4.979101 -0.010358 -14.989261 0
M  V30 29 C 5.259135 0.812741 -13.751535 0
M  V30 30 O 8.985277 -0.735781 -16.887156 0
M  V30 31 C 9.670715 7.846276 -10.264488 0
M  V30 32 C 7.067178 1.701781 -16.471490 0
M  V30 33 O 7.364048 0.160831 -18.209016 0
M  V30 34 N 6.609144 1.341950 -13.925292 0
M  V30 35 C 10.446652 5.493617 -7.637538 0
M  V30 36 C 12.408985 5.988723 -2.171308 0
M  V30 37 C 9.441123 7.090466 -8.944162 0 CFG=1
M  V30 38 H 7.729023 5.794549 -8.825624 0
M  V30 39 H 12.175583 6.139150 -5.004363 0
M  V30 40 H 5.776103 2.281625 -11.629298 0
M  V30 41 H 13.323488 8.867803 -7.888942 0
M  V30 42 H 13.444139 7.190148 -7.627525 0
M  V30 43 H 12.907267 7.780468 -9.202533 0
M  V30 44 H 9.044817 3.799587 -11.094906 0
M  V30 45 H 8.196125 0.535318 -15.009573 0
M  V30 46 H 10.176390 4.157667 -9.326178 0
M  V30 47 H 8.955118 4.002097 -8.063514 0
M  V30 48 H 6.247739 3.380330 -14.242786 0
M  V30 49 H 10.191356 9.710480 -5.584813 0
M  V30 50 H 9.274408 7.166785 -12.285043 0
M  V30 51 H 10.538720 6.255788 -11.445719 0
M  V30 52 H 11.887110 11.137157 -5.896965 0
M  V30 53 H 6.690438 3.939891 -10.124069 0
M  V30 54 H 8.575402 3.277245 -14.685000 0
M  V30 55 H 8.930672 2.458892 -13.182432 0
M  V30 56 H 9.768498 9.190396 -7.800271 0
M  V30 57 H 11.375844 9.859577 -8.306911 0
M  V30 58 H 13.256238 8.030323 -3.584994 0
M  V30 59 H 11.724969 8.865938 -3.552799 0
M  V30 60 H 6.674116 -1.110712 -14.773977 0
M  V30 61 H 7.954640 5.342140 -13.467727 0
M  V30 62 H 9.610266 4.843187 -13.217577 0
M  V30 63 H 4.286557 -0.809314 -14.792196 0
M  V30 64 H 4.528633 0.586875 -15.779076 0
M  V30 65 H 5.246725 0.155735 -12.877754 0
M  V30 66 H 4.510343 1.588322 -13.585020 0
M  V30 67 H 8.882968 8.581882 -10.416561 0
M  V30 68 H 10.621319 8.377251 -10.310439 0
M  V30 69 H 6.040881 1.820840 -16.804987 0
M  V30 70 H 7.382762 2.715170 -16.252108 0
M  V30 71 H 11.372592 4.985535 -7.383032 0
M  V30 72 H 9.862896 5.637314 -6.733925 0
M  V30 73 H 12.162862 5.591905 -1.186930 0
M  V30 74 H 12.050288 5.296101 -2.919087 0
M  V30 75 H 13.487021 6.015142 -2.280833 0
M  V30 76 H 8.784062 7.599283 -8.245550 0
M  V30 77 H 7.710601 6.344463 -10.889497 0
M  V30 78 H 6.367759 -0.737860 -16.356895 0
M  V30 END ATOM
M  V30 BEGIN BOND
M  V30 1 1 2 6 CFG=3
M  V30 2 1 9 3
M  V30 3 1 10 5
M  V30 4 1 13 2
M  V30 5 1 13 4
M  V30 6 1 13 11
M  V30 7 1 14 11
M  V30 8 1 15 1 CFG=3
M  V30 9 1 16 5
M  V30 10 1 16 7
M  V30 11 1 17 5
M  V30 12 1 17 16
M  V30 13 1 18 3
M  V30 14 1 18 7
M  V30 15 1 18 12
M  V30 16 1 20 15
M  V30 17 1 21 4
M  V30 18 1 13 21 CFG=1
M  V30 19 1 22 10
M  V30 20 1 23 2
M  V30 21 1 23 11
M  V30 22 1 24 2
M  V30 23 1 25 4
M  V30 24 1 25 19
M  V30 25 1 26 8
M  V30 26 1 27 7
M  V30 27 1 27 22
M  V30 28 1 28 26
M  V30 29 1 29 28
M  V30 30 2 30 20
M  V30 31 1 31 12
M  V30 32 1 32 8
M  V30 33 1 32 15
M  V30 34 1 33 15
M  V30 35 1 33 20
M  V30 36 1 34 8
M  V30 37 1 34 10
M  V30 38 1 34 29
M  V30 39 1 35 9
M  V30 40 1 35 24
M  V30 41 1 36 19
M  V30 42 1 37 3
M  V30 43 1 37 24
M  V30 44 1 37 31
M  V30 45 1 3 38 CFG=1
M  V30 46 1 4 39 CFG=3
M  V30 47 1 5 40 CFG=1
M  V30 48 1 41 6
M  V30 49 1 42 6
M  V30 50 1 43 6
M  V30 51 1 7 44 CFG=1
M  V30 52 1 8 45 CFG=1
M  V30 53 1 46 9
M  V30 54 1 47 9
M  V30 55 1 10 48 CFG=3
M  V30 56 1 11 49 CFG=1
M  V30 57 1 50 12
M  V30 58 1 51 12
M  V30 59 1 52 14
M  V30 60 1 16 53 CFG=1
M  V30 61 1 54 22
M  V30 62 1 55 22
M  V30 63 1 56 23
M  V30 64 1 57 23
M  V30 65 1 58 25
M  V30 66 1 59 25
M  V30 67 1 60 26
M  V30 68 1 61 27
M  V30 69 1 62 27
M  V30 70 1 63 28
M  V30 71 1 64 28
M  V30 72 1 65 29
M  V30 73 1 66 29
M  V30 74 1 67 31
M  V30 75 1 68 31
M  V30 76 1 69 32
M  V30 77 1 70 32
M  V30 78 1 71 35
M  V30 79 1 72 35
M  V30 80 1 73 36
M  V30 81 1 74 36
M  V30 82 1 75 36
M  V30 83 1 37 76 CFG=1
M  V30 84 1 18 77 CFG=1
M  V30 85 1 78 26
M  V30 END BOND
M  V30 END CTAB
M  END
>  <i_epik_Tot_Q>  (1) 
2

>  <i_epik_Tot_abs_Q>  (1) 
2

>  <i_i_glide_confnum>  (1) 
592

>  <i_i_glide_lignum>  (1) 
87

>  <i_i_glide_posenum>  (1) 
267

>  <i_i_glide_rotatable_bonds>  (1) 
8

>  <i_lp_mmshare_version>  (1) 
72125

>  <i_m_source_file_index>  (1) 
29

>  <i_f3d_flags>  (1) 
0

>  <num_sample>  (1) 
50

>  <b_lp_Chiralities_Consistent>  (1) 
1

>  <r_epik_Charging_Adjusted_Penalty>  (1) 
1.0492181154286748

>  <r_epik_Ionization_Penalty>  (1) 
0.8301501805432685

>  <r_epik_Ionization_Penalty_Charging>  (1) 
0.211122083805314

>  <r_epik_Ionization_Penalty_Neutral>  (1) 
0.61902809673795445

>  <r_epik_State_Penalty>  (1) 
0.83809603162336077

>  <r_glide_ring_energy>  (1) 
1.1929751026676818

>  <r_i_docking_score>  (1) 
-2.408125459271897

>  <r_i_glide_ecoul>  (1) 
-5.6781741376782513

>  <r_i_glide_eff_state_penalty>  (1) 
0.83809603162336077

>  <r_i_glide_einternal>  (1) 
7.9757679669852166

>  <r_i_glide_emodel>  (1) 
-19.295854207229816

>  <r_i_glide_emodel_strain>  (1) 
10.829523075312693

>  <r_i_glide_energy>  (1) 
-31.726951212577195

>  <r_i_glide_erotb>  (1) 
0.44856850619138583

>  <r_i_glide_esite>  (1) 
-0.068177008243217416

>  <r_i_glide_evdw>  (1) 
-26.048777074898943

>  <r_i_glide_gscore>  (1) 
-3.246221490895258

>  <r_i_glide_gscore_strain>  (1) 
1.7073807688281732

>  <r_i_glide_hbond>  (1) 
-0.047836942227627001

>  <r_i_glide_ligand_efficiency>  (1) 
-0.065084471872213431

>  <r_i_glide_ligand_efficiency_ln>  (1) 
-0.52226595764549377

>  <r_i_glide_ligand_efficiency_sa>  (1) 
-0.21687589937542603

>  <r_i_glide_lipo>  (1) 
-2.4545837372773471

>  <r_i_glide_metal>  (1) 
-0

>  <r_i_glide_rewards>  (1) 
-0.67740810376993998

>  <r_lp_Energy>  (1) 
63.554969999999997

>  <s_epik_Chemistry_Notes>  (1) 
This compound has an ester and may undergo hydrolysis at high or low pH. This compound contains an acetal/aminal-like group ( X-CH(R)-Y where X, Y are N, S, or O) that may be acid/base labile, releasing an aldehyde.

>  <s_epik_cmdline>  (1) 
J2VwaWtfcHl0aG9uJywgJy1waHQnLCAnMS4wJywgJy1waCcsICc3LjQnLCAnLXRuJywgJzgnLCAnLW1hJywgJzUwMCcsICctaW1hZScsICc8aW5maWxlLm1hZT4nLCAnLW9tYWUnLCAnPG91dGZpbGUubWFlPic=

>  <s_epik_input>  (1) 
Tz1DKE8xKUMxKEYpW0NIMl1bQ0BASF0yW05IXVtDSDJdW0NIMl1OMltDQEBIXTNbQ0gyXVtDSDJdW0NASF0oW0NAQEhdKE80KVtDQEhdMzQpTjVbQ0gyXVtDSDJdW0NAQEhdKFtDQEhdNTYpTihbQ0gyXVtDSDJdNilbQ0BAXShbQ0gzXSkoW0NIMl1bQ0BASF03W09IXSlbQ0BAXTc4W0NASF0oTzgpW0NIMl1PW0NIM10=

>  <s_glide_docking_method>  (1) 
confgen

>  <s_i_glide_gridfile>  (1) 
gpcr_drd2_6luq_protein_autoprepared_prepared

>  <s_lp_Force_Field>  (1) 
S-OPLS

>  <s_lp_Variant>  (1) 
DiffSBDD_28-10

>  <s_m_source_file>  (1) 
generated_generic_title2_ligand_DiffSBDD_2026-06-23_prepared.sdf

>  <GenAI_Model>  (1) 
DiffSBDD

>  <Protein>  (1) 
generic_title2

$$$$
DiffSBDD_44
     RDKit          3D

  0  0  0  0  0  0  0  0  0  0999 V3000
M  V30 BEGIN CTAB
M  V30 COUNTS 60 62 0 0 1
M  V30 BEGIN ATOM
M  V30 1 C 5.889505 -1.742253 -19.981356 0
M  V30 2 C 7.708814 2.964782 -15.489987 0
M  V30 3 O 8.173532 -3.426015 -20.371120 0
M  V30 4 O 4.975414 -1.609797 -20.785013 0
M  V30 5 O 8.103304 0.344267 -14.514621 0
M  V30 6 C 7.357152 -0.888451 -17.750236 0 CFG=2
M  V30 7 C 8.155806 -2.152018 -20.984546 0
M  V30 8 C 7.725568 5.567582 -12.516256 0
M  V30 9 C 9.506096 1.752856 -18.246260 0
M  V30 10 C 6.697819 -2.257498 -17.584995 0
M  V30 11 C 7.055350 2.412111 -18.399491 0
M  V30 12 C 5.623398 2.101743 -21.871330 0
M  V30 13 O 8.010047 -0.846546 -19.016612 0
M  V30 14 C 6.297366 1.461013 -20.641446 0 CFG=1
M  V30 15 C 5.709238 -2.585970 -18.708158 0 CFG=1
M  V30 16 N 5.907122 7.190216 -12.385036 0
M  V30 17 F 8.412608 5.825800 -10.261284 0
M  V30 18 C 7.375502 4.239217 -15.945501 0
M  V30 19 S 7.775409 2.982209 -13.714447 0
M  V30 20 O 4.386544 -2.458228 -18.226178 0
M  V30 21 C 8.230956 5.076705 -11.360318 0
M  V30 22 C 7.154638 0.228152 -21.098586 0 CFG=1
M  V30 23 C 8.111050 2.009468 -17.668814 0
M  V30 24 C 7.324087 7.028291 -12.650787 0
M  V30 25 C 7.540228 4.703788 -13.710707 0
M  V30 26 N 7.192157 5.166768 -14.905500 0
M  V30 27 C 7.076335 2.591298 -19.897731 0
M  V30 28 F 8.609007 3.802582 -11.185094 0
M  V30 29 C 8.175408 0.578140 -15.719081 0
M  V30 30 C 8.453143 -0.597254 -16.689766 0
M  V30 31 O 9.467006 -1.680783 -21.188308 0
M  V30 32 F 8.342630 0.689899 -21.492675 0
M  V30 33 N 8.013744 1.843155 -16.265330 0
M  V30 34 C 7.280407 -1.090395 -20.227470 0 CFG=2
M  V30 35 H 8.571161 -4.034181 -20.975453 0
M  V30 36 H 6.564995 -0.140209 -17.716307 0
M  V30 37 H 7.729676 -2.310389 -21.976413 0
M  V30 38 H 9.517732 0.980475 -19.010504 0
M  V30 39 H 10.243966 1.512398 -17.480154 0
M  V30 40 H 9.861139 2.667432 -18.721227 0
M  V30 41 H 7.466667 -3.031052 -17.553092 0
M  V30 42 H 6.175469 -2.294295 -16.627666 0
M  V30 43 H 6.111446 2.585228 -17.915347 0
M  V30 44 H 6.365325 2.492369 -22.568416 0
M  V30 45 H 4.975407 2.929176 -21.582351 0
M  V30 46 H 5.004022 1.390247 -22.415386 0
M  V30 47 H 5.483649 1.110036 -20.005495 0
M  V30 48 H 5.835872 -3.632073 -18.988898 0
M  V30 49 H 5.778617 7.069788 -11.385752 0
M  V30 50 H 5.634643 8.144172 -12.567839 0
M  V30 51 H 7.267825 4.570399 -16.966943 0
M  V30 52 H 4.285079 -3.014369 -17.465233 0
M  V30 53 H 6.719462 -0.114146 -22.039124 0
M  V30 54 H 7.858902 7.624436 -11.910235 0
M  V30 55 H 7.597216 7.422397 -13.630345 0
M  V30 56 H 8.089326 2.706348 -20.280439 0
M  V30 57 H 6.601747 3.557441 -20.071653 0
M  V30 58 H 8.575491 -1.480525 -16.067373 0
M  V30 59 H 9.438778 -0.515719 -17.140660 0
M  V30 60 H 9.698778 -1.172307 -20.423988 0
M  V30 END ATOM
M  V30 BEGIN BOND
M  V30 1 2 4 1
M  V30 2 1 7 3
M  V30 3 1 10 6
M  V30 4 1 13 6
M  V30 5 1 14 12
M  V30 6 1 15 1
M  V30 7 1 15 10
M  V30 8 2 18 2
M  V30 9 1 19 2
M  V30 10 1 20 15
M  V30 11 2 21 8
M  V30 12 1 21 17
M  V30 13 1 22 14
M  V30 14 1 23 9
M  V30 15 2 23 11
M  V30 16 1 24 8
M  V30 17 1 24 16
M  V30 18 1 25 8
M  V30 19 1 25 19
M  V30 20 1 26 18
M  V30 21 2 26 25
M  V30 22 1 27 11
M  V30 23 1 27 14
M  V30 24 1 28 21
M  V30 25 2 29 5
M  V30 26 1 30 6
M  V30 27 1 30 29
M  V30 28 1 31 7
M  V30 29 1 32 22
M  V30 30 1 33 2
M  V30 31 1 33 23
M  V30 32 1 33 29
M  V30 33 1 34 1
M  V30 34 1 34 7 CFG=3
M  V30 35 1 34 13
M  V30 36 1 34 22
M  V30 37 1 35 3
M  V30 38 1 6 36 CFG=3
M  V30 39 1 37 7
M  V30 40 1 38 9
M  V30 41 1 39 9
M  V30 42 1 40 9
M  V30 43 1 41 10
M  V30 44 1 42 10
M  V30 45 1 43 11
M  V30 46 1 44 12
M  V30 47 1 45 12
M  V30 48 1 46 12
M  V30 49 1 14 47 CFG=1
M  V30 50 1 15 48 CFG=3
M  V30 51 1 49 16
M  V30 52 1 50 16
M  V30 53 1 51 18
M  V30 54 1 52 20
M  V30 55 1 22 53 CFG=3
M  V30 56 1 54 24
M  V30 57 1 55 24
M  V30 58 1 56 27
M  V30 59 1 57 27
M  V30 60 1 58 30
M  V30 61 1 59 30
M  V30 62 1 60 31
M  V30 END BOND
M  V30 END CTAB
M  END
>  <i_epik_Tot_Q>  (1) 
0

>  <i_epik_Tot_abs_Q>  (1) 
0

>  <i_i_glide_confnum>  (1) 
18

>  <i_i_glide_lignum>  (1) 
120

>  <i_i_glide_posenum>  (1) 
332

>  <i_i_glide_rotatable_bonds>  (1) 
7

>  <i_lp_mmshare_version>  (1) 
72125

>  <i_m_source_file_index>  (1) 
45

>  <i_f3d_flags>  (1) 
0

>  <num_sample>  (1) 
50

>  <b_lp_Chiralities_Consistent>  (1) 
1

>  <r_epik_Charging_Adjusted_Penalty>  (1) 
0.14846023016517132

>  <r_epik_Ionization_Penalty>  (1) 
0.1486405622074061

>  <r_epik_Ionization_Penalty_Charging>  (1) 
0

>  <r_epik_Ionization_Penalty_Neutral>  (1) 
0.1486405622074061

>  <r_epik_State_Penalty>  (1) 
0.14846023016517132

>  <r_glide_ring_energy>  (1) 
0

>  <r_i_docking_score>  (1) 
-2.3506691914119724

>  <r_i_glide_ecoul>  (1) 
-0.72585364559109999

>  <r_i_glide_eff_state_penalty>  (1) 
0.14846023016517132

>  <r_i_glide_einternal>  (1) 
0.74872168747440604

>  <r_i_glide_emodel>  (1) 
-27.832082442607138

>  <r_i_glide_emodel_strain>  (1) 
1.6149731503872715

>  <r_i_glide_energy>  (1) 
-26.12875538474778

>  <r_i_glide_erotb>  (1) 
0.32015763248640533

>  <r_i_glide_esite>  (1) 
-0.097143395016345502

>  <r_i_glide_evdw>  (1) 
-25.402901739156679

>  <r_i_glide_gscore>  (1) 
-2.4991294215771438

>  <r_i_glide_gscore_strain>  (1) 
0

>  <r_i_glide_hbond>  (1) 
-0.020423425911076609

>  <r_i_glide_ligand_efficiency>  (1) 
-0.069137329159175656

>  <r_i_glide_ligand_efficiency_ln>  (1) 
-0.51932875842038917

>  <r_i_glide_ligand_efficiency_sa>  (1) 
-0.22397810745287136

>  <r_i_glide_lipo>  (1) 
-0.56957587493992734

>  <r_i_glide_metal>  (1) 
-0

>  <r_i_glide_rewards>  (1) 
-0.75312122439970075

>  <r_lp_Energy>  (1) 
44.606941999999997

>  <s_epik_Chemistry_Notes>  (1) 
This compound contains an acetal/aminal-like group ( X-CH(R)-Y where X, Y are N, S, or O) that may be acid/base labile, releasing an aldehyde.

>  <s_epik_cmdline>  (1) 
J2VwaWtfcHl0aG9uJywgJy1waHQnLCAnMS4wJywgJy1waCcsICc3LjQnLCAnLXRuJywgJzgnLCAnLW1hJywgJzUwMCcsICctaW1hZScsICc8aW5maWxlLm1hZT4nLCAnLW9tYWUnLCAnPG91dGZpbGUubWFlPic=

>  <s_epik_input>  (1) 
W09IXVtDSF0oW09IXSlbQ0BAXTEyQyg9TylbQ0BIXShbT0hdKVtDSDJdW0NASF0oTzEpW0NIMl1DKD1PKU4oQyhcW0NIM10pPVtDSF1cW0NIMl1bQ0BASF0oW0NIM10pW0NASF0yRiljM1tjSF1uYyhzMylDKD1DKEYpRilbQ0gyXVtOSDJd

>  <s_glide_docking_method>  (1) 
confgen

>  <s_i_glide_gridfile>  (1) 
gpcr_drd2_6luq_protein_autoprepared_prepared

>  <s_lp_Force_Field>  (1) 
S-OPLS

>  <s_lp_Variant>  (1) 
DiffSBDD_44-1

>  <s_m_source_file>  (1) 
generated_generic_title2_ligand_DiffSBDD_2026-06-23_prepared.sdf

>  <GenAI_Model>  (1) 
DiffSBDD

>  <Protein>  (1) 
generic_title2

$$$$
DiffSBDD_37
     RDKit          3D

  0  0  0  0  0  0  0  0  0  0999 V3000
M  V30 BEGIN CTAB
M  V30 COUNTS 79 84 0 0 1
M  V30 BEGIN ATOM
M  V30 1 C 7.905438 4.752259 -13.160231 0 CFG=1
M  V30 2 O 10.730738 8.438523 -7.065000 0
M  V30 3 F 7.756648 5.564047 -21.415324 0
M  V30 4 C 7.695357 5.198680 -9.436790 0
M  V30 5 C 10.580174 6.250334 -12.964438 0
M  V30 6 O 9.375403 3.291176 -11.985126 0 CHG=-1
M  V30 7 C 8.448768 3.355697 -12.813206 0
M  V30 8 C 5.811062 6.910831 -19.732711 0
M  V30 9 C 6.764207 6.447404 -11.732776 0
M  V30 10 O 10.050156 5.590219 -14.110793 0
M  V30 11 C 9.205317 4.008341 -16.259669 0
M  V30 12 C 9.323453 5.749279 -7.611734 0
M  V30 13 F 3.991132 7.131785 -23.547045 0
M  V30 14 C 11.012219 7.485388 -9.279385 0
M  V30 15 C 7.063232 5.254787 -10.827661 0 CFG=2
M  V30 16 C 5.560741 7.538924 -17.310878 0
M  V30 17 O 8.311782 2.956190 -15.985550 0
M  V30 18 C 5.890694 5.811159 -15.599910 0
M  V30 19 C 6.975424 3.432540 -16.120621 0
M  V30 20 C 9.538122 7.182931 -9.609024 0
M  V30 21 C 11.304284 7.355178 -7.770275 0 CFG=2
M  V30 22 C 4.591005 7.058502 -22.347503 0
M  V30 23 C 4.872124 8.347632 -21.605459 0
M  V30 24 O 6.114413 4.242751 -11.124891 0
M  V30 25 C 6.425788 6.748563 -18.325301 0 CFG=1
M  V30 26 C 5.583590 5.617011 -20.525095 0 CFG=1
M  V30 27 O 7.811477 2.365449 -13.231601 0
M  V30 28 N 7.912656 5.586752 -11.951576 0
M  V30 29 C 8.631391 5.553123 -14.308257 0 CFG=1
M  V30 30 C 8.416806 5.228481 -15.846222 0 CFG=2
M  V30 31 C 5.982107 7.306503 -15.867122 0
M  V30 32 C 4.908148 5.848132 -21.866903 0
M  V30 33 C 9.124905 5.762155 -9.140178 0 CFG=2
M  V30 34 C 6.895494 4.838439 -20.701108 0 CFG=2
M  V30 35 C 5.488104 8.123247 -20.234787 0
M  V30 36 S 7.657304 4.374096 -19.122829 0
M  V30 37 C 10.774999 6.026494 -7.201618 0
M  V30 38 C 6.628760 5.256084 -17.895283 0 CFG=1
M  V30 39 C 6.975429 4.973092 -16.368599 0 CFG=2
M  V30 40 H 6.886446 4.522182 -13.431224 0
M  V30 41 H 10.751479 8.238896 -6.142260 0
M  V30 42 H 6.975413 5.590556 -8.741831 0
M  V30 43 H 7.718299 4.148858 -9.162666 0
M  V30 44 H 11.641441 6.441217 -13.121443 0
M  V30 45 H 10.101045 7.211509 -12.783428 0
M  V30 46 H 10.503193 5.636953 -12.068917 0
M  V30 47 H 6.005420 6.346961 -12.502697 0
M  V30 48 H 7.146985 7.452468 -11.585036 0
M  V30 49 H 9.465906 4.007558 -17.312184 0
M  V30 50 H 10.170361 3.990241 -15.767602 0
M  V30 51 H 8.661898 6.481641 -7.144584 0
M  V30 52 H 9.013984 4.790252 -7.219639 0
M  V30 53 H 11.277688 8.485216 -9.625439 0
M  V30 54 H 11.648847 6.796368 -9.828420 0
M  V30 55 H 4.515984 7.244963 -17.429866 0
M  V30 56 H 5.565888 8.608047 -17.491699 0
M  V30 57 H 4.883561 5.590151 -15.929884 0
M  V30 58 H 5.840360 5.654814 -14.539667 0
M  V30 59 H 6.575410 2.858998 -16.953636 0
M  V30 60 H 6.420047 3.166850 -15.223181 0
M  V30 61 H 9.354627 7.337648 -10.666834 0
M  V30 62 H 8.975411 7.944958 -9.082975 0
M  V30 63 H 12.380699 7.411135 -7.606234 0
M  V30 64 H 3.938523 8.899096 -21.488229 0
M  V30 65 H 5.545105 8.964378 -22.200616 0
M  V30 66 H 6.594822 3.448527 -11.317144 0
M  V30 67 H 7.420166 7.190208 -18.365903 0
M  V30 68 H 4.869954 5.002703 -19.976900 0
M  V30 69 H 8.262874 6.572057 -14.201420 0
M  V30 70 H 8.881871 5.990682 -16.441877 0
M  V30 71 H 5.302504 7.842452 -15.203585 0
M  V30 72 H 6.974292 7.702175 -15.663647 0
M  V30 73 H 4.679445 4.968120 -22.449227 0
M  V30 74 H 9.815197 5.053907 -9.597888 0
M  V30 75 H 6.728243 3.923662 -21.269986 0
M  V30 76 H 5.667268 9.008780 -19.644879 0
M  V30 77 H 10.877689 6.001688 -6.115984 0
M  V30 78 H 11.375362 5.203150 -7.575625 0
M  V30 79 H 5.652030 4.791403 -18.005743 0
M  V30 END ATOM
M  V30 BEGIN BOND
M  V30 1 1 7 1
M  V30 2 1 7 6
M  V30 3 1 10 5
M  V30 4 1 15 4
M  V30 5 1 15 9
M  V30 6 1 17 11
M  V30 7 1 19 17
M  V30 8 1 20 14
M  V30 9 1 21 2
M  V30 10 1 21 14
M  V30 11 1 22 13
M  V30 12 1 23 22
M  V30 13 1 15 24 CFG=3
M  V30 14 1 25 8
M  V30 15 1 25 16
M  V30 16 1 26 8
M  V30 17 2 27 7
M  V30 18 1 28 1
M  V30 19 1 28 9
M  V30 20 1 28 15
M  V30 21 1 29 1
M  V30 22 1 29 10
M  V30 23 1 30 11
M  V30 24 1 30 29
M  V30 25 1 31 16
M  V30 26 1 31 18
M  V30 27 2 32 22
M  V30 28 1 32 26
M  V30 29 1 33 4
M  V30 30 1 33 12
M  V30 31 1 33 20
M  V30 32 1 34 3
M  V30 33 1 34 26
M  V30 34 2 35 8
M  V30 35 1 35 23
M  V30 36 1 36 34
M  V30 37 1 37 12
M  V30 38 1 37 21
M  V30 39 1 38 25
M  V30 40 1 38 36
M  V30 41 1 39 18 CFG=1
M  V30 42 1 39 19
M  V30 43 1 39 30
M  V30 44 1 39 38
M  V30 45 1 1 40 CFG=3
M  V30 46 1 41 2
M  V30 47 1 42 4
M  V30 48 1 43 4
M  V30 49 1 44 5
M  V30 50 1 45 5
M  V30 51 1 46 5
M  V30 52 1 47 9
M  V30 53 1 48 9
M  V30 54 1 49 11
M  V30 55 1 50 11
M  V30 56 1 51 12
M  V30 57 1 52 12
M  V30 58 1 53 14
M  V30 59 1 54 14
M  V30 60 1 55 16
M  V30 61 1 56 16
M  V30 62 1 57 18
M  V30 63 1 58 18
M  V30 64 1 59 19
M  V30 65 1 60 19
M  V30 66 1 61 20
M  V30 67 1 62 20
M  V30 68 1 21 63 CFG=3
M  V30 69 1 64 23
M  V30 70 1 65 23
M  V30 71 1 66 24
M  V30 72 1 25 67 CFG=3
M  V30 73 1 26 68 CFG=1
M  V30 74 1 29 69 CFG=3
M  V30 75 1 30 70 CFG=3
M  V30 76 1 71 31
M  V30 77 1 72 31
M  V30 78 1 73 32
M  V30 79 1 33 74 CFG=3
M  V30 80 1 34 75 CFG=3
M  V30 81 1 76 35
M  V30 82 1 77 37
M  V30 83 1 78 37
M  V30 84 1 38 79 CFG=1
M  V30 END BOND
M  V30 END CTAB
M  END
>  <i_epik_Tot_Q>  (1) 
-1

>  <i_epik_Tot_abs_Q>  (1) 
1

>  <i_i_glide_confnum>  (1) 
119

>  <i_i_glide_lignum>  (1) 
102

>  <i_i_glide_posenum>  (1) 
188

>  <i_i_glide_rotatable_bonds>  (1) 
9

>  <i_lp_mmshare_version>  (1) 
72125

>  <i_m_source_file_index>  (1) 
38

>  <i_f3d_flags>  (1) 
0

>  <num_sample>  (1) 
50

>  <b_lp_Chiralities_Consistent>  (1) 
1

>  <r_epik_Charging_Adjusted_Penalty>  (1) 
0.59816734689740336

>  <r_epik_Ionization_Penalty>  (1) 
0.59818128409548943

>  <r_epik_Ionization_Penalty_Charging>  (1) 
0.00097473608303856986

>  <r_epik_Ionization_Penalty_Neutral>  (1) 
0.59720654801245088

>  <r_epik_State_Penalty>  (1) 
0.59719261081436481

>  <r_glide_ring_energy>  (1) 
1.2343154021944669

>  <r_i_docking_score>  (1) 
-2.3341494852468623

>  <r_i_glide_ecoul>  (1) 
4.6733369079689506

>  <r_i_glide_eff_state_penalty>  (1) 
0.59719261081436481

>  <r_i_glide_einternal>  (1) 
5.1058885556592806

>  <r_i_glide_emodel>  (1) 
-13.696405510211932

>  <r_i_glide_emodel_strain>  (1) 
6.9147437121910968

>  <r_i_glide_energy>  (1) 
-21.76112538662661

>  <r_i_glide_erotb>  (1) 
0.23359109936798597

>  <r_i_glide_esite>  (1) 
-0.088844003382488962

>  <r_i_glide_evdw>  (1) 
-26.434462294595562

>  <r_i_glide_gscore>  (1) 
-2.9313420960612269

>  <r_i_glide_gscore_strain>  (1) 
0.72868592804777421

>  <r_i_glide_hbond>  (1) 
0

>  <r_i_glide_ligand_efficiency>  (1) 
-0.059849986801201599

>  <r_i_glide_ligand_efficiency_ln>  (1) 
-0.50050790841030368

>  <r_i_glide_ligand_efficiency_sa>  (1) 
-0.20296396010448173

>  <r_i_glide_lipo>  (1) 
-2.4891114913234036

>  <r_i_glide_metal>  (1) 
-0

>  <r_i_glide_rewards>  (1) 
-0.69494105023665886

>  <r_lp_Energy>  (1) 
44.555437999999995

>  <s_epik_cmdline>  (1) 
J2VwaWtfcHl0aG9uJywgJy1waHQnLCAnMS4wJywgJy1waCcsICc3LjQnLCAnLXRuJywgJzgnLCAnLW1hJywgJzUwMCcsICctaW1hZScsICc8aW5maWxlLm1hZT4nLCAnLW9tYWUnLCAnPG91dGZpbGUubWFlPic=

>  <s_epik_input>  (1) 
W09IXVtDQEBIXTFbQ0gyXVtDSDJdW0NAQEhdKFtDSDJdW0NIMl0xKVtDSDJdW0NAQF0yKFtPSF0pW0NIMl1OMltDQEhdKEMoPU8pW09IXSlbQ0BASF0oT1tDSDNdKVtDQEhdM1tDSDJdT1tDSDJdW0NAXTM0W0NASF01W0NASF0oW0NIMl1bQ0gyXVtDSDJdNClDPTZbQ0BIXShbQ0BASF0oRilTNSlbQ0hdPUMoRilbQ0gyXVtDSF02

>  <s_glide_docking_method>  (1) 
confgen

>  <s_i_glide_gridfile>  (1) 
gpcr_drd2_6luq_protein_autoprepared_prepared

>  <s_lp_Force_Field>  (1) 
S-OPLS

>  <s_lp_Variant>  (1) 
DiffSBDD_37-3

>  <s_m_source_file>  (1) 
generated_generic_title2_ligand_DiffSBDD_2026-06-23_prepared.sdf

>  <GenAI_Model>  (1) 
DiffSBDD

>  <Protein>  (1) 
generic_title2

$$$$
DiffSBDD_8
     RDKit          3D

  0  0  0  0  0  0  0  0  0  0999 V3000
M  V30 BEGIN CTAB
M  V30 COUNTS 69 72 0 0 1
M  V30 BEGIN ATOM
M  V30 1 N 11.650553 7.703404 -7.301913 0
M  V30 2 C 11.301915 9.789224 -4.130547 0
M  V30 3 C 9.394809 5.854417 -9.559466 0 CFG=1
M  V30 4 N 11.845662 7.965392 -2.808849 0
M  V30 5 O 11.790142 7.190413 -11.090067 0
M  V30 6 C 7.376177 8.215878 -12.108011 0
M  V30 7 F 10.802754 6.389097 -4.059461 0
M  V30 8 C 5.987485 7.633597 -12.436887 0
M  V30 9 N 8.390431 7.190131 -12.060702 0
M  V30 10 C 9.580103 7.690315 -11.403960 0 CFG=1
M  V30 11 C 11.632140 7.419920 -4.139140 0 CFG=1
M  V30 12 C 5.778906 2.006721 -13.341965 0
M  V30 13 C 9.742089 7.312733 -9.927063 0 CFG=2
M  V30 14 O 10.524334 5.737296 -12.384978 0
M  V30 15 O 12.975340 7.295939 -2.243927 0
M  V30 16 C 5.636994 6.342955 -11.714606 0
M  V30 17 C 11.711610 8.971407 -9.557689 0
M  V30 18 C 11.378371 6.336992 -6.860900 0
M  V30 19 C 12.140618 7.828723 -8.653852 0 CFG=2
M  V30 20 C 11.027812 8.544165 -5.020030 0 CFG=2
M  V30 21 C 11.527900 8.778933 -6.464815 0
M  V30 22 C 8.740393 5.457834 -8.251893 0
M  V30 23 C 10.801578 7.072350 -12.058052 0 CFG=2
M  V30 24 C 11.221714 7.576746 -9.841830 0 CFG=2
M  V30 25 O 6.674009 2.348044 -14.376707 0
M  V30 26 O 11.784378 9.918870 -6.825137 0
M  V30 27 C 6.175473 2.712814 -12.046047 0
M  V30 28 C 12.584414 5.995904 -1.827916 0
M  V30 29 C 12.290118 9.317939 -3.069300 0
M  V30 30 O 5.614708 3.986728 -11.794668 0
M  V30 31 C 6.067841 5.060282 -12.406466 0
M  V30 32 N 7.982573 5.590162 -9.468002 0 CHG=1
M  V30 33 O 6.769911 5.058456 -13.418943 0
M  V30 34 H 11.689969 10.659597 -4.652618 0
M  V30 35 H 10.410177 10.153992 -3.632157 0
M  V30 36 H 9.861345 5.051870 -10.117080 0
M  V30 37 H 7.711639 8.943158 -12.846705 0
M  V30 38 H 7.339911 8.790123 -11.185035 0
M  V30 39 H 5.864133 7.515902 -13.513856 0
M  V30 40 H 5.244835 8.370854 -12.128452 0
M  V30 41 H 8.608260 6.936472 -13.022237 0
M  V30 42 H 9.674896 8.769264 -11.525908 0
M  V30 43 H 12.575154 7.032182 -4.478287 0
M  V30 44 H 4.740809 2.215402 -13.585094 0
M  V30 45 H 5.842186 0.926746 -13.201830 0
M  V30 46 H 9.204401 7.996758 -9.269604 0
M  V30 47 H 9.612160 5.593085 -12.176512 0
M  V30 48 H 4.575220 6.288219 -11.569686 0
M  V30 49 H 6.037715 6.365089 -10.713063 0
M  V30 50 H 12.461772 9.391424 -10.225682 0
M  V30 51 H 10.970615 9.675918 -9.197694 0
M  V30 52 H 10.415528 6.248352 -6.360181 0
M  V30 53 H 11.345607 5.652447 -7.702973 0
M  V30 54 H 12.175664 5.944856 -6.232612 0
M  V30 55 H 13.194772 7.590252 -8.773912 0
M  V30 56 H 9.963825 8.386890 -5.185225 0
M  V30 57 H 8.719712 4.414737 -7.943368 0
M  V30 58 H 8.404093 6.212275 -7.543511 0
M  V30 59 H 11.101123 7.577017 -12.975183 0
M  V30 60 H 6.717463 3.294962 -14.423892 0
M  V30 61 H 5.780225 2.100630 -11.230279 0
M  V30 62 H 7.260798 2.788198 -11.985321 0
M  V30 63 H 13.318588 5.590993 -1.131824 0
M  V30 64 H 11.604683 5.978046 -1.345605 0
M  V30 65 H 12.564760 5.328836 -2.685828 0
M  V30 66 H 13.309788 9.321565 -3.460057 0
M  V30 67 H 12.254029 9.923493 -2.163022 0
M  V30 68 H 7.441114 6.470697 -9.556313 0
M  V30 69 H 7.661116 4.740334 -9.906754 0
M  V30 END ATOM
M  V30 BEGIN BOND
M  V30 1 1 8 6
M  V30 2 1 9 6
M  V30 3 1 10 9
M  V30 4 1 11 4
M  V30 5 1 11 7
M  V30 6 1 13 3
M  V30 7 1 13 10
M  V30 8 1 15 4
M  V30 9 1 16 8
M  V30 10 1 18 1
M  V30 11 1 19 1
M  V30 12 1 19 17
M  V30 13 1 20 2
M  V30 14 1 20 11
M  V30 15 1 21 1
M  V30 16 1 21 20
M  V30 17 1 22 3
M  V30 18 1 23 5
M  V30 19 1 23 10
M  V30 20 1 23 14
M  V30 21 1 24 5 CFG=3
M  V30 22 1 24 13
M  V30 23 1 24 17
M  V30 24 1 24 19
M  V30 25 1 25 12
M  V30 26 2 26 21
M  V30 27 1 27 12
M  V30 28 1 28 15
M  V30 29 1 29 2
M  V30 30 1 29 4
M  V30 31 1 30 27
M  V30 32 1 31 16
M  V30 33 1 31 30
M  V30 34 1 32 3
M  V30 35 1 32 22
M  V30 36 2 33 31
M  V30 37 1 34 2
M  V30 38 1 35 2
M  V30 39 1 3 36 CFG=3
M  V30 40 1 37 6
M  V30 41 1 38 6
M  V30 42 1 39 8
M  V30 43 1 40 8
M  V30 44 1 41 9
M  V30 45 1 10 42 CFG=1
M  V30 46 1 11 43 CFG=3
M  V30 47 1 44 12
M  V30 48 1 45 12
M  V30 49 1 13 46 CFG=1
M  V30 50 1 47 14
M  V30 51 1 48 16
M  V30 52 1 49 16
M  V30 53 1 50 17
M  V30 54 1 51 17
M  V30 55 1 52 18
M  V30 56 1 53 18
M  V30 57 1 54 18
M  V30 58 1 19 55 CFG=1
M  V30 59 1 20 56 CFG=3
M  V30 60 1 57 22
M  V30 61 1 58 22
M  V30 62 1 23 59 CFG=3
M  V30 63 1 60 25
M  V30 64 1 61 27
M  V30 65 1 62 27
M  V30 66 1 63 28
M  V30 67 1 64 28
M  V30 68 1 65 28
M  V30 69 1 66 29
M  V30 70 1 67 29
M  V30 71 1 68 32
M  V30 72 1 69 32
M  V30 END BOND
M  V30 END CTAB
M  END
>  <i_epik_Tot_Q>  (1) 
1

>  <i_epik_Tot_abs_Q>  (1) 
1

>  <i_i_glide_confnum>  (1) 
5522

>  <i_i_glide_lignum>  (1) 
39

>  <i_i_glide_posenum>  (1) 
14

>  <i_i_glide_rotatable_bonds>  (1) 
15

>  <i_lp_mmshare_version>  (1) 
72125

>  <i_m_source_file_index>  (1) 
9

>  <i_f3d_flags>  (1) 
0

>  <num_sample>  (1) 
50

>  <b_lp_Chiralities_Consistent>  (1) 
1

>  <r_epik_Charging_Adjusted_Penalty>  (1) 
1.2103720943885907

>  <r_epik_Ionization_Penalty>  (1) 
0.55446808147534954

>  <r_epik_Ionization_Penalty_Charging>  (1) 
0.13553905892425583

>  <r_epik_Ionization_Penalty_Neutral>  (1) 
0.41892902255109377

>  <r_epik_State_Penalty>  (1) 
1.074833035464335

>  <r_glide_ring_energy>  (1) 
0

>  <r_i_docking_score>  (1) 
-2.31652050517306

>  <r_i_glide_ecoul>  (1) 
-8.3430178567980278

>  <r_i_glide_eff_state_penalty>  (1) 
1.074833035464335

>  <r_i_glide_einternal>  (1) 
27.900462780364606

>  <r_i_glide_emodel>  (1) 
-12.972456994676989

>  <r_i_glide_emodel_strain>  (1) 
12.162741306189474

>  <r_i_glide_energy>  (1) 
-31.098984464992441

>  <r_i_glide_erotb>  (1) 
1.0741905119875848

>  <r_i_glide_esite>  (1) 
-0.10000000000000001

>  <r_i_glide_evdw>  (1) 
-22.755966608194413

>  <r_i_glide_gscore>  (1) 
-3.3913535406373949

>  <r_i_glide_gscore_strain>  (1) 
2.0406853265473686

>  <r_i_glide_hbond>  (1) 
-0.16662878002764786

>  <r_i_glide_ligand_efficiency>  (1) 
-0.070197591065850301

>  <r_i_glide_ligand_efficiency_ln>  (1) 
-0.51518216604923395

>  <r_i_glide_ligand_efficiency_sa>  (1) 
-0.22516118322672318

>  <r_i_glide_lipo>  (1) 
-1.9332508310948808

>  <r_i_glide_metal>  (1) 
-0

>  <r_i_glide_rewards>  (1) 
-1.9170987591203954

>  <r_lp_Energy>  (1) 
38.778824999999998

>  <s_epik_Chemistry_Notes>  (1) 
This compound has an ester and may undergo hydrolysis at high or low pH. This compound contains an acetal/aminal-like group ( X-CH(R)-Y where X, Y are N, S, or O) that may be acid/base labile, releasing an aldehyde. This compound has a N-S or N-O group and may undergo hydrolysis at high or low pH.

>  <s_epik_cmdline>  (1) 
J2VwaWtfcHl0aG9uJywgJy1waHQnLCAnMS4wJywgJy1waCcsICc3LjQnLCAnLXRuJywgJzgnLCAnLW1hJywgJzUwMCcsICctaW1hZScsICc8aW5maWxlLm1hZT4nLCAnLW9tYWUnLCAnPG91dGZpbGUubWFlPic=

>  <s_epik_input>  (1) 
W0NIM11PTjFbQ0BIXShGKVtDQEBIXShbQ0gyXVtDSDJdMSlDKD1PKU4oW0NIM10pW0NASF0yW0NIMl1DMjNPW0NAQEhdKFtPSF0pW0NASF0oW0NASF0zW0NASF00W0NIMl1bTkhdNClbTkhdW0NIMl1bQ0gyXVtDSDJdQyg9TylPW0NIMl1bQ0gyXVtPSF0=

>  <s_glide_docking_method>  (1) 
confgen

>  <s_i_glide_gridfile>  (1) 
gpcr_drd2_6luq_protein_autoprepared_prepared

>  <s_lp_Force_Field>  (1) 
S-OPLS

>  <s_lp_Variant>  (1) 
DiffSBDD_8-8

>  <s_m_source_file>  (1) 
generated_generic_title2_ligand_DiffSBDD_2026-06-23_prepared.sdf

>  <GenAI_Model>  (1) 
DiffSBDD

>  <Protein>  (1) 
generic_title2

$$$$
DiffSBDD_1
     RDKit          3D

  0  0  0  0  0  0  0  0  0  0999 V3000
M  V30 BEGIN CTAB
M  V30 COUNTS 89 91 0 0 1
M  V30 BEGIN ATOM
M  V30 1 O 7.779404 5.988273 -12.960499 0
M  V30 2 O 8.060904 4.790232 -8.665676 0
M  V30 3 C 10.315485 4.348999 -17.228729 0 CFG=2
M  V30 4 C 10.557082 5.910828 -19.303635 0
M  V30 5 C 15.165178 7.676953 -19.319807 0
M  V30 6 C 12.026484 8.322996 -7.990157 0
M  V30 7 C 15.456445 5.451298 -16.635980 0
M  V30 8 C 9.154959 5.078251 -9.502299 0 CFG=1
M  V30 9 C 8.776703 4.138096 -17.430982 0 CFG=1
M  V30 10 C 13.397158 4.023463 -17.415412 0 CFG=2
M  V30 11 C 11.779359 6.666508 -19.809521 0
M  V30 12 O 6.020147 4.338583 -18.785082 0 CHG=-1
M  V30 13 C 14.303007 6.447639 -19.655990 0
M  V30 14 C 10.529352 5.455047 -16.158557 0
M  V30 15 C 8.773407 4.922682 -10.992608 0
M  V30 16 C 16.429161 6.334052 -17.455940 0
M  V30 17 C 11.076273 4.654034 -18.569199 0 CFG=1
M  V30 18 C 15.834245 7.678920 -17.931727 0
M  V30 19 C 9.739084 6.450632 -9.124854 0
M  V30 20 C 8.269491 5.061844 -15.092137 0 CFG=2
M  V30 21 C 11.000621 7.902534 -5.717268 0
M  V30 22 F 15.375131 3.165069 -16.534696 0
M  V30 23 C 10.764299 7.880654 -7.234453 0
M  V30 24 C 9.772567 5.215315 -14.849705 0
M  V30 25 C 6.219782 5.442596 -11.177284 0
M  V30 26 F 13.140080 2.731102 -17.634327 0
M  V30 27 O 7.734208 4.440887 -20.626137 0 CHG=-1
M  V30 28 O 6.474540 2.303221 -20.198319 0
M  V30 29 P 7.044896 3.570155 -19.595762 0
M  V30 30 C 10.271972 6.492207 -7.680380 0
M  V30 31 C 7.657548 5.847469 -11.549749 0 CFG=2
M  V30 32 C 12.636595 4.776465 -18.562392 0 CFG=1
M  V30 33 O 12.850536 7.050676 -17.733362 0
M  V30 34 C 7.528771 4.843174 -13.767343 0
M  V30 35 C 8.353951 3.021145 -18.426428 0
M  V30 36 C 12.952056 6.259252 -18.901574 0 CFG=2
M  V30 37 C 8.041067 3.918744 -16.088493 0
M  V30 38 C 14.941489 4.155751 -17.318709 0 CFG=2
M  V30 39 H 7.447014 5.511301 -8.731778 0
M  V30 40 H 10.710593 3.416551 -16.825286 0
M  V30 41 H 9.899469 5.645644 -20.130446 0
M  V30 42 H 9.976574 6.566360 -18.659935 0
M  V30 43 H 15.957839 7.731389 -20.067197 0
M  V30 44 H 14.581167 8.589585 -19.447922 0
M  V30 45 H 12.826884 7.590233 -7.902939 0
M  V30 46 H 11.826904 8.478022 -9.050476 0
M  V30 47 H 12.404675 9.259831 -7.588648 0
M  V30 48 H 15.990272 5.163206 -15.728704 0
M  V30 49 H 14.626515 6.037129 -16.243865 0
M  V30 50 H 9.904036 4.319405 -9.281388 0
M  V30 51 H 8.393227 5.076349 -17.833385 0
M  V30 52 H 12.988312 4.224793 -16.431306 0
M  V30 53 H 11.953903 6.338107 -20.834936 0
M  V30 54 H 11.617435 7.745227 -19.847662 0
M  V30 55 H 14.920066 5.561092 -19.575531 0
M  V30 56 H 14.110494 6.486543 -20.727934 0
M  V30 57 H 10.175446 6.390227 -16.560526 0
M  V30 58 H 11.573501 5.626053 -15.921307 0
M  V30 59 H 9.678279 5.095567 -11.576760 0
M  V30 60 H 8.512166 3.881812 -11.177009 0
M  V30 61 H 16.882869 5.786027 -18.281939 0
M  V30 62 H 17.263650 6.577899 -16.796878 0
M  V30 63 H 10.888701 3.813844 -19.233567 0
M  V30 64 H 16.637607 8.415766 -17.963417 0
M  V30 65 H 15.141973 8.066121 -17.185024 0
M  V30 66 H 10.540200 6.699944 -9.819981 0
M  V30 67 H 8.979548 7.220864 -9.247163 0
M  V30 68 H 7.892643 5.983631 -15.538488 0
M  V30 69 H 11.775408 7.194803 -5.422133 0
M  V30 70 H 11.299906 8.893741 -5.375083 0
M  V30 71 H 10.089950 7.631197 -5.185021 0
M  V30 72 H 9.973530 8.602936 -7.445519 0
M  V30 73 H 9.971805 5.990226 -14.123266 0
M  V30 74 H 10.175402 4.390225 -14.311666 0
M  V30 75 H 6.038035 5.561458 -10.110791 0
M  V30 76 H 5.497168 6.076101 -11.691932 0
M  V30 77 H 6.007577 4.406069 -11.439164 0
M  V30 78 H 9.471771 6.182697 -7.006193 0
M  V30 79 H 11.065201 5.754636 -7.555446 0
M  V30 80 H 7.833184 6.855894 -11.185033 0
M  V30 81 H 12.946864 4.247396 -19.465855 0
M  V30 82 H 12.814846 7.961825 -17.985670 0
M  V30 83 H 7.881241 3.921710 -13.305228 0
M  V30 84 H 6.456024 4.736487 -13.932136 0
M  V30 85 H 9.189955 2.628801 -18.996322 0
M  V30 86 H 7.989996 2.156773 -17.872070 0
M  V30 87 H 8.360754 2.975345 -15.644518 0
M  V30 88 H 6.974917 3.820181 -16.276898 0
M  V30 89 H 15.418013 3.959053 -18.276968 0
M  V30 END ATOM
M  V30 BEGIN BOND
M  V30 1 1 8 2
M  V30 2 1 9 3
M  V30 3 1 11 4
M  V30 4 1 13 5
M  V30 5 1 14 3
M  V30 6 1 15 8
M  V30 7 1 16 7
M  V30 8 1 17 3
M  V30 9 1 17 4
M  V30 10 1 18 5
M  V30 11 1 18 16
M  V30 12 1 19 8
M  V30 13 1 23 6
M  V30 14 1 23 21
M  V30 15 1 24 14
M  V30 16 1 24 20
M  V30 17 1 26 10
M  V30 18 1 29 12
M  V30 19 1 29 27
M  V30 20 2 29 28
M  V30 21 1 30 19
M  V30 22 1 30 23
M  V30 23 1 31 1
M  V30 24 1 31 15
M  V30 25 1 31 25
M  V30 26 1 32 10
M  V30 27 1 32 17
M  V30 28 1 34 1
M  V30 29 1 34 20
M  V30 30 1 35 9
M  V30 31 1 35 29
M  V30 32 1 36 11
M  V30 33 1 36 13
M  V30 34 1 36 32
M  V30 35 1 36 33 CFG=1
M  V30 36 1 37 9
M  V30 37 1 37 20
M  V30 38 1 38 7
M  V30 39 1 38 10
M  V30 40 1 38 22
M  V30 41 1 39 2
M  V30 42 1 3 40 CFG=1
M  V30 43 1 41 4
M  V30 44 1 42 4
M  V30 45 1 43 5
M  V30 46 1 44 5
M  V30 47 1 45 6
M  V30 48 1 46 6
M  V30 49 1 47 6
M  V30 50 1 48 7
M  V30 51 1 49 7
M  V30 52 1 8 50 CFG=1
M  V30 53 1 9 51 CFG=3
M  V30 54 1 10 52 CFG=1
M  V30 55 1 53 11
M  V30 56 1 54 11
M  V30 57 1 55 13
M  V30 58 1 56 13
M  V30 59 1 57 14
M  V30 60 1 58 14
M  V30 61 1 59 15
M  V30 62 1 60 15
M  V30 63 1 61 16
M  V30 64 1 62 16
M  V30 65 1 17 63 CFG=3
M  V30 66 1 64 18
M  V30 67 1 65 18
M  V30 68 1 66 19
M  V30 69 1 67 19
M  V30 70 1 20 68 CFG=3
M  V30 71 1 69 21
M  V30 72 1 70 21
M  V30 73 1 71 21
M  V30 74 1 72 23
M  V30 75 1 73 24
M  V30 76 1 74 24
M  V30 77 1 75 25
M  V30 78 1 76 25
M  V30 79 1 77 25
M  V30 80 1 78 30
M  V30 81 1 79 30
M  V30 82 1 31 80 CFG=1
M  V30 83 1 32 81 CFG=3
M  V30 84 1 82 33
M  V30 85 1 83 34
M  V30 86 1 84 34
M  V30 87 1 85 35
M  V30 88 1 86 35
M  V30 89 1 87 37
M  V30 90 1 88 37
M  V30 91 1 38 89 CFG=3
M  V30 END BOND
M  V30 END CTAB
M  END
>  <i_epik_Tot_Q>  (1) 
-2

>  <i_epik_Tot_abs_Q>  (1) 
2

>  <i_i_glide_confnum>  (1) 
807

>  <i_i_glide_lignum>  (1) 
20

>  <i_i_glide_posenum>  (1) 
200

>  <i_i_glide_rotatable_bonds>  (1) 
13

>  <i_lp_mmshare_version>  (1) 
72125

>  <i_m_source_file_index>  (1) 
2

>  <i_f3d_flags>  (1) 
0

>  <num_sample>  (1) 
50

>  <b_lp_Chiralities_Consistent>  (1) 
1

>  <r_epik_Charging_Adjusted_Penalty>  (1) 
1.8994269935217587

>  <r_epik_Ionization_Penalty>  (1) 
0.94971411018702601

>  <r_epik_Ionization_Penalty_Charging>  (1) 
0.94971349676087924

>  <r_epik_Ionization_Penalty_Neutral>  (1) 
6.1342614676121867e-07

>  <r_epik_State_Penalty>  (1) 
0.94971349676087935

>  <r_glide_ring_energy>  (1) 
0

>  <r_i_docking_score>  (1) 
-2.3005666738580777

>  <r_i_glide_ecoul>  (1) 
-1.32338173740512

>  <r_i_glide_eff_state_penalty>  (1) 
0.94971349676087935

>  <r_i_glide_einternal>  (1) 
6.3055382737716528

>  <r_i_glide_emodel>  (1) 
-35.46034484486897

>  <r_i_glide_emodel_strain>  (1) 
0.040278157024019379

>  <r_i_glide_energy>  (1) 
-32.30880273333679

>  <r_i_glide_erotb>  (1) 
0.50299043937721266

>  <r_i_glide_esite>  (1) 
0

>  <r_i_glide_evdw>  (1) 
-30.985420995931669

>  <r_i_glide_gscore>  (1) 
-3.2502801706189572

>  <r_i_glide_gscore_strain>  (1) 
0

>  <r_i_glide_hbond>  (1) 
0

>  <r_i_glide_ligand_efficiency>  (1) 
-0.060541228259423097

>  <r_i_glide_ligand_efficiency_ln>  (1) 
-0.49606985069875437

>  <r_i_glide_ligand_efficiency_sa>  (1) 
-0.2035381205055829

>  <r_i_glide_lipo>  (1) 
-1.658466079814007

>  <r_i_glide_metal>  (1) 
-0

>  <r_i_glide_rewards>  (1) 
-0.34702621977481168

>  <r_lp_Energy>  (1) 
44.677890999999995

>  <s_epik_cmdline>  (1) 
J2VwaWtfcHl0aG9uJywgJy1waHQnLCAnMS4wJywgJy1waCcsICc3LjQnLCAnLXRuJywgJzgnLCAnLW1hJywgJzUwMCcsICctaW1hZScsICc8aW5maWxlLm1hZT4nLCAnLW9tYWUnLCAnPG91dGZpbGUubWFlPic=

>  <s_epik_input>  (1) 
W0NIM11bQ0hdKFtDSDNdKVtDSDJdW0NIMl1bQ0BASF0oW09IXSlbQ0gyXVtDQEhdKFtDSDNdKU9bQ0gyXVtDQEBIXShbQ0gyXVtDSDJdMSlbQ0gyXVtDQEhdKFtDSDJdUCg9TykoW09IXSlbT0hdKVtDQEhdMVtDQEBIXShbQ0gyXVtDSDJdMilbQ0BASF0oW0NAXTIzW09IXSlbQ0BASF0oRilbQ0BIXShGKVtDSDJdW0NIMl1bQ0gyXVtDSDJdW0NIMl0z

>  <s_glide_docking_method>  (1) 
confgen

>  <s_i_glide_gridfile>  (1) 
gpcr_drd2_6luq_protein_autoprepared_prepared

>  <s_lp_Force_Field>  (1) 
S-OPLS

>  <s_lp_Variant>  (1) 
DiffSBDD_1-4

>  <s_m_source_file>  (1) 
generated_generic_title2_ligand_DiffSBDD_2026-06-23_prepared.sdf

>  <GenAI_Model>  (1) 
DiffSBDD

>  <Protein>  (1) 
generic_title2

$$$$
DiffSBDD_28
     RDKit          3D

  0  0  0  0  0  0  0  0  0  0999 V3000
M  V30 BEGIN CTAB
M  V30 COUNTS 78 85 0 0 1
M  V30 BEGIN ATOM
M  V30 1 F 8.665813 0.327713 -17.560732 0
M  V30 2 C 11.402299 7.821793 -7.513292 0 CFG=1
M  V30 3 C 8.702910 5.851959 -9.288362 0 CFG=2
M  V30 4 C 11.775222 7.064329 -4.808643 0 CFG=2
M  V30 5 C 6.286337 3.095217 -12.074407 0 CFG=1
M  V30 6 C 12.824025 7.954806 -8.031479 0
M  V30 7 C 8.344555 4.585682 -11.476371 0 CFG=2
M  V30 8 C 7.125317 0.877125 -15.130056 0 CFG=1
M  V30 9 C 9.557287 4.753038 -8.611849 0
M  V30 10 C 6.790367 2.791648 -13.481922 0 CFG=1
M  V30 11 C 11.055109 9.390656 -6.042131 0 CFG=1
M  V30 12 C 9.583418 6.799805 -11.310393 0
M  V30 13 C 11.379554 7.931918 -5.969402 0 CFG=1
M  V30 14 O 12.174156 10.168273 -5.700434 0
M  V30 15 C 8.198338 1.605328 -17.301929 0 CFG=1
M  V30 16 C 6.974287 4.044436 -11.127554 0 CFG=1
M  V30 17 O 5.840418 4.452458 -11.888402 0
M  V30 18 N 8.568092 5.873891 -10.775267 0 CFG=2 CHG=1
M  V30 19 O 11.775045 7.238425 -2.348213 0
M  V30 20 C 8.255462 2.525631 -18.573106 0
M  V30 21 O 10.406106 7.225591 -5.196519 0
M  V30 22 C 8.254494 3.271273 -13.636091 0
M  V30 23 C 10.811076 9.190128 -7.518457 0
M  V30 24 N 10.670948 6.783827 -8.258439 0
M  V30 25 C 12.277346 7.774555 -3.552372 0
M  V30 26 N 6.323561 -0.341448 -15.362081 0 CHG=1
M  V30 27 C 8.528770 4.645476 -13.003893 0
M  V30 28 C 4.966783 0.017810 -14.935846 0
M  V30 29 C 5.225977 0.863834 -13.701766 0
M  V30 30 O 7.322153 3.296008 -18.798130 0
M  V30 31 C 9.675855 7.889859 -10.247941 0
M  V30 32 C 7.001912 1.782689 -16.384608 0
M  V30 33 O 9.032636 2.633227 -17.409877 0
M  V30 34 N 6.583934 1.377291 -13.849908 0
M  V30 35 C 10.433012 5.531206 -7.620650 0
M  V30 36 C 12.327983 5.990253 -2.020900 0
M  V30 37 C 9.428647 7.139689 -8.925980 0 CFG=1
M  V30 38 H 7.715705 5.840862 -8.830830 0
M  V30 39 H 12.176136 6.077392 -5.022446 0
M  V30 40 H 5.775866 2.298001 -11.548908 0
M  V30 41 H 13.321162 8.877602 -7.729984 0
M  V30 42 H 13.404076 7.190194 -7.585040 0
M  V30 43 H 12.881901 7.909445 -9.120272 0
M  V30 44 H 9.073367 3.864548 -11.115324 0
M  V30 45 H 8.171364 0.602289 -14.986096 0
M  V30 46 H 10.174575 4.204200 -9.311898 0
M  V30 47 H 8.940519 4.029596 -8.074834 0
M  V30 48 H 6.181012 3.407917 -14.142989 0
M  V30 49 H 10.189204 9.693395 -5.465310 0
M  V30 50 H 9.306254 7.213172 -12.281692 0
M  V30 51 H 10.543967 6.296798 -11.427513 0
M  V30 52 H 11.928166 11.076738 -5.786587 0
M  V30 53 H 6.758254 3.964768 -10.064174 0
M  V30 54 H 8.523905 3.342070 -14.686504 0
M  V30 55 H 8.935401 2.537718 -13.198707 0
M  V30 56 H 9.741825 9.190326 -7.682574 0
M  V30 57 H 11.375498 9.839683 -8.199111 0
M  V30 58 H 13.369675 7.756790 -3.548473 0
M  V30 59 H 11.980004 8.822196 -3.561210 0
M  V30 60 H 6.672610 -1.079051 -14.762933 0
M  V30 61 H 7.879551 5.405599 -13.444590 0
M  V30 62 H 9.556058 4.926337 -13.242224 0
M  V30 63 H 4.306843 -0.809832 -14.753573 0
M  V30 64 H 4.488544 0.592644 -15.725822 0
M  V30 65 H 5.174714 0.236278 -12.807983 0
M  V30 66 H 4.480010 1.649942 -13.585715 0
M  V30 67 H 8.896109 8.636935 -10.399487 0
M  V30 68 H 10.630674 8.412096 -10.284898 0
M  V30 69 H 6.104279 1.556427 -16.963096 0
M  V30 70 H 6.913586 2.838577 -16.134077 0
M  V30 71 H 11.374631 5.043427 -7.366328 0
M  V30 72 H 9.854799 5.671723 -6.714687 0
M  V30 73 H 11.772357 5.590135 -1.184290 0
M  V30 74 H 12.248002 5.292918 -2.845466 0
M  V30 75 H 13.374939 6.046852 -1.739371 0
M  V30 76 H 8.755141 7.651795 -8.241800 0
M  V30 77 H 7.711675 6.401901 -10.905631 0
M  V30 78 H 6.357948 -0.652852 -16.321624 0
M  V30 END ATOM
M  V30 BEGIN BOND
M  V30 1 1 2 6 CFG=3
M  V30 2 1 9 3
M  V30 3 1 10 5
M  V30 4 1 13 2
M  V30 5 1 13 4
M  V30 6 1 13 11
M  V30 7 1 14 11
M  V30 8 1 15 1 CFG=3
M  V30 9 1 16 5
M  V30 10 1 16 7
M  V30 11 1 17 5
M  V30 12 1 17 16
M  V30 13 1 18 3
M  V30 14 1 18 7
M  V30 15 1 18 12
M  V30 16 1 20 15
M  V30 17 1 21 4
M  V30 18 1 13 21 CFG=1
M  V30 19 1 22 10
M  V30 20 1 23 2
M  V30 21 1 23 11
M  V30 22 1 24 2
M  V30 23 1 25 4
M  V30 24 1 25 19
M  V30 25 1 26 8
M  V30 26 1 27 7
M  V30 27 1 27 22
M  V30 28 1 28 26
M  V30 29 1 29 28
M  V30 30 2 30 20
M  V30 31 1 31 12
M  V30 32 1 32 8
M  V30 33 1 32 15
M  V30 34 1 33 15
M  V30 35 1 33 20
M  V30 36 1 34 8
M  V30 37 1 34 10
M  V30 38 1 34 29
M  V30 39 1 35 9
M  V30 40 1 35 24
M  V30 41 1 36 19
M  V30 42 1 37 3
M  V30 43 1 37 24
M  V30 44 1 37 31
M  V30 45 1 3 38 CFG=1
M  V30 46 1 4 39 CFG=3
M  V30 47 1 5 40 CFG=1
M  V30 48 1 41 6
M  V30 49 1 42 6
M  V30 50 1 43 6
M  V30 51 1 7 44 CFG=1
M  V30 52 1 8 45 CFG=1
M  V30 53 1 46 9
M  V30 54 1 47 9
M  V30 55 1 10 48 CFG=3
M  V30 56 1 11 49 CFG=1
M  V30 57 1 50 12
M  V30 58 1 51 12
M  V30 59 1 52 14
M  V30 60 1 16 53 CFG=1
M  V30 61 1 54 22
M  V30 62 1 55 22
M  V30 63 1 56 23
M  V30 64 1 57 23
M  V30 65 1 58 25
M  V30 66 1 59 25
M  V30 67 1 60 26
M  V30 68 1 61 27
M  V30 69 1 62 27
M  V30 70 1 63 28
M  V30 71 1 64 28
M  V30 72 1 65 29
M  V30 73 1 66 29
M  V30 74 1 67 31
M  V30 75 1 68 31
M  V30 76 1 69 32
M  V30 77 1 70 32
M  V30 78 1 71 35
M  V30 79 1 72 35
M  V30 80 1 73 36
M  V30 81 1 74 36
M  V30 82 1 75 36
M  V30 83 1 37 76 CFG=1
M  V30 84 1 18 77 CFG=1
M  V30 85 1 78 26
M  V30 END BOND
M  V30 END CTAB
M  END
>  <i_epik_Tot_Q>  (1) 
2

>  <i_epik_Tot_abs_Q>  (1) 
2

>  <i_i_glide_confnum>  (1) 
610

>  <i_i_glide_lignum>  (1) 
87

>  <i_i_glide_posenum>  (1) 
108

>  <i_i_glide_rotatable_bonds>  (1) 
8

>  <i_lp_mmshare_version>  (1) 
72125

>  <i_m_source_file_index>  (1) 
29

>  <i_f3d_flags>  (1) 
0

>  <num_sample>  (1) 
50

>  <b_lp_Chiralities_Consistent>  (1) 
1

>  <r_epik_Charging_Adjusted_Penalty>  (1) 
1.0492181154286748

>  <r_epik_Ionization_Penalty>  (1) 
0.8301501805432685

>  <r_epik_Ionization_Penalty_Charging>  (1) 
0.211122083805314

>  <r_epik_Ionization_Penalty_Neutral>  (1) 
0.61902809673795445

>  <r_epik_State_Penalty>  (1) 
0.83809603162336077

>  <r_glide_ring_energy>  (1) 
1.8960822993460273

>  <r_i_docking_score>  (1) 
-2.2631189426827358

>  <r_i_glide_ecoul>  (1) 
-6.3688863740729058

>  <r_i_glide_eff_state_penalty>  (1) 
0.83809603162336077

>  <r_i_glide_einternal>  (1) 
14.155563026743145

>  <r_i_glide_emodel>  (1) 
-16.643230956963539

>  <r_i_glide_emodel_strain>  (1) 
12.415766913764742

>  <r_i_glide_energy>  (1) 
-33.857064185405889

>  <r_i_glide_erotb>  (1) 
0.44856850619138583

>  <r_i_glide_esite>  (1) 
-0.071177053021781719

>  <r_i_glide_evdw>  (1) 
-27.488177811332985

>  <r_i_glide_gscore>  (1) 
-3.1012149743060968

>  <r_i_glide_gscore_strain>  (1) 
2.1039417284411854

>  <r_i_glide_hbond>  (1) 
-0.051838579903346144

>  <r_i_glide_ligand_efficiency>  (1) 
-0.061165376829263131

>  <r_i_glide_ligand_efficiency_ln>  (1) 
-0.49081744363236879

>  <r_i_glide_ligand_efficiency_sa>  (1) 
-0.20381660523462972

>  <r_i_glide_lipo>  (1) 
-2.4834975660713448

>  <r_i_glide_metal>  (1) 
-0

>  <r_i_glide_rewards>  (1) 
-0.71747016326461022

>  <r_lp_Energy>  (1) 
63.554969999999997

>  <s_epik_Chemistry_Notes>  (1) 
This compound has an ester and may undergo hydrolysis at high or low pH. This compound contains an acetal/aminal-like group ( X-CH(R)-Y where X, Y are N, S, or O) that may be acid/base labile, releasing an aldehyde.

>  <s_epik_cmdline>  (1) 
J2VwaWtfcHl0aG9uJywgJy1waHQnLCAnMS4wJywgJy1waCcsICc3LjQnLCAnLXRuJywgJzgnLCAnLW1hJywgJzUwMCcsICctaW1hZScsICc8aW5maWxlLm1hZT4nLCAnLW9tYWUnLCAnPG91dGZpbGUubWFlPic=

>  <s_epik_input>  (1) 
Tz1DKE8xKUMxKEYpW0NIMl1bQ0BASF0yW05IXVtDSDJdW0NIMl1OMltDQEBIXTNbQ0gyXVtDSDJdW0NASF0oW0NAQEhdKE80KVtDQEhdMzQpTjVbQ0gyXVtDSDJdW0NAQEhdKFtDQEhdNTYpTihbQ0gyXVtDSDJdNilbQ0BAXShbQ0gzXSkoW0NIMl1bQ0BASF03W09IXSlbQ0BAXTc4W0NASF0oTzgpW0NIMl1PW0NIM10=

>  <s_glide_docking_method>  (1) 
confgen

>  <s_i_glide_gridfile>  (1) 
gpcr_drd2_6luq_protein_autoprepared_prepared

>  <s_lp_Force_Field>  (1) 
S-OPLS

>  <s_lp_Variant>  (1) 
DiffSBDD_28-10

>  <s_m_source_file>  (1) 
generated_generic_title2_ligand_DiffSBDD_2026-06-23_prepared.sdf

>  <GenAI_Model>  (1) 
DiffSBDD

>  <Protein>  (1) 
generic_title2

$$$$
DiffSBDD_5
     RDKit          3D

  0  0  0  0  0  0  0  0  0  0999 V3000
M  V30 BEGIN CTAB
M  V30 COUNTS 64 67 0 0 1
M  V30 BEGIN ATOM
M  V30 1 C 6.362862 1.138474 -18.016281 0 CFG=1
M  V30 2 N 6.596060 2.828324 -13.202134 0
M  V30 3 C 6.240776 -0.161996 -12.398552 0
M  V30 4 C 6.663056 -0.254715 -18.546154 0
M  V30 5 C 6.101123 5.315973 -12.924379 0 CFG=2
M  V30 6 N 6.365697 1.138062 -16.544163 0
M  V30 7 C 6.508446 1.678644 -14.165009 0 CFG=1
M  V30 8 O 8.280672 1.964755 -19.200122 0 CHG=-1
M  V30 9 C 6.031227 -0.914125 -19.518264 0
M  V30 10 C 6.975409 1.921289 -15.632653 0
M  V30 11 C 9.455615 5.332703 -8.543011 0
M  V30 12 O 7.977005 3.283146 -13.093539 0
M  V30 13 C 7.730230 -2.586841 -19.122844 0 CFG=1
M  V30 14 C 7.146518 2.245153 -18.750187 0
M  V30 15 C 10.216758 7.154278 -11.015577 0
M  V30 16 C 8.010097 6.508726 -11.984962 0
M  V30 17 C 6.424198 -2.314832 -19.906759 0
M  V30 18 O 11.100299 6.126494 -6.975740 0 CHG=-1
M  V30 19 C 11.587443 8.552692 -7.851029 0
M  V30 20 O 9.375410 8.388141 -8.418705 0
M  V30 21 O 8.167103 7.233289 -12.968954 0
M  V30 22 C 10.943586 7.661269 -10.024930 0
M  V30 23 C 8.975403 6.400537 -10.853254 0
M  V30 24 O 6.573342 3.350675 -18.876075 0
M  V30 25 S 7.929048 -1.268862 -17.875560 0
M  V30 26 C 10.560426 7.638233 -8.589858 0 CFG=1
M  V30 27 C 7.066044 0.348141 -13.597566 0
M  V30 28 C 6.322830 5.173523 -14.383022 0
M  V30 29 Cl 7.735528 -4.210445 -18.385047 0
M  V30 30 C 5.525398 6.281297 -12.106684 0
M  V30 31 C 8.549952 0.494074 -13.299708 0
M  V30 32 C 8.649517 5.600735 -9.763796 0
M  V30 33 N 6.902181 5.758235 -11.814125 0
M  V30 34 O 7.824917 2.765555 -15.907444 0
M  V30 35 C 5.756280 3.991808 -13.499224 0 CFG=1
M  V30 36 C 10.372750 6.235708 -7.990448 0
M  V30 37 H 5.322148 1.323596 -18.279817 0
M  V30 38 H 6.279636 0.527811 -11.558166 0
M  V30 39 H 5.191953 -0.279747 -12.672015 0
M  V30 40 H 6.575413 -1.138086 -12.049271 0
M  V30 41 H 5.734256 0.459144 -16.147981 0
M  V30 42 H 5.445296 1.462202 -14.238935 0
M  V30 43 H 5.202711 -0.461180 -20.044903 0
M  V30 44 H 9.302409 4.390224 -8.041835 0
M  V30 45 H 8.208324 3.014484 -12.216566 0
M  V30 46 H 8.575452 -2.533415 -19.806692 0
M  V30 47 H 10.570140 7.320636 -12.023418 0
M  V30 48 H 5.624460 -2.996191 -19.614598 0
M  V30 49 H 6.573737 -2.397546 -20.983366 0
M  V30 50 H 12.589937 8.123239 -7.871310 0
M  V30 51 H 11.654100 9.538876 -8.311936 0
M  V30 52 H 11.316095 8.710665 -6.805740 0
M  V30 53 H 8.645978 7.891674 -8.785025 0
M  V30 54 H 11.849199 8.197627 -10.267585 0
M  V30 55 H 6.975903 -0.413621 -14.373380 0
M  V30 56 H 7.350852 5.134715 -14.737520 0
M  V30 57 H 5.623955 5.672517 -15.050073 0
M  V30 58 H 5.448086 7.302153 -12.477455 0
M  V30 59 H 4.774156 5.990717 -11.376645 0
M  V30 60 H 8.645838 1.059032 -12.385025 0
M  V30 61 H 9.133327 -0.409772 -13.220005 0
M  V30 62 H 8.989794 1.075120 -14.097801 0
M  V30 63 H 7.716444 5.065096 -9.806420 0
M  V30 64 H 4.685418 3.821805 -13.585021 0
M  V30 END ATOM
M  V30 BEGIN BOND
M  V30 1 1 4 1
M  V30 2 1 6 1
M  V30 3 1 7 2
M  V30 4 2 9 4
M  V30 5 1 10 6
M  V30 6 1 10 7
M  V30 7 1 12 2
M  V30 8 1 14 1
M  V30 9 1 14 8
M  V30 10 1 17 9
M  V30 11 1 17 13
M  V30 12 2 21 16
M  V30 13 2 22 15
M  V30 14 1 23 15
M  V30 15 1 23 16
M  V30 16 2 24 14
M  V30 17 1 25 4
M  V30 18 1 25 13
M  V30 19 1 26 19
M  V30 20 1 26 20 CFG=3
M  V30 21 1 26 22
M  V30 22 1 27 3
M  V30 23 1 27 7
M  V30 24 1 28 5
M  V30 25 1 29 13
M  V30 26 1 30 5
M  V30 27 1 31 27
M  V30 28 1 32 11
M  V30 29 2 32 23
M  V30 30 1 5 33 CFG=1
M  V30 31 1 33 16
M  V30 32 1 33 30
M  V30 33 2 34 10
M  V30 34 1 35 2
M  V30 35 1 35 5
M  V30 36 1 35 28
M  V30 37 2 36 11
M  V30 38 1 36 18
M  V30 39 1 36 26
M  V30 40 1 1 37 CFG=1
M  V30 41 1 38 3
M  V30 42 1 39 3
M  V30 43 1 40 3
M  V30 44 1 41 6
M  V30 45 1 7 42 CFG=3
M  V30 46 1 43 9
M  V30 47 1 44 11
M  V30 48 1 45 12
M  V30 49 1 13 46 CFG=3
M  V30 50 1 47 15
M  V30 51 1 48 17
M  V30 52 1 49 17
M  V30 53 1 50 19
M  V30 54 1 51 19
M  V30 55 1 52 19
M  V30 56 1 53 20
M  V30 57 1 54 22
M  V30 58 1 55 27
M  V30 59 1 56 28
M  V30 60 1 57 28
M  V30 61 1 58 30
M  V30 62 1 59 30
M  V30 63 1 60 31
M  V30 64 1 61 31
M  V30 65 1 62 31
M  V30 66 1 63 32
M  V30 67 1 35 64 CFG=3
M  V30 END BOND
M  V30 END CTAB
M  END
>  <i_epik_Tot_Q>  (1) 
-2

>  <i_epik_Tot_abs_Q>  (1) 
2

>  <i_i_glide_confnum>  (1) 
820

>  <i_i_glide_lignum>  (1) 
29

>  <i_i_glide_posenum>  (1) 
261

>  <i_i_glide_rotatable_bonds>  (1) 
12

>  <i_lp_mmshare_version>  (1) 
72125

>  <i_m_source_file_index>  (1) 
6

>  <i_f3d_flags>  (1) 
0

>  <num_sample>  (1) 
50

>  <b_lp_Chiralities_Consistent>  (1) 
1

>  <r_epik_Charging_Adjusted_Penalty>  (1) 
2.4843421674805191

>  <r_epik_Ionization_Penalty>  (1) 
1.2439101461513797

>  <r_epik_Ionization_Penalty_Charging>  (1) 
1.2421750937233493

>  <r_epik_Ionization_Penalty_Neutral>  (1) 
0.0017350524280304977

>  <r_epik_State_Penalty>  (1) 
1.2421670737571699

>  <r_glide_ring_energy>  (1) 
0

>  <r_i_docking_score>  (1) 
-2.1894479063055958

>  <r_i_glide_ecoul>  (1) 
-1.1226951016331244

>  <r_i_glide_eff_state_penalty>  (1) 
1.2421670737571699

>  <r_i_glide_einternal>  (1) 
14.513879397549132

>  <r_i_glide_emodel>  (1) 
-37.679145729027148

>  <r_i_glide_emodel_strain>  (1) 
0.45408829841122156

>  <r_i_glide_energy>  (1) 
-39.953072633763206

>  <r_i_glide_erotb>  (1) 
0.49960406782581518

>  <r_i_glide_esite>  (1) 
-0.13511768183382028

>  <r_i_glide_evdw>  (1) 
-38.830377532130079

>  <r_i_glide_gscore>  (1) 
-3.4316149800627658

>  <r_i_glide_gscore_strain>  (1) 
0

>  <r_i_glide_hbond>  (1) 
-0.1533681783517539

>  <r_i_glide_ligand_efficiency>  (1) 
-0.060817997397377664

>  <r_i_glide_ligand_efficiency_ln>  (1) 
-0.47767838110931393

>  <r_i_glide_ligand_efficiency_sa>  (1) 
-0.20081660282960384

>  <r_i_glide_lipo>  (1) 
-1.3810757875430999

>  <r_i_glide_metal>  (1) 
-0

>  <r_i_glide_rewards>  (1) 
-0.15173425830843412

>  <r_lp_Energy>  (1) 
60.102664999999995

>  <s_epik_Chemistry_Notes>  (1) 
This compound has a N-S or N-O group and may undergo hydrolysis at high or low pH.

>  <s_epik_cmdline>  (1) 
J2VwaWtfcHl0aG9uJywgJy1waHQnLCAnMS4wJywgJy1waCcsICc3LjQnLCAnLXRuJywgJzgnLCAnLW1hJywgJzUwMCcsICctaW1hZScsICc8aW5maWxlLm1hZT4nLCAnLW9tYWUnLCAnPG91dGZpbGUubWFlPic=

>  <s_epik_input>  (1) 
UzFbQ0BASF0oQ2wpW0NIMl1bQ0hdPUMxW0NASF0oQyg9TylbT0hdKVtOSF1DKD1PKVtDQEBIXShbQ0hdKFtDSDNdKVtDSDNdKU4oW09IXSlbQ0hdMltDSDJdQzIzW0NIMl1OM0MoPU8pQyhbQ0hdPVtDSF1bQ0BAXTQoW0NIM10pW09IXSk9W0NIXVtDSF09QzRbT0hd

>  <s_glide_docking_method>  (1) 
confgen

>  <s_i_glide_gridfile>  (1) 
gpcr_drd2_6luq_protein_autoprepared_prepared

>  <s_lp_Force_Field>  (1) 
S-OPLS

>  <s_lp_Variant>  (1) 
DiffSBDD_5-2

>  <s_m_source_file>  (1) 
generated_generic_title2_ligand_DiffSBDD_2026-06-23_prepared.sdf

>  <GenAI_Model>  (1) 
DiffSBDD

>  <Protein>  (1) 
generic_title2

$$$$
DiffSBDD_41
     RDKit          3D

  0  0  0  0  0  0  0  0  0  0999 V3000
M  V30 BEGIN CTAB
M  V30 COUNTS 77 81 0 0 1
M  V30 BEGIN ATOM
M  V30 1 C 8.823281 5.087999 -9.440930 0
M  V30 2 C 7.969695 7.470609 -13.158643 0
M  V30 3 C 2.975353 6.763500 -16.785099 0
M  V30 4 C 7.776327 5.271243 -8.398306 0
M  V30 5 C 9.550192 4.994715 -21.696039 0
M  V30 6 C 8.465391 4.527335 -20.931811 0
M  V30 7 C 7.545094 6.793770 -20.829636 0
M  V30 8 C 8.656093 7.265318 -21.599212 0
M  V30 9 C 6.950919 6.354998 -12.833530 0 CFG=1
M  V30 10 C 6.784063 6.835087 -17.909238 0
M  V30 11 C 9.804613 4.164346 -8.806000 0
M  V30 12 C 9.645864 6.359222 -22.027243 0
M  V30 13 C 7.467523 5.419924 -20.496816 0
M  V30 14 C 6.613943 5.254925 -13.902834 0 CFG=2
M  V30 15 C 6.047053 8.740647 -21.114003 0
M  V30 16 N 6.508511 7.705236 -20.353220 0
M  V30 17 C 7.137311 5.660031 -11.471917 0 CFG=2
M  V30 18 C 6.575948 7.357108 -16.440619 0
M  V30 19 C 6.135386 4.052328 -13.022713 0
M  V30 20 C 9.322691 4.440422 -11.946151 0
M  V30 21 C 7.821759 4.771186 -14.766109 0
M  V30 22 C 5.876658 7.474025 -19.020596 0 CFG=1
M  V30 23 O 6.393189 8.965847 -22.271138 0
M  V30 24 C 8.563472 5.298329 -10.952189 0 CFG=2
M  V30 25 C 7.954287 8.684196 -12.221358 0
M  V30 26 C 4.456801 6.915816 -19.071686 0
M  V30 27 C 4.106730 6.390335 -17.707329 0 CFG=1
M  V30 28 C 6.173140 4.476617 -11.549661 0
M  V30 29 C 9.376858 6.304415 -10.160727 0
M  V30 30 C 4.298032 7.338177 -16.548550 0 CFG=2
M  V30 31 F 8.793574 8.580249 -21.887274 0
M  V30 32 C 5.421912 5.663263 -14.845926 0
M  V30 33 C 5.384986 7.035881 -15.577915 0 CFG=1
M  V30 34 H 8.975269 7.070208 -13.183929 0
M  V30 35 H 7.768990 7.877732 -14.140715 0
M  V30 36 H 2.577103 5.989538 -16.130996 0
M  V30 37 H 2.370510 7.646852 -16.940425 0
M  V30 38 H 6.903433 5.591417 -8.911550 0
M  V30 39 H 7.480578 4.346764 -7.903745 0
M  V30 40 H 8.097868 5.991105 -7.646129 0
M  V30 41 H 10.314591 4.306014 -22.023803 0
M  V30 42 H 8.397048 3.480235 -20.677107 0
M  V30 43 H 6.008299 6.893655 -12.712036 0
M  V30 44 H 6.735327 5.747894 -17.905709 0
M  V30 45 H 7.813268 7.048185 -18.181887 0
M  V30 46 H 10.574620 4.774174 -8.365245 0
M  V30 47 H 9.375425 3.590608 -7.985117 0
M  V30 48 H 10.175391 3.450326 -9.524090 0
M  V30 49 H 10.489418 6.716879 -22.601137 0
M  V30 50 H 6.635790 5.047261 -19.918564 0
M  V30 51 H 5.307413 9.339770 -20.559811 0
M  V30 52 H 6.720849 6.387613 -10.785774 0
M  V30 53 H 7.375426 6.908556 -15.898295 0
M  V30 54 H 6.721253 8.435256 -16.384828 0
M  V30 55 H 5.133711 3.704438 -13.277495 0
M  V30 56 H 6.764625 3.171095 -13.140798 0
M  V30 57 H 10.304674 4.191654 -11.581460 0
M  V30 58 H 8.798471 3.508910 -12.151084 0
M  V30 59 H 9.514024 4.985921 -12.861954 0
M  V30 60 H 8.323762 3.889409 -14.375267 0
M  V30 61 H 7.514653 4.492116 -15.773428 0
M  V30 62 H 8.597732 5.527181 -14.873207 0
M  V30 63 H 5.682272 8.467621 -18.643525 0
M  V30 64 H 8.207488 9.582054 -12.786462 0
M  V30 65 H 6.981123 8.833139 -11.751330 0
M  V30 66 H 8.697388 8.607330 -11.433960 0
M  V30 67 H 3.775161 7.714648 -19.351080 0
M  V30 68 H 4.369941 6.108168 -19.800298 0
M  V30 69 H 4.575406 5.423261 -17.552891 0
M  V30 70 H 5.178286 4.811586 -11.252330 0
M  V30 71 H 6.444128 3.663808 -10.876222 0
M  V30 72 H 10.436676 6.373580 -10.388446 0
M  V30 73 H 8.975340 7.247427 -9.819249 0
M  V30 74 H 4.321340 8.390103 -16.795839 0
M  V30 75 H 4.508157 5.589590 -14.268533 0
M  V30 76 H 5.375457 4.894295 -15.585261 0
M  V30 77 H 5.326798 7.793707 -14.793869 0
M  V30 END ATOM
M  V30 BEGIN BOND
M  V30 1 1 4 1
M  V30 2 2 6 5
M  V30 3 1 8 7
M  V30 4 1 9 2
M  V30 5 1 11 1
M  V30 6 1 12 5
M  V30 7 2 12 8
M  V30 8 1 13 6
M  V30 9 2 13 7
M  V30 10 1 14 9
M  V30 11 1 16 7
M  V30 12 1 16 15
M  V30 13 1 17 9
M  V30 14 1 18 10
M  V30 15 1 19 14
M  V30 16 1 14 21 CFG=3
M  V30 17 1 22 10
M  V30 18 1 22 16
M  V30 19 2 23 15
M  V30 20 1 24 1
M  V30 21 1 24 17
M  V30 22 1 24 20 CFG=3
M  V30 23 1 25 2
M  V30 24 1 26 22
M  V30 25 1 27 3
M  V30 26 1 27 26
M  V30 27 1 28 17
M  V30 28 1 28 19
M  V30 29 1 29 1
M  V30 30 1 29 24
M  V30 31 1 30 3
M  V30 32 1 30 27
M  V30 33 1 31 8
M  V30 34 1 32 14
M  V30 35 1 33 18
M  V30 36 1 33 30
M  V30 37 1 33 32
M  V30 38 1 34 2
M  V30 39 1 35 2
M  V30 40 1 36 3
M  V30 41 1 37 3
M  V30 42 1 38 4
M  V30 43 1 39 4
M  V30 44 1 40 4
M  V30 45 1 41 5
M  V30 46 1 42 6
M  V30 47 1 9 43 CFG=1
M  V30 48 1 44 10
M  V30 49 1 45 10
M  V30 50 1 46 11
M  V30 51 1 47 11
M  V30 52 1 48 11
M  V30 53 1 49 12
M  V30 54 1 50 13
M  V30 55 1 51 15
M  V30 56 1 17 52 CFG=1
M  V30 57 1 53 18
M  V30 58 1 54 18
M  V30 59 1 55 19
M  V30 60 1 56 19
M  V30 61 1 57 20
M  V30 62 1 58 20
M  V30 63 1 59 20
M  V30 64 1 60 21
M  V30 65 1 61 21
M  V30 66 1 62 21
M  V30 67 1 22 63 CFG=1
M  V30 68 1 64 25
M  V30 69 1 65 25
M  V30 70 1 66 25
M  V30 71 1 67 26
M  V30 72 1 68 26
M  V30 73 1 27 69 CFG=1
M  V30 74 1 70 28
M  V30 75 1 71 28
M  V30 76 1 72 29
M  V30 77 1 73 29
M  V30 78 1 30 74 CFG=3
M  V30 79 1 75 32
M  V30 80 1 76 32
M  V30 81 1 33 77 CFG=1
M  V30 END BOND
M  V30 END CTAB
M  END
>  <i_epik_Tot_Q>  (1) 
0

>  <i_epik_Tot_abs_Q>  (1) 
0

>  <i_i_glide_confnum>  (1) 
208

>  <i_i_glide_lignum>  (1) 
116

>  <i_i_glide_posenum>  (1) 
164

>  <i_i_glide_rotatable_bonds>  (1) 
7

>  <i_lp_mmshare_version>  (1) 
72125

>  <i_m_source_file_index>  (1) 
42

>  <i_f3d_flags>  (1) 
0

>  <num_sample>  (1) 
50

>  <b_lp_Chiralities_Consistent>  (1) 
1

>  <r_epik_Charging_Adjusted_Penalty>  (1) 
0

>  <r_epik_Ionization_Penalty>  (1) 
1.2096700552292907e-05

>  <r_epik_Ionization_Penalty_Charging>  (1) 
0

>  <r_epik_Ionization_Penalty_Neutral>  (1) 
1.2096700552292907e-05

>  <r_epik_State_Penalty>  (1) 
-0

>  <r_glide_ring_energy>  (1) 
1.6429003315524058

>  <r_i_docking_score>  (1) 
-2.1657402211105259

>  <r_i_glide_ecoul>  (1) 
-0.22338552517229568

>  <r_i_glide_eff_state_penalty>  (1) 
-0

>  <r_i_glide_einternal>  (1) 
11.199787146112065

>  <r_i_glide_emodel>  (1) 
11.00149023496329

>  <r_i_glide_emodel_strain>  (1) 
8.437111696430776

>  <r_i_glide_energy>  (1) 
-1.4922825408488387

>  <r_i_glide_erotb>  (1) 
0.48765284155676775

>  <r_i_glide_esite>  (1) 
0

>  <r_i_glide_evdw>  (1) 
-1.2688970156765431

>  <r_i_glide_gscore>  (1) 
-2.1657402211105259

>  <r_i_glide_gscore_strain>  (1) 
1.109277924107694

>  <r_i_glide_hbond>  (1) 
0

>  <r_i_glide_ligand_efficiency>  (1) 
-0.065628491548803819

>  <r_i_glide_ligand_efficiency_ln>  (1) 
-0.48164941157225516

>  <r_i_glide_ligand_efficiency_sa>  (1) 
-0.21050563966862923

>  <r_i_glide_lipo>  (1) 
-2.1986100578414458

>  <r_i_glide_metal>  (1) 
-0

>  <r_i_glide_rewards>  (1) 
-1.4671082493738701

>  <r_lp_Energy>  (1) 
75.135584999999992

>  <r_lp_tautomer_probability>  (1) 
1

>  <s_epik_cmdline>  (1) 
J2VwaWtfcHl0aG9uJywgJy1waHQnLCAnMS4wJywgJy1waCcsICc3LjQnLCAnLXRuJywgJzgnLCAnLW1hJywgJzUwMCcsICctaW1hZScsICc8aW5maWxlLm1hZT4nLCAnLW9tYWUnLCAnPG91dGZpbGUubWFlPic=

>  <s_epik_input>  (1) 
W0NIM11DMShbQ0gzXSlbQ0BAXShbQ0gzXSkoW0NIMl0xKVtDQEhdKFtDSDJdW0NIMl0yKVtDQEBIXShbQ0gyXVtDSDNdKVtDQF0yKFtDSDNdKVtDSDJdW0NASF0oW0NASF0oW0NIMl0zKVtDQEBIXTM0KVtDSDJdW0NIMl1bQ0BIXShbQ0gyXTQpTihbQ0hdPU8pYzVjKEYpW2NIXVtjSF1bY0hdW2NIXTU=

>  <s_glide_docking_method>  (1) 
confgen

>  <s_i_glide_gridfile>  (1) 
gpcr_drd2_6luq_protein_autoprepared_prepared

>  <s_lp_Force_Field>  (1) 
S-OPLS

>  <s_lp_Variant>  (1) 
DiffSBDD_41-1

>  <s_m_source_file>  (1) 
generated_generic_title2_ligand_DiffSBDD_2026-06-23_prepared.sdf

>  <GenAI_Model>  (1) 
DiffSBDD

>  <Protein>  (1) 
generic_title2

$$$$
DiffSBDD_8
     RDKit          3D

  0  0  0  0  0  0  0  0  0  0999 V3000
M  V30 BEGIN CTAB
M  V30 COUNTS 69 72 0 0 1
M  V30 BEGIN ATOM
M  V30 1 N 5.965409 6.533174 -16.548512 0
M  V30 2 C 6.154011 5.744344 -19.811992 0
M  V30 3 C 8.462434 4.838417 -13.985002 0 CFG=1
M  V30 4 N 8.000890 4.262706 -19.747734 0
M  V30 5 O 5.382671 5.287533 -12.959129 0
M  V30 6 C 9.432253 6.477480 -10.774175 0
M  V30 7 F 9.401035 5.407917 -18.319964 0
M  V30 8 C 10.123105 6.395326 -9.391638 0
M  V30 9 N 8.379257 5.464875 -10.953103 0
M  V30 10 C 7.322742 5.883110 -11.895901 0 CFG=1
M  V30 11 C 8.451222 5.557559 -19.245265 0 CFG=2
M  V30 12 C 12.171629 8.882376 -4.953009 0
M  V30 13 C 7.630868 5.950815 -13.399114 0 CFG=2
M  V30 14 O 6.558576 3.591096 -11.969930 0
M  V30 15 O 8.984046 3.591339 -20.611564 0
M  V30 16 C 9.370696 7.182712 -8.304433 0
M  V30 17 C 5.681343 7.252748 -14.202151 0
M  V30 18 C 5.493621 7.828471 -17.060290 0
M  V30 19 C 5.483628 6.178423 -15.244111 0 CFG=2
M  V30 20 C 7.146148 6.178109 -18.717691 0 CFG=2
M  V30 21 C 6.686101 5.678337 -17.316072 0
M  V30 22 C 9.277370 5.034540 -15.243702 0
M  V30 23 C 6.130742 4.923088 -11.851037 0 CFG=2
M  V30 24 C 6.227063 5.898075 -13.936045 0 CFG=2
M  V30 25 O 12.032685 9.393861 -3.645189 0
M  V30 26 O 6.981690 4.547535 -16.937704 0
M  V30 27 C 11.012646 9.390473 -5.824779 0
M  V30 28 C 9.675721 4.466755 -21.504016 0
M  V30 29 C 6.778670 4.516830 -20.501949 0
M  V30 30 O 10.763474 8.690430 -7.044875 0
M  V30 31 C 10.148037 7.488326 -7.019880 0
M  V30 32 N 9.836117 5.190241 -13.921561 0 CHG=1
M  V30 33 O 10.171764 6.703961 -6.074058 0
M  V30 34 H 5.164110 5.510301 -19.415357 0
M  V30 35 H 6.018088 6.548497 -20.536169 0
M  V30 36 H 8.317969 3.819082 -13.641131 0
M  V30 37 H 9.023378 7.481805 -10.896142 0
M  V30 38 H 10.183676 6.364482 -11.553378 0
M  V30 39 H 11.133303 6.795584 -9.480397 0
M  V30 40 H 10.214731 5.354852 -9.079751 0
M  V30 41 H 7.934611 5.346295 -10.044370 0
M  V30 42 H 6.928522 6.852780 -11.585730 0
M  V30 43 H 8.840748 6.220521 -20.016317 0
M  V30 44 H 13.131362 9.191752 -5.366471 0
M  V30 45 H 12.164943 7.797815 -4.853063 0
M  V30 46 H 8.098959 6.907998 -13.633302 0
M  V30 47 H 7.394104 3.538328 -11.525858 0
M  V30 48 H 8.486270 6.615020 -8.017650 0
M  V30 49 H 8.987747 8.124334 -8.704621 0
M  V30 50 H 4.959301 7.584730 -13.474225 0
M  V30 51 H 6.425376 7.990353 -14.455115 0
M  V30 52 H 5.296966 7.862387 -18.133594 0
M  V30 53 H 4.535589 8.072091 -16.598065 0
M  V30 54 H 6.175913 8.627669 -16.783221 0
M  V30 55 H 4.573749 5.615239 -15.269011 0
M  V30 56 H 7.300511 7.254717 -18.716294 0
M  V30 57 H 9.713397 4.180501 -15.756008 0
M  V30 58 H 9.279853 5.988596 -15.762811 0
M  V30 59 H 5.540658 5.014062 -10.936768 0
M  V30 60 H 11.985708 10.335995 -3.684707 0
M  V30 61 H 10.110442 9.353901 -5.228266 0
M  V30 62 H 11.165509 10.444362 -6.056784 0
M  V30 63 H 10.232403 3.858541 -22.216903 0
M  V30 64 H 9.016500 5.111301 -22.083995 0
M  V30 65 H 10.411651 5.079288 -20.982411 0
M  V30 66 H 6.125459 3.644825 -20.462229 0
M  V30 67 H 6.972824 4.739131 -21.550509 0
M  V30 68 H 10.034204 6.142364 -13.655661 0
M  V30 69 H 10.497902 4.464934 -13.659062 0
M  V30 END ATOM
M  V30 BEGIN BOND
M  V30 1 1 8 6
M  V30 2 1 9 6
M  V30 3 1 10 9
M  V30 4 1 11 4
M  V30 5 1 11 7
M  V30 6 1 13 3
M  V30 7 1 13 10
M  V30 8 1 15 4
M  V30 9 1 16 8
M  V30 10 1 18 1
M  V30 11 1 19 1
M  V30 12 1 19 17
M  V30 13 1 20 2
M  V30 14 1 20 11
M  V30 15 1 21 1
M  V30 16 1 21 20
M  V30 17 1 22 3
M  V30 18 1 23 5
M  V30 19 1 23 10
M  V30 20 1 23 14
M  V30 21 1 24 5 CFG=1
M  V30 22 1 24 13
M  V30 23 1 24 17
M  V30 24 1 24 19
M  V30 25 1 25 12
M  V30 26 2 26 21
M  V30 27 1 27 12
M  V30 28 1 28 15
M  V30 29 1 29 2
M  V30 30 1 29 4
M  V30 31 1 30 27
M  V30 32 1 31 16
M  V30 33 1 31 30
M  V30 34 1 32 3
M  V30 35 1 32 22
M  V30 36 2 33 31
M  V30 37 1 34 2
M  V30 38 1 35 2
M  V30 39 1 3 36 CFG=1
M  V30 40 1 37 6
M  V30 41 1 38 6
M  V30 42 1 39 8
M  V30 43 1 40 8
M  V30 44 1 41 9
M  V30 45 1 10 42 CFG=1
M  V30 46 1 11 43 CFG=3
M  V30 47 1 44 12
M  V30 48 1 45 12
M  V30 49 1 13 46 CFG=1
M  V30 50 1 47 14
M  V30 51 1 48 16
M  V30 52 1 49 16
M  V30 53 1 50 17
M  V30 54 1 51 17
M  V30 55 1 52 18
M  V30 56 1 53 18
M  V30 57 1 54 18
M  V30 58 1 19 55 CFG=3
M  V30 59 1 20 56 CFG=1
M  V30 60 1 57 22
M  V30 61 1 58 22
M  V30 62 1 23 59 CFG=1
M  V30 63 1 60 25
M  V30 64 1 61 27
M  V30 65 1 62 27
M  V30 66 1 63 28
M  V30 67 1 64 28
M  V30 68 1 65 28
M  V30 69 1 66 29
M  V30 70 1 67 29
M  V30 71 1 68 32
M  V30 72 1 69 32
M  V30 END BOND
M  V30 END CTAB
M  END
>  <i_epik_Tot_Q>  (1) 
1

>  <i_epik_Tot_abs_Q>  (1) 
1

>  <i_i_glide_confnum>  (1) 
6424

>  <i_i_glide_lignum>  (1) 
38

>  <i_i_glide_posenum>  (1) 
65

>  <i_i_glide_rotatable_bonds>  (1) 
15

>  <i_lp_mmshare_version>  (1) 
72125

>  <i_m_source_file_index>  (1) 
9

>  <i_f3d_flags>  (1) 
0

>  <num_sample>  (1) 
50

>  <b_lp_Chiralities_Consistent>  (1) 
1

>  <r_epik_Charging_Adjusted_Penalty>  (1) 
1.2103720943885907

>  <r_epik_Ionization_Penalty>  (1) 
0.55446808147534954

>  <r_epik_Ionization_Penalty_Charging>  (1) 
0.13553905892425583

>  <r_epik_Ionization_Penalty_Neutral>  (1) 
0.41892902255109377

>  <r_epik_State_Penalty>  (1) 
1.074833035464335

>  <r_glide_ring_energy>  (1) 
0

>  <r_i_docking_score>  (1) 
-2.1604423156553758

>  <r_i_glide_ecoul>  (1) 
-5.1788689531225645

>  <r_i_glide_eff_state_penalty>  (1) 
1.074833035464335

>  <r_i_glide_einternal>  (1) 
38.487979955943501

>  <r_i_glide_emodel>  (1) 
-20.301390419896549

>  <r_i_glide_emodel_strain>  (1) 
5.8444757468072055

>  <r_i_glide_energy>  (1) 
-36.070360944530684

>  <r_i_glide_erotb>  (1) 
1.0741905119875848

>  <r_i_glide_esite>  (1) 
-0.02218708053823322

>  <r_i_glide_evdw>  (1) 
-30.891491991408117

>  <r_i_glide_gscore>  (1) 
-3.2352753511197108

>  <r_i_glide_gscore_strain>  (1) 
0.46111893670180137

>  <r_i_glide_hbond>  (1) 
0

>  <r_i_glide_ligand_efficiency>  (1) 
-0.065467948959253813

>  <r_i_glide_ligand_efficiency_ln>  (1) 
-0.48047118483011614

>  <r_i_glide_ligand_efficiency_sa>  (1) 
-0.20999069380122115

>  <r_i_glide_lipo>  (1) 
-1.5491606016845307

>  <r_i_glide_metal>  (1) 
-0

>  <r_i_glide_rewards>  (1) 
-0.87783217504754185

>  <r_lp_Energy>  (1) 
41.909411999999996

>  <s_epik_Chemistry_Notes>  (1) 
This compound has an ester and may undergo hydrolysis at high or low pH. This compound contains an acetal/aminal-like group ( X-CH(R)-Y where X, Y are N, S, or O) that may be acid/base labile, releasing an aldehyde. This compound has a N-S or N-O group and may undergo hydrolysis at high or low pH.

>  <s_epik_cmdline>  (1) 
J2VwaWtfcHl0aG9uJywgJy1waHQnLCAnMS4wJywgJy1waCcsICc3LjQnLCAnLXRuJywgJzgnLCAnLW1hJywgJzUwMCcsICctaW1hZScsICc8aW5maWxlLm1hZT4nLCAnLW9tYWUnLCAnPG91dGZpbGUubWFlPic=

>  <s_epik_input>  (1) 
W0NIM11PTjFbQ0BIXShGKVtDQEBIXShbQ0gyXVtDSDJdMSlDKD1PKU4oW0NIM10pW0NASF0yW0NIMl1DMjNPW0NAQEhdKFtPSF0pW0NASF0oW0NASF0zW0NASF00W0NIMl1bTkhdNClbTkhdW0NIMl1bQ0gyXVtDSDJdQyg9TylPW0NIMl1bQ0gyXVtPSF0=

>  <s_glide_docking_method>  (1) 
confgen

>  <s_i_glide_gridfile>  (1) 
gpcr_drd2_6luq_protein_autoprepared_prepared

>  <s_lp_Force_Field>  (1) 
S-OPLS

>  <s_lp_Variant>  (1) 
DiffSBDD_8-7

>  <s_m_source_file>  (1) 
generated_generic_title2_ligand_DiffSBDD_2026-06-23_prepared.sdf

>  <GenAI_Model>  (1) 
DiffSBDD

>  <Protein>  (1) 
generic_title2

$$$$
DiffSBDD_8
     RDKit          3D

  0  0  0  0  0  0  0  0  0  0999 V3000
M  V30 BEGIN CTAB
M  V30 COUNTS 69 72 0 0 1
M  V30 BEGIN ATOM
M  V30 1 N 5.607423 6.656934 -15.366053 0
M  V30 2 C 5.019356 6.429708 -18.560892 0
M  V30 3 C 8.693859 5.927774 -14.272012 0 CFG=1
M  V30 4 N 6.543689 4.716620 -19.160937 0
M  V30 5 O 6.481360 4.921112 -12.171722 0
M  V30 6 C 9.962666 6.806877 -9.874667 0
M  V30 7 F 8.442880 5.465683 -18.096909 0
M  V30 8 C 9.319301 5.897448 -8.793061 0
M  V30 9 N 9.680732 6.397597 -11.274356 0 CHG=1
M  V30 10 C 8.258203 6.360060 -11.659506 0 CFG=1
M  V30 11 C 7.311977 5.858733 -18.688365 0 CFG=2
M  V30 12 C 13.158030 9.030055 -8.527732 0
M  V30 13 C 7.903363 6.562191 -13.129856 0 CFG=2
M  V30 14 O 8.475387 3.990191 -11.438712 0
M  V30 15 O 7.202276 4.238770 -20.344307 0
M  V30 16 C 9.806753 6.051217 -7.337417 0
M  V30 17 C 5.375471 6.930087 -12.758601 0
M  V30 18 C 5.120963 8.016986 -15.603879 0
M  V30 19 C 5.375404 6.103237 -14.052275 0 CFG=2
M  V30 20 C 6.317130 6.570748 -17.750543 0 CFG=2
M  V30 21 C 6.185285 5.928349 -16.349288 0
M  V30 22 C 9.993758 5.190303 -14.197618 0
M  V30 23 C 7.553592 5.044251 -11.295629 0 CFG=2
M  V30 24 C 6.511281 6.012626 -13.078715 0 CFG=2
M  V30 25 O 13.757402 7.961633 -9.185058 0
M  V30 26 O 6.598572 4.790277 -16.157985 0
M  V30 27 C 12.334128 8.780230 -7.265930 0
M  V30 28 C 7.146044 2.822453 -20.292378 0
M  V30 29 C 5.311267 5.346894 -19.611322 0
M  V30 30 O 11.634282 7.564845 -7.413580 0
M  V30 31 C 10.380805 7.417336 -6.989299 0
M  V30 32 N 8.732916 4.481335 -14.264148 0
M  V30 33 O 9.729262 8.267679 -6.385058 0
M  V30 34 H 4.174963 6.146929 -17.933859 0
M  V30 35 H 4.753074 7.369554 -19.045714 0
M  V30 36 H 8.499144 6.390254 -15.233213 0
M  V30 37 H 9.643783 7.840956 -9.736222 0
M  V30 38 H 11.045936 6.790830 -9.769902 0
M  V30 39 H 9.467162 4.852638 -9.067362 0
M  V30 40 H 8.244039 6.056884 -8.771181 0
M  V30 41 H 10.163122 7.027454 -11.896714 0
M  V30 42 H 7.747770 7.188471 -11.185034 0
M  V30 43 H 7.595873 6.508547 -19.519736 0
M  V30 44 H 14.053563 9.569757 -8.201785 0
M  V30 45 H 12.575090 9.590222 -9.259724 0
M  V30 46 H 7.867766 7.631628 -13.346140 0
M  V30 47 H 7.984336 3.198113 -11.599813 0
M  V30 48 H 10.604565 5.330330 -7.162738 0
M  V30 49 H 9.002798 5.802922 -6.644508 0
M  V30 50 H 4.810606 6.621446 -11.882197 0
M  V30 51 H 5.581324 7.990211 -12.787028 0
M  V30 52 H 4.430515 8.066418 -16.444848 0
M  V30 53 H 4.575417 8.390170 -14.745984 0
M  V30 54 H 5.947492 8.705998 -15.782512 0
M  V30 55 H 4.704532 5.245446 -14.039367 0
M  V30 56 H 6.630471 7.590229 -17.636232 0
M  V30 57 H 10.617419 5.182442 -15.089993 0
M  V30 58 H 10.531812 5.190227 -13.257270 0
M  V30 59 H 7.156883 5.016232 -10.282299 0
M  V30 60 H 14.329805 8.333375 -9.841013 0
M  V30 61 H 12.969294 8.790241 -6.385392 0
M  V30 62 H 11.648700 9.617860 -7.130498 0
M  V30 63 H 7.642461 2.403229 -21.166815 0
M  V30 64 H 7.647292 2.434408 -19.403802 0
M  V30 65 H 6.114872 2.464735 -20.292737 0
M  V30 66 H 4.513358 4.614173 -19.710443 0
M  V30 67 H 5.461993 5.811321 -20.587417 0
M  V30 68 H 8.458070 4.044291 -15.136357 0
M  V30 69 H 10.011685 5.451501 -11.422750 0
M  V30 END ATOM
M  V30 BEGIN BOND
M  V30 1 1 8 6
M  V30 2 1 9 6
M  V30 3 1 10 9
M  V30 4 1 11 4
M  V30 5 1 11 7
M  V30 6 1 13 3
M  V30 7 1 13 10
M  V30 8 1 15 4
M  V30 9 1 16 8
M  V30 10 1 18 1
M  V30 11 1 19 1
M  V30 12 1 19 17
M  V30 13 1 20 2
M  V30 14 1 20 11
M  V30 15 1 21 1
M  V30 16 1 21 20
M  V30 17 1 22 3
M  V30 18 1 23 5
M  V30 19 1 23 10
M  V30 20 1 23 14
M  V30 21 1 24 5 CFG=1
M  V30 22 1 24 13
M  V30 23 1 24 17
M  V30 24 1 24 19
M  V30 25 1 25 12
M  V30 26 2 26 21
M  V30 27 1 27 12
M  V30 28 1 28 15
M  V30 29 1 29 2
M  V30 30 1 29 4
M  V30 31 1 30 27
M  V30 32 1 31 16
M  V30 33 1 31 30
M  V30 34 1 32 3
M  V30 35 1 32 22
M  V30 36 2 33 31
M  V30 37 1 34 2
M  V30 38 1 35 2
M  V30 39 1 3 36 CFG=3
M  V30 40 1 37 6
M  V30 41 1 38 6
M  V30 42 1 39 8
M  V30 43 1 40 8
M  V30 44 1 41 9
M  V30 45 1 10 42 CFG=1
M  V30 46 1 11 43 CFG=3
M  V30 47 1 44 12
M  V30 48 1 45 12
M  V30 49 1 13 46 CFG=3
M  V30 50 1 47 14
M  V30 51 1 48 16
M  V30 52 1 49 16
M  V30 53 1 50 17
M  V30 54 1 51 17
M  V30 55 1 52 18
M  V30 56 1 53 18
M  V30 57 1 54 18
M  V30 58 1 19 55 CFG=3
M  V30 59 1 20 56 CFG=1
M  V30 60 1 57 22
M  V30 61 1 58 22
M  V30 62 1 23 59 CFG=1
M  V30 63 1 60 25
M  V30 64 1 61 27
M  V30 65 1 62 27
M  V30 66 1 63 28
M  V30 67 1 64 28
M  V30 68 1 65 28
M  V30 69 1 66 29
M  V30 70 1 67 29
M  V30 71 1 68 32
M  V30 72 1 69 9
M  V30 END BOND
M  V30 END CTAB
M  END
>  <i_epik_Tot_Q>  (1) 
1

>  <i_epik_Tot_abs_Q>  (1) 
1

>  <i_i_glide_confnum>  (1) 
2211

>  <i_i_glide_lignum>  (1) 
34

>  <i_i_glide_posenum>  (1) 
67

>  <i_i_glide_rotatable_bonds>  (1) 
15

>  <i_lp_mmshare_version>  (1) 
72125

>  <i_m_source_file_index>  (1) 
9

>  <i_f3d_flags>  (1) 
0

>  <num_sample>  (1) 
50

>  <b_lp_Chiralities_Consistent>  (1) 
1

>  <r_epik_Charging_Adjusted_Penalty>  (1) 
0.31458683345696248

>  <r_epik_Ionization_Penalty>  (1) 
0.14300301403106822

>  <r_epik_Ionization_Penalty_Charging>  (1) 
0.065080964065447874

>  <r_epik_Ionization_Penalty_Neutral>  (1) 
0.077922049965620341

>  <r_epik_State_Penalty>  (1) 
0.24950586939151459

>  <r_glide_ring_energy>  (1) 
0

>  <r_i_docking_score>  (1) 
-2.1511184215092154

>  <r_i_glide_ecoul>  (1) 
-4.921275097217265

>  <r_i_glide_eff_state_penalty>  (1) 
0.24950586939151459

>  <r_i_glide_einternal>  (1) 
34.747555111865275

>  <r_i_glide_emodel>  (1) 
-2.3063596225292784

>  <r_i_glide_emodel_strain>  (1) 
6.2828633366006414

>  <r_i_glide_energy>  (1) 
-19.344947633442942

>  <r_i_glide_erotb>  (1) 
1.0741905119875848

>  <r_i_glide_esite>  (1) 
-0.068940987431048401

>  <r_i_glide_evdw>  (1) 
-14.423672536225677

>  <r_i_glide_gscore>  (1) 
-2.4006242909007298

>  <r_i_glide_gscore_strain>  (1) 
0.57071583415016036

>  <r_i_glide_hbond>  (1) 
0

>  <r_i_glide_ligand_efficiency>  (1) 
-0.065185406712400473

>  <r_i_glide_ligand_efficiency_ln>  (1) 
-0.47839759904855023

>  <r_i_glide_ligand_efficiency_sa>  (1) 
-0.20908442984476489

>  <r_i_glide_lipo>  (1) 
-1.2986416163487771

>  <r_i_glide_metal>  (1) 
-0

>  <r_i_glide_rewards>  (1) 
-1.2185731418647754

>  <r_lp_Energy>  (1) 
39.880201

>  <s_epik_Chemistry_Notes>  (1) 
This compound has an ester and may undergo hydrolysis at high or low pH. This compound contains an acetal/aminal-like group ( X-CH(R)-Y where X, Y are N, S, or O) that may be acid/base labile, releasing an aldehyde. This compound has a N-S or N-O group and may undergo hydrolysis at high or low pH.

>  <s_epik_cmdline>  (1) 
J2VwaWtfcHl0aG9uJywgJy1waHQnLCAnMS4wJywgJy1waCcsICc3LjQnLCAnLXRuJywgJzgnLCAnLW1hJywgJzUwMCcsICctaW1hZScsICc8aW5maWxlLm1hZT4nLCAnLW9tYWUnLCAnPG91dGZpbGUubWFlPic=

>  <s_epik_input>  (1) 
W0NIM11PTjFbQ0BIXShGKVtDQEBIXShbQ0gyXVtDSDJdMSlDKD1PKU4oW0NIM10pW0NASF0yW0NIMl1DMjNPW0NAQEhdKFtPSF0pW0NASF0oW0NASF0zW0NASF00W0NIMl1bTkhdNClbTkhdW0NIMl1bQ0gyXVtDSDJdQyg9TylPW0NIMl1bQ0gyXVtPSF0=

>  <s_glide_docking_method>  (1) 
confgen

>  <s_i_glide_gridfile>  (1) 
gpcr_drd2_6luq_protein_autoprepared_prepared

>  <s_lp_Force_Field>  (1) 
S-OPLS

>  <s_lp_Variant>  (1) 
DiffSBDD_8-3

>  <s_m_source_file>  (1) 
generated_generic_title2_ligand_DiffSBDD_2026-06-23_prepared.sdf

>  <GenAI_Model>  (1) 
DiffSBDD

>  <Protein>  (1) 
generic_title2

$$$$
DiffSBDD_8
     RDKit          3D

  0  0  0  0  0  0  0  0  0  0999 V3000
M  V30 BEGIN CTAB
M  V30 COUNTS 69 72 0 0 1
M  V30 BEGIN ATOM
M  V30 1 N 7.144018 3.151486 -15.028567 0
M  V30 2 C 9.874459 3.363119 -17.232716 0
M  V30 3 C 7.145871 6.419691 -12.662604 0 CFG=1
M  V30 4 N 9.072036 4.003332 -19.361332 0
M  V30 5 O 8.873412 3.637510 -12.871830 0
M  V30 6 C 9.365627 6.782399 -9.322526 0
M  V30 7 F 6.815635 4.022981 -18.927951 0
M  V30 8 C 10.553689 6.164387 -8.589275 0
M  V30 9 N 9.392126 6.502563 -10.762505 0
M  V30 10 C 8.845085 5.192171 -11.150451 0 CFG=1
M  V30 11 C 8.013435 4.299607 -18.409477 0 CFG=1
M  V30 12 C 11.892926 7.066266 -3.050154 0
M  V30 13 C 7.446852 5.218518 -11.777382 0 CFG=2
M  V30 14 O 10.098539 5.590230 -13.206090 0
M  V30 15 O 9.148469 5.147990 -20.229287 0
M  V30 16 C 10.544298 6.342104 -7.063383 0
M  V30 17 C 6.616685 2.801333 -12.518131 0
M  V30 18 C 6.970441 1.722504 -15.328464 0
M  V30 19 C 6.568114 3.622315 -13.794727 0 CFG=1
M  V30 20 C 8.341289 3.405298 -17.205604 0 CFG=2
M  V30 21 C 7.773369 3.995585 -15.890621 0
M  V30 22 C 5.775443 7.036093 -12.672044 0
M  V30 23 C 9.683203 4.601974 -12.289940 0 CFG=2
M  V30 24 C 7.515787 4.001026 -12.672555 0 CFG=2
M  V30 25 O 11.268568 6.390310 -1.985019 0
M  V30 26 O 7.900838 5.198517 -15.657437 0
M  V30 27 C 11.249173 6.662399 -4.382679 0
M  V30 28 C 8.861746 4.694485 -21.541520 0
M  V30 29 C 10.270262 4.062416 -18.536444 0
M  V30 30 O 11.327369 7.775249 -5.264817 0
M  V30 31 C 10.980088 7.735682 -6.576632 0
M  V30 32 N 6.893408 7.664367 -11.985027 0 CHG=1
M  V30 33 O 11.009011 8.705892 -7.330525 0
M  V30 34 H 10.339331 3.866158 -16.384728 0
M  V30 35 H 10.220260 2.328408 -17.230994 0
M  V30 36 H 7.800662 6.610837 -13.507460 0
M  V30 37 H 8.448424 6.390229 -8.880095 0
M  V30 38 H 9.369530 7.860304 -9.161281 0
M  V30 39 H 11.469850 6.584131 -8.999807 0
M  V30 40 H 10.571698 5.094693 -8.784813 0
M  V30 41 H 10.336740 6.589675 -11.124984 0
M  V30 42 H 8.872376 4.476609 -10.326108 0
M  V30 43 H 8.025995 5.361080 -18.150105 0
M  V30 44 H 11.775624 8.135994 -2.870897 0
M  V30 45 H 12.963939 6.860333 -3.053389 0
M  V30 46 H 6.670256 5.103664 -11.018247 0
M  V30 47 H 10.793206 5.187588 -13.715356 0
M  V30 48 H 11.243567 5.602494 -6.680178 0
M  V30 49 H 9.562074 6.102626 -6.654817 0
M  V30 50 H 7.097451 1.824708 -12.528682 0
M  V30 51 H 5.775418 2.896400 -11.835774 0
M  V30 52 H 6.394643 1.577249 -16.243413 0
M  V30 53 H 7.934139 1.221777 -15.430407 0
M  V30 54 H 6.410669 1.195398 -14.556885 0
M  V30 55 H 5.674482 4.234308 -13.906087 0
M  V30 56 H 7.975302 2.411969 -17.456678 0
M  V30 57 H 5.454388 7.590284 -13.549148 0
M  V30 58 H 5.022747 6.741462 -11.943848 0
M  V30 59 H 10.575312 4.100539 -11.953339 0
M  V30 60 H 11.325379 5.452180 -2.118251 0
M  V30 61 H 11.770507 5.787134 -4.767896 0
M  V30 62 H 10.199665 6.392408 -4.249375 0
M  V30 63 H 8.909257 5.534840 -22.233617 0
M  V30 64 H 9.584619 3.947941 -21.874156 0
M  V30 65 H 7.859588 4.268163 -21.604186 0
M  V30 66 H 10.531453 5.101869 -18.329952 0
M  V30 67 H 11.121850 3.590854 -19.027193 0
M  V30 68 H 6.968523 7.590185 -10.960386 0
M  V30 69 H 7.364050 8.432379 -12.437039 0
M  V30 END ATOM
M  V30 BEGIN BOND
M  V30 1 1 8 6
M  V30 2 1 9 6
M  V30 3 1 10 9
M  V30 4 1 11 4
M  V30 5 1 11 7
M  V30 6 1 13 3
M  V30 7 1 13 10
M  V30 8 1 15 4
M  V30 9 1 16 8
M  V30 10 1 18 1
M  V30 11 1 19 1
M  V30 12 1 19 17
M  V30 13 1 20 2
M  V30 14 1 20 11
M  V30 15 1 21 1
M  V30 16 1 21 20
M  V30 17 1 22 3
M  V30 18 1 23 5
M  V30 19 1 23 10
M  V30 20 1 23 14
M  V30 21 1 24 5 CFG=3
M  V30 22 1 24 13
M  V30 23 1 24 17
M  V30 24 1 24 19
M  V30 25 1 25 12
M  V30 26 2 26 21
M  V30 27 1 27 12
M  V30 28 1 28 15
M  V30 29 1 29 2
M  V30 30 1 29 4
M  V30 31 1 30 27
M  V30 32 1 31 16
M  V30 33 1 31 30
M  V30 34 1 32 3
M  V30 35 1 32 22
M  V30 36 2 33 31
M  V30 37 1 34 2
M  V30 38 1 35 2
M  V30 39 1 3 36 CFG=3
M  V30 40 1 37 6
M  V30 41 1 38 6
M  V30 42 1 39 8
M  V30 43 1 40 8
M  V30 44 1 41 9
M  V30 45 1 10 42 CFG=1
M  V30 46 1 11 43 CFG=1
M  V30 47 1 44 12
M  V30 48 1 45 12
M  V30 49 1 13 46 CFG=1
M  V30 50 1 47 14
M  V30 51 1 48 16
M  V30 52 1 49 16
M  V30 53 1 50 17
M  V30 54 1 51 17
M  V30 55 1 52 18
M  V30 56 1 53 18
M  V30 57 1 54 18
M  V30 58 1 19 55 CFG=3
M  V30 59 1 20 56 CFG=3
M  V30 60 1 57 22
M  V30 61 1 58 22
M  V30 62 1 23 59 CFG=1
M  V30 63 1 60 25
M  V30 64 1 61 27
M  V30 65 1 62 27
M  V30 66 1 63 28
M  V30 67 1 64 28
M  V30 68 1 65 28
M  V30 69 1 66 29
M  V30 70 1 67 29
M  V30 71 1 68 32
M  V30 72 1 69 32
M  V30 END BOND
M  V30 END CTAB
M  END
>  <i_epik_Tot_Q>  (1) 
1

>  <i_epik_Tot_abs_Q>  (1) 
1

>  <i_i_glide_confnum>  (1) 
3063

>  <i_i_glide_lignum>  (1) 
37

>  <i_i_glide_posenum>  (1) 
303

>  <i_i_glide_rotatable_bonds>  (1) 
15

>  <i_lp_mmshare_version>  (1) 
72125

>  <i_m_source_file_index>  (1) 
9

>  <i_f3d_flags>  (1) 
0

>  <num_sample>  (1) 
50

>  <b_lp_Chiralities_Consistent>  (1) 
1

>  <r_epik_Charging_Adjusted_Penalty>  (1) 
1.2103720943885907

>  <r_epik_Ionization_Penalty>  (1) 
0.55446808147534954

>  <r_epik_Ionization_Penalty_Charging>  (1) 
0.13553905892425583

>  <r_epik_Ionization_Penalty_Neutral>  (1) 
0.41892902255109377

>  <r_epik_State_Penalty>  (1) 
1.074833035464335

>  <r_glide_ring_energy>  (1) 
0

>  <r_i_docking_score>  (1) 
-2.1224130523547671

>  <r_i_glide_ecoul>  (1) 
-13.978216293346865

>  <r_i_glide_eff_state_penalty>  (1) 
1.074833035464335

>  <r_i_glide_einternal>  (1) 
13.615626784116756

>  <r_i_glide_emodel>  (1) 
-45.961654842523657

>  <r_i_glide_emodel_strain>  (1) 
2.3199246576971859

>  <r_i_glide_energy>  (1) 
-45.250593548763341

>  <r_i_glide_erotb>  (1) 
1.0741905119875848

>  <r_i_glide_esite>  (1) 
-0.10000000000000001

>  <r_i_glide_evdw>  (1) 
-31.272377255416476

>  <r_i_glide_gscore>  (1) 
-3.197246087819102

>  <r_i_glide_gscore_strain>  (1) 
0

>  <r_i_glide_hbond>  (1) 
-0.48103899707873171

>  <r_i_glide_ligand_efficiency>  (1) 
-0.06431554704105355

>  <r_i_glide_ligand_efficiency_ln>  (1) 
-0.47201367357704799

>  <r_i_glide_ligand_efficiency_sa>  (1) 
-0.20629432508664078

>  <r_i_glide_lipo>  (1) 
-1.5506620407235967

>  <r_i_glide_metal>  (1) 
-0

>  <r_i_glide_rewards>  (1) 
1.520615744768496

>  <r_lp_Energy>  (1) 
37.411439999999999

>  <s_epik_Chemistry_Notes>  (1) 
This compound has an ester and may undergo hydrolysis at high or low pH. This compound contains an acetal/aminal-like group ( X-CH(R)-Y where X, Y are N, S, or O) that may be acid/base labile, releasing an aldehyde. This compound has a N-S or N-O group and may undergo hydrolysis at high or low pH.

>  <s_epik_cmdline>  (1) 
J2VwaWtfcHl0aG9uJywgJy1waHQnLCAnMS4wJywgJy1waCcsICc3LjQnLCAnLXRuJywgJzgnLCAnLW1hJywgJzUwMCcsICctaW1hZScsICc8aW5maWxlLm1hZT4nLCAnLW9tYWUnLCAnPG91dGZpbGUubWFlPic=

>  <s_epik_input>  (1) 
W0NIM11PTjFbQ0BIXShGKVtDQEBIXShbQ0gyXVtDSDJdMSlDKD1PKU4oW0NIM10pW0NASF0yW0NIMl1DMjNPW0NAQEhdKFtPSF0pW0NASF0oW0NASF0zW0NASF00W0NIMl1bTkhdNClbTkhdW0NIMl1bQ0gyXVtDSDJdQyg9TylPW0NIMl1bQ0gyXVtPSF0=

>  <s_glide_docking_method>  (1) 
confgen

>  <s_i_glide_gridfile>  (1) 
gpcr_drd2_6luq_protein_autoprepared_prepared

>  <s_lp_Force_Field>  (1) 
S-OPLS

>  <s_lp_Variant>  (1) 
DiffSBDD_8-6

>  <s_m_source_file>  (1) 
generated_generic_title2_ligand_DiffSBDD_2026-06-23_prepared.sdf

>  <GenAI_Model>  (1) 
DiffSBDD

>  <Protein>  (1) 
generic_title2

$$$$
DiffSBDD_5
     RDKit          3D

  0  0  0  0  0  0  0  0  0  0999 V3000
M  V30 BEGIN CTAB
M  V30 COUNTS 65 68 0 0 1
M  V30 BEGIN ATOM
M  V30 1 C 7.755560 3.098476 -16.613591 0 CFG=1
M  V30 2 N 6.480042 5.865089 -13.374363 0
M  V30 3 C 4.800655 6.217697 -15.981049 0
M  V30 4 C 7.250425 2.989021 -18.057985 0
M  V30 5 C 7.832314 4.668046 -11.502105 0 CFG=2
M  V30 6 N 7.178207 4.254950 -15.913650 0
M  V30 7 C 7.014803 6.406203 -14.647382 0 CFG=1
M  V30 8 O 8.175284 0.820328 -16.041863 0 CHG=-1
M  V30 9 C 7.260701 1.924609 -18.867722 0
M  V30 10 C 7.796938 5.380855 -15.533319 0
M  V30 11 C 11.465784 7.967468 -8.859749 0
M  V30 12 O 6.392239 6.942250 -12.401611 0
M  V30 13 C 6.120941 3.406414 -20.421230 0 CFG=1
M  V30 14 C 7.493913 1.832417 -15.770024 0
M  V30 15 C 9.726717 5.989968 -7.185615 0
M  V30 16 C 8.692914 5.320429 -9.327678 0
M  V30 17 C 6.719272 1.988884 -20.273207 0
M  V30 18 O 12.566490 9.190028 -7.185147 0
M  V30 19 C 9.199191 8.789791 -6.825318 0
M  V30 20 O 10.998060 8.782161 -5.281109 0
M  V30 21 O 7.887639 4.595856 -8.744201 0
M  V30 22 C 10.181626 6.821806 -6.258359 0
M  V30 23 C 9.642168 6.211921 -8.638858 0
M  V30 24 O 6.635691 1.889434 -14.859608 0
M  V30 25 S 6.554593 4.351998 -18.923973 0
M  V30 26 C 10.562847 8.192922 -6.493625 0 CFG=1
M  V30 27 C 5.829866 7.139939 -15.355388 0
M  V30 28 C 6.427952 4.210203 -11.413381 0
M  V30 29 Cl 6.732042 4.212365 -21.889706 0
M  V30 30 C 9.088029 4.050585 -11.407651 0
M  V30 31 C 6.229997 8.129422 -16.407176 0
M  V30 32 C 10.415936 7.086940 -9.378277 0
M  V30 33 N 8.828383 5.304738 -10.668048 0
M  V30 34 O 8.968618 5.590096 -15.835347 0
M  V30 35 C 7.090468 4.696889 -12.764971 0 CFG=1
M  V30 36 C 11.556458 8.411052 -7.600506 0
M  V30 37 H 8.838960 3.207263 -16.673760 0
M  V30 38 H 5.183729 5.595937 -16.783026 0
M  V30 39 H 4.485950 5.590352 -15.158483 0
M  V30 40 H 3.944486 6.761940 -16.385031 0
M  V30 41 H 6.254005 4.089930 -15.541099 0
M  V30 42 H 7.761423 7.158383 -14.384204 0
M  V30 43 H 7.664366 0.979005 -18.531570 0
M  V30 44 H 12.234932 8.278290 -9.551474 0
M  V30 45 H 7.295950 7.092742 -12.171192 0
M  V30 46 H 5.034455 3.353967 -20.504147 0
M  V30 47 H 9.375286 5.069669 -6.832780 0
M  V30 48 H 7.534670 1.815788 -20.975025 0
M  V30 49 H 5.962944 1.219540 -20.430071 0
M  V30 50 H 13.167510 9.276440 -7.910612 0
M  V30 51 H 8.650419 8.322288 -7.637404 0
M  V30 52 H 8.510788 8.789995 -5.985090 0
M  V30 53 H 9.374661 9.755365 -7.185009 0
M  V30 54 H 11.834014 9.181695 -5.480434 0
M  V30 55 H 10.178237 6.500550 -5.226007 0
M  V30 56 H 5.308608 7.727084 -14.598050 0
M  V30 57 H 6.176038 3.156675 -11.347409 0
M  V30 58 H 5.731722 4.872991 -10.903772 0
M  V30 59 H 9.766042 4.130784 -12.255410 0
M  V30 60 H 9.241006 3.175193 -10.800094 0
M  V30 61 H 6.629074 7.589722 -17.266173 0
M  V30 62 H 5.382549 8.728681 -16.740934 0
M  V30 63 H 6.971544 8.790282 -15.985271 0
M  V30 64 H 10.287777 7.093819 -10.448390 0
M  V30 65 H 7.343274 3.857704 -13.404726 0
M  V30 END ATOM
M  V30 BEGIN BOND
M  V30 1 1 4 1
M  V30 2 1 6 1
M  V30 3 1 7 2
M  V30 4 2 9 4
M  V30 5 1 10 6
M  V30 6 1 10 7
M  V30 7 1 12 2
M  V30 8 1 14 1
M  V30 9 1 14 8
M  V30 10 1 17 9
M  V30 11 1 17 13
M  V30 12 2 21 16
M  V30 13 2 22 15
M  V30 14 1 23 15
M  V30 15 1 23 16
M  V30 16 2 24 14
M  V30 17 1 25 4
M  V30 18 1 25 13
M  V30 19 1 26 19
M  V30 20 1 26 20 CFG=1
M  V30 21 1 26 22
M  V30 22 1 27 3
M  V30 23 1 27 7
M  V30 24 1 28 5
M  V30 25 1 29 13
M  V30 26 1 30 5
M  V30 27 1 31 27
M  V30 28 1 32 11
M  V30 29 2 32 23
M  V30 30 1 5 33 CFG=1
M  V30 31 1 33 16
M  V30 32 1 33 30
M  V30 33 2 34 10
M  V30 34 1 35 2
M  V30 35 1 35 5
M  V30 36 1 35 28
M  V30 37 2 36 11
M  V30 38 1 36 18
M  V30 39 1 36 26
M  V30 40 1 1 37 CFG=3
M  V30 41 1 38 3
M  V30 42 1 39 3
M  V30 43 1 40 3
M  V30 44 1 41 6
M  V30 45 1 7 42 CFG=1
M  V30 46 1 43 9
M  V30 47 1 44 11
M  V30 48 1 45 12
M  V30 49 1 13 46 CFG=3
M  V30 50 1 47 15
M  V30 51 1 48 17
M  V30 52 1 49 17
M  V30 53 1 50 18
M  V30 54 1 51 19
M  V30 55 1 52 19
M  V30 56 1 53 19
M  V30 57 1 54 20
M  V30 58 1 55 22
M  V30 59 1 56 27
M  V30 60 1 57 28
M  V30 61 1 58 28
M  V30 62 1 59 30
M  V30 63 1 60 30
M  V30 64 1 61 31
M  V30 65 1 62 31
M  V30 66 1 63 31
M  V30 67 1 64 32
M  V30 68 1 35 65 CFG=3
M  V30 END BOND
M  V30 END CTAB
M  END
>  <i_epik_Tot_Q>  (1) 
-1

>  <i_epik_Tot_abs_Q>  (1) 
1

>  <i_i_glide_confnum>  (1) 
84

>  <i_i_glide_lignum>  (1) 
28

>  <i_i_glide_posenum>  (1) 
398

>  <i_i_glide_rotatable_bonds>  (1) 
13

>  <i_lp_mmshare_version>  (1) 
72125

>  <i_m_source_file_index>  (1) 
6

>  <i_f3d_flags>  (1) 
0

>  <num_sample>  (1) 
50

>  <b_lp_Chiralities_Consistent>  (1) 
1

>  <r_epik_Charging_Adjusted_Penalty>  (1) 
0.077690704590845053

>  <r_epik_Ionization_Penalty>  (1) 
0.082549720368024937

>  <r_epik_Ionization_Penalty_Charging>  (1) 
8.0199661793119585e-06

>  <r_epik_Ionization_Penalty_Neutral>  (1) 
0.082541700401845622

>  <r_epik_State_Penalty>  (1) 
0.077682684624665738

>  <r_glide_ring_energy>  (1) 
1.4769951276530608

>  <r_i_docking_score>  (1) 
-2.0915241617819853

>  <r_i_glide_ecoul>  (1) 
-0.61863589313614953

>  <r_i_glide_eff_state_penalty>  (1) 
0.077682684624665738

>  <r_i_glide_einternal>  (1) 
16.18376744774767

>  <r_i_glide_emodel>  (1) 
-13.529311671691676

>  <r_i_glide_emodel_strain>  (1) 
8.0523673973145549

>  <r_i_glide_energy>  (1) 
-25.826124715058139

>  <r_i_glide_erotb>  (1) 
0.49788325422123908

>  <r_i_glide_esite>  (1) 
-0.15846486560852999

>  <r_i_glide_evdw>  (1) 
-25.207488821921988

>  <r_i_glide_gscore>  (1) 
-2.169206846406651

>  <r_i_glide_gscore_strain>  (1) 
1.0130918493286387

>  <r_i_glide_hbond>  (1) 
0

>  <r_i_glide_ligand_efficiency>  (1) 
-0.058097893382832923

>  <r_i_glide_ligand_efficiency_ln>  (1) 
-0.45631406564810312

>  <r_i_glide_ligand_efficiency_sa>  (1) 
-0.19183501726415089

>  <r_i_glide_lipo>  (1) 
-2.3690974053736205

>  <r_i_glide_metal>  (1) 
-0

>  <r_i_glide_rewards>  (1) 
0.20055014609214328

>  <r_lp_Energy>  (1) 
46.399811

>  <s_epik_Chemistry_Notes>  (1) 
This compound has a N-S or N-O group and may undergo hydrolysis at high or low pH.

>  <s_epik_cmdline>  (1) 
J2VwaWtfcHl0aG9uJywgJy1waHQnLCAnMS4wJywgJy1waCcsICc3LjQnLCAnLXRuJywgJzgnLCAnLW1hJywgJzUwMCcsICctaW1hZScsICc8aW5maWxlLm1hZT4nLCAnLW9tYWUnLCAnPG91dGZpbGUubWFlPic=

>  <s_epik_input>  (1) 
UzFbQ0BASF0oQ2wpW0NIMl1bQ0hdPUMxW0NASF0oQyg9TylbT0hdKVtOSF1DKD1PKVtDQEBIXShbQ0hdKFtDSDNdKVtDSDNdKU4oW09IXSlbQ0hdMltDSDJdQzIzW0NIMl1OM0MoPU8pQyhbQ0hdPVtDSF1bQ0BAXTQoW0NIM10pW09IXSk9W0NIXVtDSF09QzRbT0hd

>  <s_glide_docking_method>  (1) 
confgen

>  <s_i_glide_gridfile>  (1) 
gpcr_drd2_6luq_protein_autoprepared_prepared

>  <s_lp_Force_Field>  (1) 
S-OPLS

>  <s_lp_Variant>  (1) 
DiffSBDD_5-1

>  <s_m_source_file>  (1) 
generated_generic_title2_ligand_DiffSBDD_2026-06-23_prepared.sdf

>  <GenAI_Model>  (1) 
DiffSBDD

>  <Protein>  (1) 
generic_title2

$$$$
DiffSBDD_28
     RDKit          3D

  0  0  0  0  0  0  0  0  0  0999 V3000
M  V30 BEGIN CTAB
M  V30 COUNTS 78 85 0 0 1
M  V30 BEGIN ATOM
M  V30 1 F 17.427444 7.737738 -18.431019 0
M  V30 2 C 5.885997 -0.857480 -17.942998 0 CFG=1
M  V30 3 C 8.868259 1.378195 -17.930845 0 CFG=2
M  V30 4 C 6.873949 -3.446530 -18.189156 0 CFG=2
M  V30 5 C 12.589156 4.213066 -17.819995 0 CFG=1
M  V30 6 C 5.874011 -0.982212 -16.408705 0
M  V30 7 C 10.569904 2.947632 -18.969501 0 CFG=2
M  V30 8 C 14.572513 6.706580 -18.370641 0 CFG=1
M  V30 9 C 7.715950 2.369989 -18.177345 0
M  V30 10 C 12.995809 4.888599 -19.136377 0 CFG=1
M  V30 11 C 4.658185 -2.189404 -19.201601 0 CFG=1
M  V30 12 C 9.713991 0.812917 -20.059131 0
M  V30 13 C 6.008147 -2.263957 -18.539977 0 CFG=1
M  V30 14 O 3.763993 -3.195859 -18.785023 0
M  V30 15 C 17.106709 6.437249 -18.087748 0 CFG=1
M  V30 16 C 11.406680 3.276842 -17.749257 0 CFG=1
M  V30 17 O 12.744661 2.783483 -17.790250 0
M  V30 18 N 10.034475 1.561756 -18.832637 0 CFG=2 CHG=1
M  V30 19 O 7.270101 -5.863238 -18.210499 0
M  V30 20 C 17.686385 5.990225 -16.698811 0
M  V30 21 O 7.107613 -2.655684 -19.369642 0
M  V30 22 C 11.970600 4.616152 -20.265734 0
M  V30 23 C 4.488158 -0.796669 -18.597694 0
M  V30 24 N 6.799650 0.195437 -18.450752 0
M  V30 25 C 6.304950 -4.838642 -18.368626 0
M  V30 26 N 14.175404 6.929405 -16.964288 0 CHG=1
M  V30 27 C 11.391658 3.191608 -20.255253 0
M  V30 28 C 12.762504 7.355024 -16.979515 0
M  V30 29 C 12.319519 7.161258 -18.432100 0
M  V30 30 O 17.019845 5.243252 -15.985016 0
M  V30 31 C 8.961142 -0.418190 -19.561433 0
M  V30 32 C 15.810698 5.811112 -18.584743 0
M  V30 33 O 18.120073 5.590582 -17.964767 0
M  V30 34 N 13.336434 6.328737 -19.063154 0
M  V30 35 C 6.490252 1.516883 -17.916963 0
M  V30 36 C 6.649790 -7.137658 -18.303732 0
M  V30 37 C 8.240900 0.008111 -18.266228 0 CFG=1
M  V30 38 H 9.175907 1.410298 -16.884704 0
M  V30 39 H 7.600487 -3.313327 -17.390500 0
M  V30 40 H 12.952388 4.651466 -16.897577 0
M  V30 41 H 5.375390 -1.896854 -16.085309 0
M  V30 42 H 6.875973 -1.001037 -15.985045 0
M  V30 43 H 5.329714 -0.166261 -15.933689 0
M  V30 44 H 9.748317 3.661531 -18.997068 0
M  V30 45 H 14.840175 7.696029 -18.747017 0
M  V30 46 H 7.683467 2.708650 -19.213833 0
M  V30 47 H 7.761124 3.247544 -17.531473 0
M  V30 48 H 13.888180 4.354915 -19.462158 0
M  V30 49 H 4.690995 -2.128519 -20.290266 0
M  V30 50 H 10.604041 0.541080 -20.627923 0
M  V30 51 H 9.064130 1.409051 -20.702054 0
M  V30 52 H 3.879940 -3.315061 -17.853063 0
M  V30 53 H 10.913486 3.186494 -16.785020 0
M  V30 54 H 12.447615 4.805277 -21.228575 0
M  V30 55 H 11.141317 5.321348 -20.209491 0
M  V30 56 H 4.374192 -0.021554 -19.357404 0
M  V30 57 H 3.685641 -0.739876 -17.864303 0
M  V30 58 H 5.519412 -4.969231 -17.622227 0
M  V30 59 H 5.839678 -4.912944 -19.352997 0
M  V30 60 H 14.755004 7.631519 -16.527148 0
M  V30 61 H 12.200831 2.465260 -20.346594 0
M  V30 62 H 10.761866 3.069723 -21.136933 0
M  V30 63 H 12.669544 8.395656 -16.676207 0
M  V30 64 H 12.175253 6.751739 -16.286833 0
M  V30 65 H 12.300898 8.132607 -18.929076 0
M  V30 66 H 11.315139 6.745149 -18.509170 0
M  V30 67 H 9.672609 -1.209768 -19.332131 0
M  V30 68 H 8.289467 -0.788763 -20.335337 0
M  V30 69 H 15.661172 4.837412 -18.116442 0
M  V30 70 H 15.936052 5.618327 -19.650836 0
M  V30 71 H 5.590112 1.933087 -18.370533 0
M  V30 72 H 6.333826 1.488225 -16.840250 0
M  V30 73 H 7.375412 -7.933098 -18.165700 0
M  V30 74 H 5.884456 -7.263795 -17.536283 0
M  V30 75 H 6.187152 -7.279669 -19.281262 0
M  V30 76 H 8.450085 -0.708508 -17.471698 0
M  V30 77 H 10.786736 1.032087 -18.414238 0
M  V30 78 H 14.249837 6.060970 -16.453301 0
M  V30 END ATOM
M  V30 BEGIN BOND
M  V30 1 1 2 6 CFG=1
M  V30 2 1 9 3
M  V30 3 1 10 5
M  V30 4 1 13 2
M  V30 5 1 13 4
M  V30 6 1 13 11
M  V30 7 1 14 11
M  V30 8 1 15 1 CFG=3
M  V30 9 1 16 5
M  V30 10 1 16 7
M  V30 11 1 17 5
M  V30 12 1 17 16
M  V30 13 1 18 3
M  V30 14 1 18 7
M  V30 15 1 18 12
M  V30 16 1 20 15
M  V30 17 1 21 4
M  V30 18 1 13 21 CFG=3
M  V30 19 1 22 10
M  V30 20 1 23 2
M  V30 21 1 23 11
M  V30 22 1 24 2
M  V30 23 1 25 4
M  V30 24 1 25 19
M  V30 25 1 26 8
M  V30 26 1 27 7
M  V30 27 1 27 22
M  V30 28 1 28 26
M  V30 29 1 29 28
M  V30 30 2 30 20
M  V30 31 1 31 12
M  V30 32 1 32 8
M  V30 33 1 32 15
M  V30 34 1 33 15
M  V30 35 1 33 20
M  V30 36 1 34 8
M  V30 37 1 34 10
M  V30 38 1 34 29
M  V30 39 1 35 9
M  V30 40 1 35 24
M  V30 41 1 36 19
M  V30 42 1 37 3
M  V30 43 1 37 24
M  V30 44 1 37 31
M  V30 45 1 3 38 CFG=1
M  V30 46 1 4 39 CFG=1
M  V30 47 1 5 40 CFG=1
M  V30 48 1 41 6
M  V30 49 1 42 6
M  V30 50 1 43 6
M  V30 51 1 7 44 CFG=3
M  V30 52 1 8 45 CFG=3
M  V30 53 1 46 9
M  V30 54 1 47 9
M  V30 55 1 10 48 CFG=3
M  V30 56 1 11 49 CFG=3
M  V30 57 1 50 12
M  V30 58 1 51 12
M  V30 59 1 52 14
M  V30 60 1 16 53 CFG=1
M  V30 61 1 54 22
M  V30 62 1 55 22
M  V30 63 1 56 23
M  V30 64 1 57 23
M  V30 65 1 58 25
M  V30 66 1 59 25
M  V30 67 1 60 26
M  V30 68 1 61 27
M  V30 69 1 62 27
M  V30 70 1 63 28
M  V30 71 1 64 28
M  V30 72 1 65 29
M  V30 73 1 66 29
M  V30 74 1 67 31
M  V30 75 1 68 31
M  V30 76 1 69 32
M  V30 77 1 70 32
M  V30 78 1 71 35
M  V30 79 1 72 35
M  V30 80 1 73 36
M  V30 81 1 74 36
M  V30 82 1 75 36
M  V30 83 1 37 76 CFG=1
M  V30 84 1 18 77 CFG=1
M  V30 85 1 78 26
M  V30 END BOND
M  V30 END CTAB
M  END
>  <i_epik_Tot_Q>  (1) 
2

>  <i_epik_Tot_abs_Q>  (1) 
2

>  <i_i_glide_confnum>  (1) 
342

>  <i_i_glide_lignum>  (1) 
87

>  <i_i_glide_posenum>  (1) 
205

>  <i_i_glide_rotatable_bonds>  (1) 
8

>  <i_lp_mmshare_version>  (1) 
72125

>  <i_m_source_file_index>  (1) 
29

>  <i_f3d_flags>  (1) 
0

>  <num_sample>  (1) 
50

>  <b_lp_Chiralities_Consistent>  (1) 
1

>  <r_epik_Charging_Adjusted_Penalty>  (1) 
1.0492181154286748

>  <r_epik_Ionization_Penalty>  (1) 
0.8301501805432685

>  <r_epik_Ionization_Penalty_Charging>  (1) 
0.211122083805314

>  <r_epik_Ionization_Penalty_Neutral>  (1) 
0.61902809673795445

>  <r_epik_State_Penalty>  (1) 
0.83809603162336077

>  <r_glide_ring_energy>  (1) 
0.81914574756082947

>  <r_i_docking_score>  (1) 
-2.0692474467291238

>  <r_i_glide_ecoul>  (1) 
-5.0323325543214628

>  <r_i_glide_eff_state_penalty>  (1) 
0.83809603162336077

>  <r_i_glide_einternal>  (1) 
16.698793756941598

>  <r_i_glide_emodel>  (1) 
-25.643162247165435

>  <r_i_glide_emodel_strain>  (1) 
0.80542699377150484

>  <r_i_glide_energy>  (1) 
-32.660786612009211

>  <r_i_glide_erotb>  (1) 
0.44856850619138583

>  <r_i_glide_esite>  (1) 
0

>  <r_i_glide_evdw>  (1) 
-27.628454057687748

>  <r_i_glide_gscore>  (1) 
-2.9073434783524847

>  <r_i_glide_gscore_strain>  (1) 
0

>  <r_i_glide_hbond>  (1) 
0

>  <r_i_glide_ligand_efficiency>  (1) 
-0.055925606668354694

>  <r_i_glide_ligand_efficiency_ln>  (1) 
-0.44877126115274346

>  <r_i_glide_ligand_efficiency_sa>  (1) 
-0.18635652860684818

>  <r_i_glide_lipo>  (1) 
-0.81987509580851692

>  <r_i_glide_metal>  (1) 
-0

>  <r_i_glide_rewards>  (1) 
-0.39976430270274693

>  <r_lp_Energy>  (1) 
63.554969999999997

>  <s_epik_Chemistry_Notes>  (1) 
This compound has an ester and may undergo hydrolysis at high or low pH. This compound contains an acetal/aminal-like group ( X-CH(R)-Y where X, Y are N, S, or O) that may be acid/base labile, releasing an aldehyde.

>  <s_epik_cmdline>  (1) 
J2VwaWtfcHl0aG9uJywgJy1waHQnLCAnMS4wJywgJy1waCcsICc3LjQnLCAnLXRuJywgJzgnLCAnLW1hJywgJzUwMCcsICctaW1hZScsICc8aW5maWxlLm1hZT4nLCAnLW9tYWUnLCAnPG91dGZpbGUubWFlPic=

>  <s_epik_input>  (1) 
Tz1DKE8xKUMxKEYpW0NIMl1bQ0BASF0yW05IXVtDSDJdW0NIMl1OMltDQEBIXTNbQ0gyXVtDSDJdW0NASF0oW0NAQEhdKE80KVtDQEhdMzQpTjVbQ0gyXVtDSDJdW0NAQEhdKFtDQEhdNTYpTihbQ0gyXVtDSDJdNilbQ0BAXShbQ0gzXSkoW0NIMl1bQ0BASF03W09IXSlbQ0BAXTc4W0NASF0oTzgpW0NIMl1PW0NIM10=

>  <s_glide_docking_method>  (1) 
confgen

>  <s_i_glide_gridfile>  (1) 
gpcr_drd2_6luq_protein_autoprepared_prepared

>  <s_lp_Force_Field>  (1) 
S-OPLS

>  <s_lp_Variant>  (1) 
DiffSBDD_28-10

>  <s_m_source_file>  (1) 
generated_generic_title2_ligand_DiffSBDD_2026-06-23_prepared.sdf

>  <GenAI_Model>  (1) 
DiffSBDD

>  <Protein>  (1) 
generic_title2

$$$$
DiffSBDD_1
     RDKit          3D

  0  0  0  0  0  0  0  0  0  0999 V3000
M  V30 BEGIN CTAB
M  V30 COUNTS 89 91 0 0 1
M  V30 BEGIN ATOM
M  V30 1 O 7.723107 6.366199 -12.988103 0
M  V30 2 O 7.921294 4.790449 -8.854066 0
M  V30 3 C 9.949238 4.394198 -17.290944 0 CFG=2
M  V30 4 C 10.545091 5.977532 -19.270476 0
M  V30 5 C 15.450370 6.695072 -18.958079 0
M  V30 6 C 11.232914 6.996204 -5.440197 0
M  V30 7 C 15.147001 4.130842 -16.603418 0
M  V30 8 C 9.061248 5.120445 -9.607752 0 CFG=1
M  V30 9 C 8.402471 4.524272 -17.495895 0 CFG=1
M  V30 10 C 12.850176 3.340081 -17.561465 0 CFG=2
M  V30 11 C 11.921165 6.512313 -19.659442 0
M  V30 12 O 5.636833 5.268854 -18.663023 0 CHG=-1
M  V30 13 C 14.345957 5.756428 -19.483402 0
M  V30 14 C 10.405255 5.359896 -16.154904 0
M  V30 15 C 8.710373 5.164791 -11.113159 0
M  V30 16 C 16.318039 4.872058 -17.290561 0
M  V30 17 C 10.765836 4.596053 -18.618325 0 CFG=1
M  V30 18 C 16.042168 6.363244 -17.572601 0
M  V30 19 C 9.690281 6.393651 -9.012678 0
M  V30 20 C 8.092479 5.408682 -15.126057 0 CFG=2
M  V30 21 C 9.767954 8.580982 -6.741896 0
M  V30 22 F 14.560649 1.928753 -16.836856 0
M  V30 23 C 10.745739 7.398832 -6.842261 0
M  V30 24 C 9.591554 5.249396 -14.858862 0
M  V30 25 C 6.162014 5.804865 -11.211023 0
M  V30 26 F 12.300784 2.178363 -17.926660 0
M  V30 27 O 7.317124 5.330751 -20.537016 0 CHG=-1
M  V30 28 O 5.740434 3.376423 -20.319646 0
M  V30 29 P 6.515734 4.456919 -19.593518 0
M  V30 30 C 10.119977 6.180745 -7.544848 0
M  V30 31 C 7.618350 6.164843 -11.585004 0 CFG=2
M  V30 32 C 12.312910 4.372073 -18.610123 0 CFG=1
M  V30 33 O 12.986555 6.455180 -17.541652 0
M  V30 34 C 7.293551 5.303315 -13.828282 0
M  V30 35 C 7.748575 3.582555 -18.546215 0
M  V30 36 C 12.953342 5.777691 -18.781416 0 CFG=2
M  V30 37 C 7.640950 4.380180 -16.161650 0
M  V30 38 C 14.378409 3.094594 -17.462464 0 CFG=2
M  V30 39 H 7.363018 5.557198 -8.829721 0
M  V30 40 H 10.125373 3.375565 -16.945514 0
M  V30 41 H 9.892137 5.901923 -20.140913 0
M  V30 42 H 10.062107 6.683250 -18.599514 0
M  V30 43 H 16.267838 6.669289 -19.679845 0
M  V30 44 H 15.093082 7.725397 -18.964531 0
M  V30 45 H 10.399049 6.689201 -4.806953 0
M  V30 46 H 11.927411 6.156818 -5.487841 0
M  V30 47 H 11.741480 7.823098 -4.943524 0
M  V30 48 H 15.563620 3.609788 -15.739847 0
M  V30 49 H 14.453978 4.836295 -16.146852 0
M  V30 50 H 9.775003 4.306414 -9.473615 0
M  V30 51 H 8.225534 5.543623 -17.840689 0
M  V30 52 H 12.476293 3.528315 -16.560439 0
M  V30 53 H 12.069187 6.267249 -20.711890 0
M  V30 54 H 11.981930 7.599043 -19.579960 0
M  V30 55 H 14.740492 4.748602 -19.531627 0
M  V30 56 H 14.215382 5.995455 -20.538874 0
M  V30 57 H 10.339561 6.389717 -16.493695 0
M  V30 58 H 11.448771 5.217517 -15.894445 0
M  V30 59 H 9.630359 5.388020 -11.654549 0
M  V30 60 H 8.436021 4.155641 -11.419104 0
M  V30 61 H 16.659790 4.359610 -18.189756 0
M  V30 62 H 17.165378 4.833676 -16.604225 0
M  V30 63 H 10.404880 3.855635 -19.327877 0
M  V30 64 H 16.982916 6.908355 -17.485146 0
M  V30 65 H 15.415525 6.778571 -16.785176 0
M  V30 66 H 10.555454 6.689966 -9.605841 0
M  V30 67 H 8.975569 7.210813 -9.078896 0
M  V30 68 H 7.907712 6.390509 -15.550652 0
M  V30 69 H 8.859042 8.301286 -6.207651 0
M  V30 70 H 10.222675 9.418365 -6.213131 0
M  V30 71 H 9.468016 8.942159 -7.724888 0
M  V30 72 H 11.612915 7.720055 -7.420894 0
M  V30 73 H 9.938393 5.990082 -14.137983 0
M  V30 74 H 9.774357 4.323426 -14.341950 0
M  V30 75 H 5.985348 5.857824 -10.139809 0
M  V30 76 H 5.465873 6.506136 -11.671692 0
M  V30 77 H 5.890660 4.800036 -11.534039 0
M  V30 78 H 9.262899 5.852482 -6.955061 0
M  V30 79 H 10.834291 5.357686 -7.521237 0
M  V30 80 H 7.861834 7.145207 -11.185114 0
M  V30 81 H 12.518041 3.892452 -19.569551 0
M  V30 82 H 13.131889 7.374304 -17.707626 0
M  V30 83 H 7.453549 4.321361 -13.384336 0
M  V30 84 H 6.224466 5.402416 -14.019699 0
M  V30 85 H 8.475009 3.111019 -19.199576 0
M  V30 86 H 7.265910 2.746329 -18.040993 0
M  V30 87 H 7.767196 3.371343 -15.766181 0
M  V30 88 H 6.575408 4.513252 -16.335995 0
M  V30 89 H 14.821481 2.935415 -18.443219 0
M  V30 END ATOM
M  V30 BEGIN BOND
M  V30 1 1 8 2
M  V30 2 1 9 3
M  V30 3 1 11 4
M  V30 4 1 13 5
M  V30 5 1 14 3
M  V30 6 1 15 8
M  V30 7 1 16 7
M  V30 8 1 17 3
M  V30 9 1 17 4
M  V30 10 1 18 5
M  V30 11 1 18 16
M  V30 12 1 19 8
M  V30 13 1 23 6
M  V30 14 1 23 21
M  V30 15 1 24 14
M  V30 16 1 24 20
M  V30 17 1 26 10
M  V30 18 1 29 12
M  V30 19 1 29 27
M  V30 20 2 29 28
M  V30 21 1 30 19
M  V30 22 1 30 23
M  V30 23 1 31 1
M  V30 24 1 31 15
M  V30 25 1 31 25
M  V30 26 1 32 10
M  V30 27 1 32 17
M  V30 28 1 34 1
M  V30 29 1 34 20
M  V30 30 1 35 9
M  V30 31 1 35 29
M  V30 32 1 36 11
M  V30 33 1 36 13
M  V30 34 1 36 32
M  V30 35 1 36 33 CFG=1
M  V30 36 1 37 9
M  V30 37 1 37 20
M  V30 38 1 38 7
M  V30 39 1 38 10
M  V30 40 1 38 22
M  V30 41 1 39 2
M  V30 42 1 3 40 CFG=1
M  V30 43 1 41 4
M  V30 44 1 42 4
M  V30 45 1 43 5
M  V30 46 1 44 5
M  V30 47 1 45 6
M  V30 48 1 46 6
M  V30 49 1 47 6
M  V30 50 1 48 7
M  V30 51 1 49 7
M  V30 52 1 8 50 CFG=3
M  V30 53 1 9 51 CFG=3
M  V30 54 1 10 52 CFG=1
M  V30 55 1 53 11
M  V30 56 1 54 11
M  V30 57 1 55 13
M  V30 58 1 56 13
M  V30 59 1 57 14
M  V30 60 1 58 14
M  V30 61 1 59 15
M  V30 62 1 60 15
M  V30 63 1 61 16
M  V30 64 1 62 16
M  V30 65 1 17 63 CFG=3
M  V30 66 1 64 18
M  V30 67 1 65 18
M  V30 68 1 66 19
M  V30 69 1 67 19
M  V30 70 1 20 68 CFG=3
M  V30 71 1 69 21
M  V30 72 1 70 21
M  V30 73 1 71 21
M  V30 74 1 72 23
M  V30 75 1 73 24
M  V30 76 1 74 24
M  V30 77 1 75 25
M  V30 78 1 76 25
M  V30 79 1 77 25
M  V30 80 1 78 30
M  V30 81 1 79 30
M  V30 82 1 31 80 CFG=1
M  V30 83 1 32 81 CFG=3
M  V30 84 1 82 33
M  V30 85 1 83 34
M  V30 86 1 84 34
M  V30 87 1 85 35
M  V30 88 1 86 35
M  V30 89 1 87 37
M  V30 90 1 88 37
M  V30 91 1 38 89 CFG=3
M  V30 END BOND
M  V30 END CTAB
M  END
>  <i_epik_Tot_Q>  (1) 
-2

>  <i_epik_Tot_abs_Q>  (1) 
2

>  <i_i_glide_confnum>  (1) 
807

>  <i_i_glide_lignum>  (1) 
20

>  <i_i_glide_posenum>  (1) 
179

>  <i_i_glide_rotatable_bonds>  (1) 
13

>  <i_lp_mmshare_version>  (1) 
72125

>  <i_m_source_file_index>  (1) 
2

>  <i_f3d_flags>  (1) 
0

>  <num_sample>  (1) 
50

>  <b_lp_Chiralities_Consistent>  (1) 
1

>  <r_epik_Charging_Adjusted_Penalty>  (1) 
1.8994269935217587

>  <r_epik_Ionization_Penalty>  (1) 
0.94971411018702601

>  <r_epik_Ionization_Penalty_Charging>  (1) 
0.94971349676087924

>  <r_epik_Ionization_Penalty_Neutral>  (1) 
6.1342614676121867e-07

>  <r_epik_State_Penalty>  (1) 
0.94971349676087935

>  <r_glide_ring_energy>  (1) 
0

>  <r_i_docking_score>  (1) 
-2.0319638077640025

>  <r_i_glide_ecoul>  (1) 
-0.64920123913784578

>  <r_i_glide_eff_state_penalty>  (1) 
0.94971349676087935

>  <r_i_glide_einternal>  (1) 
7.0075039378507

>  <r_i_glide_emodel>  (1) 
-34.782462828051088

>  <r_i_glide_emodel_strain>  (1) 
0

>  <r_i_glide_energy>  (1) 
-32.465941699370511

>  <r_i_glide_erotb>  (1) 
0.50299043937721266

>  <r_i_glide_esite>  (1) 
0

>  <r_i_glide_evdw>  (1) 
-31.816740460232666

>  <r_i_glide_gscore>  (1) 
-2.9816773045248821

>  <r_i_glide_gscore_strain>  (1) 
0

>  <r_i_glide_hbond>  (1) 
-0.02298861042899163

>  <r_i_glide_ligand_efficiency>  (1) 
-0.053472731783263228

>  <r_i_glide_ligand_efficiency_ln>  (1) 
-0.43815117127309328

>  <r_i_glide_ligand_efficiency_sa>  (1) 
-0.17977400918968828

>  <r_i_glide_lipo>  (1) 
-1.4869225463489899

>  <r_i_glide_metal>  (1) 
-0

>  <r_i_glide_rewards>  (1) 
-0.28653937824180242

>  <r_lp_Energy>  (1) 
44.677890999999995

>  <s_epik_cmdline>  (1) 
J2VwaWtfcHl0aG9uJywgJy1waHQnLCAnMS4wJywgJy1waCcsICc3LjQnLCAnLXRuJywgJzgnLCAnLW1hJywgJzUwMCcsICctaW1hZScsICc8aW5maWxlLm1hZT4nLCAnLW9tYWUnLCAnPG91dGZpbGUubWFlPic=

>  <s_epik_input>  (1) 
W0NIM11bQ0hdKFtDSDNdKVtDSDJdW0NIMl1bQ0BASF0oW09IXSlbQ0gyXVtDQEhdKFtDSDNdKU9bQ0gyXVtDQEBIXShbQ0gyXVtDSDJdMSlbQ0gyXVtDQEhdKFtDSDJdUCg9TykoW09IXSlbT0hdKVtDQEhdMVtDQEBIXShbQ0gyXVtDSDJdMilbQ0BASF0oW0NAXTIzW09IXSlbQ0BASF0oRilbQ0BIXShGKVtDSDJdW0NIMl1bQ0gyXVtDSDJdW0NIMl0z

>  <s_glide_docking_method>  (1) 
confgen

>  <s_i_glide_gridfile>  (1) 
gpcr_drd2_6luq_protein_autoprepared_prepared

>  <s_lp_Force_Field>  (1) 
S-OPLS

>  <s_lp_Variant>  (1) 
DiffSBDD_1-4

>  <s_m_source_file>  (1) 
generated_generic_title2_ligand_DiffSBDD_2026-06-23_prepared.sdf

>  <GenAI_Model>  (1) 
DiffSBDD

>  <Protein>  (1) 
generic_title2

$$$$
DiffSBDD_8
     RDKit          3D

  0  0  0  0  0  0  0  0  0  0999 V3000
M  V30 BEGIN CTAB
M  V30 COUNTS 69 72 0 0 1
M  V30 BEGIN ATOM
M  V30 1 N 5.775517 6.500642 -13.784201 0
M  V30 2 C 8.008187 5.191738 -15.755438 0
M  V30 3 C 8.414077 6.984811 -12.264727 0 CFG=1
M  V30 4 N 7.767570 5.413276 -18.094845 0
M  V30 5 O 7.647681 3.674249 -12.262189 0
M  V30 6 C 9.585522 6.425721 -8.864333 0
M  V30 7 F 5.483825 5.961355 -18.073730 0
M  V30 8 C 8.982003 5.795034 -7.617145 0
M  V30 9 N 9.748617 5.454004 -9.931454 0
M  V30 10 C 8.522261 4.949158 -10.557649 0 CFG=1
M  V30 11 C 6.661078 6.152575 -17.473632 0 CFG=1
M  V30 12 C 12.592604 9.432666 -5.826027 0
M  V30 13 C 7.696226 5.916356 -11.398350 0 CFG=2
M  V30 14 O 9.775433 4.417492 -12.539474 0
M  V30 15 O 7.212987 4.559761 -19.113147 0
M  V30 16 C 9.082750 6.710350 -6.399969 0
M  V30 17 C 5.492993 4.656653 -11.894611 0
M  V30 18 C 5.293956 7.521081 -12.839407 0
M  V30 19 C 5.878419 5.139457 -13.288096 0 CFG=2
M  V30 20 C 6.602558 5.732566 -16.000351 0 CFG=2
M  V30 21 C 6.116968 6.853614 -15.054359 0
M  V30 22 C 8.712821 8.389539 -11.765445 0
M  V30 23 C 8.859778 3.893402 -11.618350 0 CFG=2
M  V30 24 C 6.935891 4.908636 -12.231298 0 CFG=2
M  V30 25 O 12.003120 10.689305 -5.985360 0
M  V30 26 O 6.044010 8.015676 -15.464061 0
M  V30 27 C 11.796725 8.686895 -4.749460 0
M  V30 28 C 7.568126 5.123861 -20.365265 0
M  V30 29 C 8.315429 4.510776 -17.085580 0
M  V30 30 O 10.577192 8.216733 -5.292735 0
M  V30 31 C 10.510043 7.069219 -5.980073 0
M  V30 32 N 9.737581 7.376343 -11.827186 0 CHG=1
M  V30 33 O 11.469348 6.357001 -6.259181 0
M  V30 34 H 8.727091 5.989004 -15.571609 0
M  V30 35 H 8.060877 4.484168 -14.927283 0
M  V30 36 H 8.470971 6.788206 -13.329943 0
M  V30 37 H 8.976345 7.266106 -9.174285 0
M  V30 38 H 10.567175 6.839048 -8.643464 0
M  V30 39 H 9.472767 4.849574 -7.406839 0
M  V30 40 H 7.930339 5.558257 -7.786344 0
M  V30 41 H 10.275619 4.657415 -9.577081 0
M  V30 42 H 7.882463 4.469340 -9.814825 0
M  V30 43 H 6.890714 7.208088 -17.590972 0
M  V30 44 H 12.628672 8.901658 -6.779579 0
M  V30 45 H 13.618964 9.592627 -5.497782 0
M  V30 46 H 6.954060 6.390134 -10.785860 0
M  V30 47 H 10.284162 3.704344 -12.904199 0
M  V30 48 H 8.614068 6.173456 -5.585037 0
M  V30 49 H 8.514531 7.624924 -6.568310 0
M  V30 50 H 5.237166 3.612676 -11.771228 0
M  V30 51 H 5.020785 5.306871 -11.164032 0
M  V30 52 H 4.649102 8.268567 -13.309605 0
M  V30 53 H 4.719080 7.145987 -12.003153 0
M  V30 54 H 6.131120 8.028633 -12.385391 0
M  V30 55 H 5.730341 4.337594 -14.003236 0
M  V30 56 H 5.893898 4.918169 -15.960434 0
M  V30 57 H 8.962011 9.190033 -12.452006 0
M  V30 58 H 8.578450 8.677582 -10.728780 0
M  V30 59 H 9.294878 2.980749 -11.204973 0
M  V30 60 H 11.095171 10.557309 -6.210206 0
M  V30 61 H 12.363499 7.855046 -4.330422 0
M  V30 62 H 11.583622 9.360927 -3.920003 0
M  V30 63 H 7.210073 4.481064 -21.170660 0
M  V30 64 H 7.109346 6.106448 -20.496313 0
M  V30 65 H 8.651210 5.223672 -20.466606 0
M  V30 66 H 9.379894 4.329898 -17.240083 0
M  V30 67 H 7.807303 3.545700 -17.130100 0
M  V30 68 H 9.932036 6.799898 -11.006089 0
M  V30 69 H 10.390030 7.362607 -12.598807 0
M  V30 END ATOM
M  V30 BEGIN BOND
M  V30 1 1 8 6
M  V30 2 1 9 6
M  V30 3 1 10 9
M  V30 4 1 11 4
M  V30 5 1 11 7
M  V30 6 1 13 3
M  V30 7 1 13 10
M  V30 8 1 15 4
M  V30 9 1 16 8
M  V30 10 1 18 1
M  V30 11 1 19 1
M  V30 12 1 19 17
M  V30 13 1 20 2
M  V30 14 1 20 11
M  V30 15 1 21 1
M  V30 16 1 21 20
M  V30 17 1 22 3
M  V30 18 1 23 5
M  V30 19 1 23 10
M  V30 20 1 23 14
M  V30 21 1 24 5 CFG=3
M  V30 22 1 24 13
M  V30 23 1 24 17
M  V30 24 1 24 19
M  V30 25 1 25 12
M  V30 26 2 26 21
M  V30 27 1 27 12
M  V30 28 1 28 15
M  V30 29 1 29 2
M  V30 30 1 29 4
M  V30 31 1 30 27
M  V30 32 1 31 16
M  V30 33 1 31 30
M  V30 34 1 32 3
M  V30 35 1 32 22
M  V30 36 2 33 31
M  V30 37 1 34 2
M  V30 38 1 35 2
M  V30 39 1 3 36 CFG=3
M  V30 40 1 37 6
M  V30 41 1 38 6
M  V30 42 1 39 8
M  V30 43 1 40 8
M  V30 44 1 41 9
M  V30 45 1 10 42 CFG=1
M  V30 46 1 11 43 CFG=1
M  V30 47 1 44 12
M  V30 48 1 45 12
M  V30 49 1 13 46 CFG=1
M  V30 50 1 47 14
M  V30 51 1 48 16
M  V30 52 1 49 16
M  V30 53 1 50 17
M  V30 54 1 51 17
M  V30 55 1 52 18
M  V30 56 1 53 18
M  V30 57 1 54 18
M  V30 58 1 19 55 CFG=3
M  V30 59 1 20 56 CFG=3
M  V30 60 1 57 22
M  V30 61 1 58 22
M  V30 62 1 23 59 CFG=1
M  V30 63 1 60 25
M  V30 64 1 61 27
M  V30 65 1 62 27
M  V30 66 1 63 28
M  V30 67 1 64 28
M  V30 68 1 65 28
M  V30 69 1 66 29
M  V30 70 1 67 29
M  V30 71 1 68 32
M  V30 72 1 69 32
M  V30 END BOND
M  V30 END CTAB
M  END
>  <i_epik_Tot_Q>  (1) 
1

>  <i_epik_Tot_abs_Q>  (1) 
1

>  <i_i_glide_confnum>  (1) 
4944

>  <i_i_glide_lignum>  (1) 
38

>  <i_i_glide_posenum>  (1) 
17

>  <i_i_glide_rotatable_bonds>  (1) 
15

>  <i_lp_mmshare_version>  (1) 
72125

>  <i_m_source_file_index>  (1) 
9

>  <i_f3d_flags>  (1) 
0

>  <num_sample>  (1) 
50

>  <b_lp_Chiralities_Consistent>  (1) 
1

>  <r_epik_Charging_Adjusted_Penalty>  (1) 
1.2103720943885907

>  <r_epik_Ionization_Penalty>  (1) 
0.55446808147534954

>  <r_epik_Ionization_Penalty_Charging>  (1) 
0.13553905892425583

>  <r_epik_Ionization_Penalty_Neutral>  (1) 
0.41892902255109377

>  <r_epik_State_Penalty>  (1) 
1.074833035464335

>  <r_glide_ring_energy>  (1) 
0

>  <r_i_docking_score>  (1) 
-1.9926424019690026

>  <r_i_glide_ecoul>  (1) 
-6.4006074792400485

>  <r_i_glide_eff_state_penalty>  (1) 
1.074833035464335

>  <r_i_glide_einternal>  (1) 
8.3210693248055989

>  <r_i_glide_emodel>  (1) 
-24.774650949973477

>  <r_i_glide_emodel_strain>  (1) 
8.4630928379449983

>  <r_i_glide_energy>  (1) 
-28.562145660007708

>  <r_i_glide_erotb>  (1) 
1.0741905119875848

>  <r_i_glide_esite>  (1) 
-0.033363066544553087

>  <r_i_glide_evdw>  (1) 
-22.161538180767661

>  <r_i_glide_gscore>  (1) 
-3.0674754374333375

>  <r_i_glide_gscore_strain>  (1) 
1.1157732094862496

>  <r_i_glide_hbond>  (1) 
-0.11038358284827447

>  <r_i_glide_ligand_efficiency>  (1) 
-0.060383103089969775

>  <r_i_glide_ligand_efficiency_ln>  (1) 
-0.44315335284772145

>  <r_i_glide_ligand_efficiency_sa>  (1) 
-0.19368087611275514

>  <r_i_glide_lipo>  (1) 
-1.1953100304154731

>  <r_i_glide_metal>  (1) 
-0

>  <r_i_glide_rewards>  (1) 
-1.8502144481744804

>  <r_lp_Energy>  (1) 
41.909411999999996

>  <s_epik_Chemistry_Notes>  (1) 
This compound has an ester and may undergo hydrolysis at high or low pH. This compound contains an acetal/aminal-like group ( X-CH(R)-Y where X, Y are N, S, or O) that may be acid/base labile, releasing an aldehyde. This compound has a N-S or N-O group and may undergo hydrolysis at high or low pH.

>  <s_epik_cmdline>  (1) 
J2VwaWtfcHl0aG9uJywgJy1waHQnLCAnMS4wJywgJy1waCcsICc3LjQnLCAnLXRuJywgJzgnLCAnLW1hJywgJzUwMCcsICctaW1hZScsICc8aW5maWxlLm1hZT4nLCAnLW9tYWUnLCAnPG91dGZpbGUubWFlPic=

>  <s_epik_input>  (1) 
W0NIM11PTjFbQ0BIXShGKVtDQEBIXShbQ0gyXVtDSDJdMSlDKD1PKU4oW0NIM10pW0NASF0yW0NIMl1DMjNPW0NAQEhdKFtPSF0pW0NASF0oW0NASF0zW0NASF00W0NIMl1bTkhdNClbTkhdW0NIMl1bQ0gyXVtDSDJdQyg9TylPW0NIMl1bQ0gyXVtPSF0=

>  <s_glide_docking_method>  (1) 
confgen

>  <s_i_glide_gridfile>  (1) 
gpcr_drd2_6luq_protein_autoprepared_prepared

>  <s_lp_Force_Field>  (1) 
S-OPLS

>  <s_lp_Variant>  (1) 
DiffSBDD_8-7

>  <s_m_source_file>  (1) 
generated_generic_title2_ligand_DiffSBDD_2026-06-23_prepared.sdf

>  <GenAI_Model>  (1) 
DiffSBDD

>  <Protein>  (1) 
generic_title2

$$$$
DiffSBDD_20
     RDKit          3D

  0  0  0  0  0  0  0  0  0  0999 V3000
M  V30 BEGIN CTAB
M  V30 COUNTS 71 73 0 0 1
M  V30 BEGIN ATOM
M  V30 1 C 8.669346 2.266405 -21.361057 0
M  V30 2 C 5.210912 0.141850 -15.995463 0
M  V30 3 C 6.995208 -1.441560 -19.153325 0 CFG=2
M  V30 4 C 7.416028 1.885001 -21.089606 0
M  V30 5 C 9.901256 1.644937 -20.831743 0 CFG=1
M  V30 6 C 7.362023 6.706101 -13.585290 0
M  V30 7 C 8.604366 4.388626 -15.885061 0 CFG=1
M  V30 8 F 10.170721 2.093840 -19.605678 0
M  V30 9 C 8.561142 1.773889 -16.397058 0
M  V30 10 O 6.159774 4.973600 -14.569182 0
M  V30 11 C 7.743193 -1.736662 -17.823687 0
M  V30 12 C 7.843516 3.154569 -16.462714 0 CFG=2
M  V30 13 C 7.862654 4.720612 -11.197542 0
M  V30 14 C 6.996413 0.739686 -20.265698 0
M  V30 15 C 7.710893 -0.392380 -19.990690 0
M  V30 16 C 9.068140 -0.699183 -20.485455 0
M  V30 17 C 8.518558 4.485940 -14.325947 0 CFG=2
M  V30 18 C 4.499687 -1.441246 -17.994217 0
M  V30 19 N 8.436133 -0.595187 -17.162786 0 CHG=1
M  V30 20 C 4.760943 -1.236159 -16.481728 0
M  V30 21 C 5.442104 4.790517 -11.845698 0
M  V30 22 C 7.636516 0.580274 -16.737311 0 CFG=1
M  V30 23 O 7.556259 3.441713 -17.815970 0
M  V30 24 C 7.248998 5.165827 -13.695284 0 CFG=1
M  V30 25 S 5.375631 0.755990 -19.607655 0
M  V30 26 C 10.005851 0.171784 -20.876391 0
M  V30 27 C 6.863645 4.472246 -12.343802 0
M  V30 28 C 6.683068 0.242027 -15.572569 0
M  V30 29 C 5.494310 -0.987842 -19.098008 0 CFG=1
M  V30 30 O 9.658115 5.190004 -13.866737 0
M  V30 31 N 9.999074 4.403354 -16.383807 0
M  V30 32 H 8.818332 3.138536 -21.981265 0
M  V30 33 H 4.608606 0.382883 -15.117950 0
M  V30 34 H 4.973222 0.898094 -16.734000 0
M  V30 35 H 7.008677 -2.373545 -19.722095 0
M  V30 36 H 6.626650 2.493391 -21.506979 0
M  V30 37 H 10.715370 2.019174 -21.453849 0
M  V30 38 H 8.105477 7.008418 -12.847825 0
M  V30 39 H 6.417999 7.165312 -13.291246 0
M  V30 40 H 7.663798 7.150301 -14.535103 0
M  V30 41 H 8.125744 5.292841 -16.262532 0
M  V30 42 H 9.409468 1.788970 -17.082254 0
M  V30 43 H 8.973598 1.588840 -15.408526 0
M  V30 44 H 6.194679 5.638631 -15.239192 0
M  V30 45 H 7.125925 -2.297164 -17.136475 0
M  V30 46 H 8.547521 -2.433960 -18.061578 0
M  V30 47 H 6.884069 3.057011 -15.961114 0
M  V30 48 H 7.824524 5.754459 -10.849728 0
M  V30 49 H 8.889411 4.497446 -11.482675 0
M  V30 50 H 7.626641 4.078405 -10.347618 0
M  V30 51 H 9.341230 -1.744027 -20.523031 0
M  V30 52 H 8.576965 3.468588 -13.940372 0
M  V30 53 H 4.306659 -2.505236 -18.139789 0
M  V30 54 H 3.548008 -0.963865 -18.223967 0
M  V30 55 H 8.908051 -0.965054 -16.349146 0
M  V30 56 H 5.383653 -2.020350 -16.062197 0
M  V30 57 H 3.804433 -1.407944 -15.988273 0
M  V30 58 H 5.279995 5.862300 -11.736216 0
M  V30 59 H 5.264542 4.333047 -10.872286 0
M  V30 60 H 4.688595 4.390425 -12.524388 0
M  V30 61 H 7.058420 0.904657 -17.587204 0
M  V30 62 H 6.991583 4.198674 -17.857108 0
M  V30 63 H 10.957455 -0.215092 -21.210816 0
M  V30 64 H 6.865206 3.395624 -12.523093 0
M  V30 65 H 6.733427 1.036593 -14.827076 0
M  V30 66 H 7.000584 -0.649376 -15.031621 0
M  V30 67 H 5.070543 -1.457219 -19.988508 0
M  V30 68 H 10.385237 4.941972 -14.426016 0
M  V30 69 H 10.472044 3.526112 -16.172738 0
M  V30 70 H 9.992255 4.473294 -17.401943 0
M  V30 71 H 9.130835 -0.258075 -17.814458 0
M  V30 END ATOM
M  V30 BEGIN BOND
M  V30 1 2 4 1
M  V30 2 1 5 1
M  V30 3 1 8 5
M  V30 4 1 11 3
M  V30 5 1 12 7
M  V30 6 1 12 9
M  V30 7 1 14 4
M  V30 8 1 15 3
M  V30 9 2 15 14
M  V30 10 1 16 15
M  V30 11 1 17 7
M  V30 12 1 19 11
M  V30 13 1 20 2
M  V30 14 1 20 18
M  V30 15 1 22 9
M  V30 16 1 22 19
M  V30 17 1 23 12
M  V30 18 1 24 6
M  V30 19 1 24 10 CFG=3
M  V30 20 1 24 17
M  V30 21 1 25 14
M  V30 22 1 26 5
M  V30 23 2 26 16
M  V30 24 1 27 13
M  V30 25 1 27 21
M  V30 26 1 27 24
M  V30 27 1 28 2
M  V30 28 1 28 22
M  V30 29 1 29 3
M  V30 30 1 29 18
M  V30 31 1 29 25
M  V30 32 1 30 17
M  V30 33 1 31 7
M  V30 34 1 32 1
M  V30 35 1 33 2
M  V30 36 1 34 2
M  V30 37 1 3 35 CFG=3
M  V30 38 1 36 4
M  V30 39 1 5 37 CFG=3
M  V30 40 1 38 6
M  V30 41 1 39 6
M  V30 42 1 40 6
M  V30 43 1 7 41 CFG=3
M  V30 44 1 42 9
M  V30 45 1 43 9
M  V30 46 1 44 10
M  V30 47 1 45 11
M  V30 48 1 46 11
M  V30 49 1 12 47 CFG=1
M  V30 50 1 48 13
M  V30 51 1 49 13
M  V30 52 1 50 13
M  V30 53 1 51 16
M  V30 54 1 17 52 CFG=1
M  V30 55 1 53 18
M  V30 56 1 54 18
M  V30 57 1 55 19
M  V30 58 1 56 20
M  V30 59 1 57 20
M  V30 60 1 58 21
M  V30 61 1 59 21
M  V30 62 1 60 21
M  V30 63 1 22 61 CFG=3
M  V30 64 1 62 23
M  V30 65 1 63 26
M  V30 66 1 64 27
M  V30 67 1 65 28
M  V30 68 1 66 28
M  V30 69 1 29 67 CFG=3
M  V30 70 1 68 30
M  V30 71 1 69 31
M  V30 72 1 70 31
M  V30 73 1 71 19
M  V30 END BOND
M  V30 END CTAB
M  END
>  <i_epik_Tot_Q>  (1) 
1

>  <i_epik_Tot_abs_Q>  (1) 
1

>  <i_i_glide_confnum>  (1) 
69

>  <i_i_glide_lignum>  (1) 
67

>  <i_i_glide_posenum>  (1) 
101

>  <i_i_glide_rotatable_bonds>  (1) 
9

>  <i_lp_mmshare_version>  (1) 
72125

>  <i_m_source_file_index>  (1) 
21

>  <i_f3d_flags>  (1) 
0

>  <num_sample>  (1) 
50

>  <b_lp_Chiralities_Consistent>  (1) 
1

>  <r_epik_Charging_Adjusted_Penalty>  (1) 
1.0900107648315034

>  <r_epik_Ionization_Penalty>  (1) 
1.0648013143729294

>  <r_epik_Ionization_Penalty_Charging>  (1) 
0.018420486395911647

>  <r_epik_Ionization_Penalty_Neutral>  (1) 
1.0463808279770177

>  <r_epik_State_Penalty>  (1) 
1.0715902784355917

>  <r_glide_ring_energy>  (1) 
0

>  <r_i_docking_score>  (1) 
-1.9659820699927824

>  <r_i_glide_ecoul>  (1) 
-2.7800031664844989

>  <r_i_glide_eff_state_penalty>  (1) 
1.0715902784355917

>  <r_i_glide_einternal>  (1) 
26.612213383056353

>  <r_i_glide_emodel>  (1) 
-19.187401851997592

>  <r_i_glide_emodel_strain>  (1) 
0.32794756164420846

>  <r_i_glide_energy>  (1) 
-27.485511882737661

>  <r_i_glide_erotb>  (1) 
0.38705737007943358

>  <r_i_glide_esite>  (1) 
-0.0077531589860352305

>  <r_i_glide_evdw>  (1) 
-24.705508716253163

>  <r_i_glide_gscore>  (1) 
-3.0375723484283741

>  <r_i_glide_gscore_strain>  (1) 
0

>  <r_i_glide_hbond>  (1) 
-0.09609694799343324

>  <r_i_glide_ligand_efficiency>  (1) 
-0.063418776451380082

>  <r_i_glide_ligand_efficiency_ln>  (1) 
-0.44338920689805261

>  <r_i_glide_ligand_efficiency_sa>  (1) 
-0.1992225173427003

>  <r_i_glide_lipo>  (1) 
-1.2328549128642174

>  <r_i_glide_metal>  (1) 
-0

>  <r_i_glide_rewards>  (1) 
-0.4356487878787888

>  <r_lp_Energy>  (1) 
51.224616999999995

>  <s_epik_cmdline>  (1) 
J2VwaWtfcHl0aG9uJywgJy1waHQnLCAnMS4wJywgJy1waCcsICc3LjQnLCAnLXRuJywgJzgnLCAnLW1hJywgJzUwMCcsICctaW1hZScsICc8aW5maWxlLm1hZT4nLCAnLW9tYWUnLCAnPG91dGZpbGUubWFlPic=

>  <s_epik_input>  (1) 
W0NIXTE9W0NIXVtDQEhdKEYpW0NIXT1bQ0hdQyg9QzFbQ0BASF0yMylTW0NAQEhdM1tDSDJdW0NIMl1bQ0gyXVtDSDJdW0NASF0oW05IXVtDSDJdMilbQ0gyXVtDQEhdKFtPSF0pW0NASF0oW05IMl0pW0NAQEhdKFtPSF0pW0NAQF0oW0NIM10pKFtPSF0pW0NIXShbQ0gzXSlbQ0gzXQ==

>  <s_glide_docking_method>  (1) 
confgen

>  <s_i_glide_gridfile>  (1) 
gpcr_drd2_6luq_protein_autoprepared_prepared

>  <s_lp_Force_Field>  (1) 
S-OPLS

>  <s_lp_Variant>  (1) 
DiffSBDD_20-4

>  <s_m_source_file>  (1) 
generated_generic_title2_ligand_DiffSBDD_2026-06-23_prepared.sdf

>  <GenAI_Model>  (1) 
DiffSBDD

>  <Protein>  (1) 
generic_title2

$$$$
DiffSBDD_25
     RDKit          3D

  0  0  0  0  0  0  0  0  0  0999 V3000
M  V30 BEGIN CTAB
M  V30 COUNTS 43 45 0 0 1
M  V30 BEGIN ATOM
M  V30 1 C -0.579632 20.689970 -2.799826 0 CFG=1
M  V30 2 C -0.919676 16.883391 -2.866995 0
M  V30 3 C -2.304640 16.720265 -2.690535 0
M  V30 4 C -1.182414 19.314635 -2.764436 0
M  V30 5 N -1.260062 19.614485 2.071824 0 CHG=1
M  V30 6 N 0.088429 20.456668 -0.361386 0
M  V30 7 C -2.574644 19.142132 -2.590702 0
M  V30 8 C -1.136124 21.866539 -2.034218 0
M  V30 9 C 0.117840 17.947914 3.259923 0
M  V30 10 C -0.016061 18.822828 2.004364 0 CFG=2
M  V30 11 C 1.334498 20.476677 0.401003 0 CFG=1
M  V30 12 C 0.161030 21.229229 -1.590774 0 CFG=2
M  V30 13 C -3.132147 17.848841 -2.553268 0
M  V30 14 C 2.349420 21.828390 2.170356 0
M  V30 15 C 1.460506 20.795687 2.847656 0
M  V30 16 C 1.792464 21.908676 0.752299 0
M  V30 17 C -0.359880 18.175036 -2.904496 0
M  V30 18 C 1.224493 19.728142 1.763059 0 CFG=1
M  V30 19 H -0.157449 20.893963 -3.781890 0
M  V30 20 H -0.284057 16.017168 -2.976071 0
M  V30 21 H -2.733219 15.728917 -2.662359 0
M  V30 22 H -1.245717 20.210757 2.885650 0
M  V30 23 H -1.300654 20.190833 1.238657 0
M  V30 24 H -0.100564 19.499004 -0.630257 0
M  V30 25 H -3.215951 20.004678 -2.486197 0
M  V30 26 H -1.059427 22.849907 -2.493698 0
M  V30 27 H -2.011742 21.716892 -1.406107 0
M  V30 28 H 0.976504 17.281114 3.188529 0
M  V30 29 H 0.238648 18.546571 4.163150 0
M  V30 30 H -0.762008 17.317485 3.396793 0
M  V30 31 H -0.113218 18.147659 1.152301 0
M  V30 32 H 2.105071 19.992335 -0.200540 0
M  V30 33 H 1.045409 21.824673 -1.805854 0
M  V30 34 H -4.196933 17.724018 -2.419977 0
M  V30 35 H 3.375697 21.464455 2.145024 0
M  V30 36 H 2.348719 22.791142 2.682368 0
M  V30 37 H 1.917137 20.390634 3.750816 0
M  V30 38 H 0.527309 21.276095 3.140391 0
M  V30 39 H 2.530926 22.292079 0.046515 0
M  V30 40 H 0.945986 22.597917 0.746819 0
M  V30 41 H 0.705027 18.294427 -3.041673 0
M  V30 42 H 2.095778 19.070972 1.790336 0
M  V30 43 H -2.063816 19.004594 2.107084 0
M  V30 END ATOM
M  V30 BEGIN BOND
M  V30 1 2 3 2
M  V30 2 1 4 1
M  V30 3 1 7 4
M  V30 4 1 8 1
M  V30 5 1 10 5
M  V30 6 1 10 9
M  V30 7 1 11 6
M  V30 8 1 12 1
M  V30 9 1 12 6
M  V30 10 1 12 8
M  V30 11 1 13 3
M  V30 12 2 13 7
M  V30 13 1 15 14
M  V30 14 1 16 11
M  V30 15 1 16 14
M  V30 16 1 17 2
M  V30 17 2 17 4
M  V30 18 1 18 10
M  V30 19 1 18 11
M  V30 20 1 18 15
M  V30 21 1 1 19 CFG=3
M  V30 22 1 20 2
M  V30 23 1 21 3
M  V30 24 1 22 5
M  V30 25 1 23 5
M  V30 26 1 24 6
M  V30 27 1 25 7
M  V30 28 1 26 8
M  V30 29 1 27 8
M  V30 30 1 28 9
M  V30 31 1 29 9
M  V30 32 1 30 9
M  V30 33 1 10 31 CFG=3
M  V30 34 1 11 32 CFG=3
M  V30 35 1 12 33 CFG=3
M  V30 36 1 34 13
M  V30 37 1 35 14
M  V30 38 1 36 14
M  V30 39 1 37 15
M  V30 40 1 38 15
M  V30 41 1 39 16
M  V30 42 1 40 16
M  V30 43 1 41 17
M  V30 44 1 18 42 CFG=3
M  V30 45 1 43 5
M  V30 END BOND
M  V30 END CTAB
M  END
>  <i_epik_Tot_Q>  (1) 
1

>  <i_epik_Tot_abs_Q>  (1) 
1

>  <i_i_glide_confnum>  (1) 
167

>  <i_i_glide_lignum>  (1) 
74

>  <i_i_glide_posenum>  (1) 
18

>  <i_i_glide_rotatable_bonds>  (1) 
4

>  <i_lp_mmshare_version>  (1) 
72125

>  <i_m_source_file_index>  (1) 
26

>  <i_f3d_flags>  (1) 
0

>  <num_sample>  (1) 
50

>  <b_lp_Chiralities_Consistent>  (1) 
1

>  <r_epik_Charging_Adjusted_Penalty>  (1) 
0.70247939945427629

>  <r_epik_Ionization_Penalty>  (1) 
0.7024793994542764

>  <r_epik_Ionization_Penalty_Charging>  (1) 
0.00054833754919439773

>  <r_epik_Ionization_Penalty_Neutral>  (1) 
0.70193106190508203

>  <r_epik_State_Penalty>  (1) 
0.70193106190508192

>  <r_glide_ring_energy>  (1) 
0.7345034582077562

>  <r_i_docking_score>  (1) 
-1.9428109740412629

>  <r_i_glide_ecoul>  (1) 
0.43935720688104052

>  <r_i_glide_eff_state_penalty>  (1) 
0.70193106190508192

>  <r_i_glide_einternal>  (1) 
8.9642892854958482

>  <r_i_glide_emodel>  (1) 
-18.808063670568139

>  <r_i_glide_emodel_strain>  (1) 
0.63192687239092038

>  <r_i_glide_energy>  (1) 
-16.986540705514972

>  <r_i_glide_erotb>  (1) 
0.86719654817177239

>  <r_i_glide_esite>  (1) 
0

>  <r_i_glide_evdw>  (1) 
-17.425897912396014

>  <r_i_glide_gscore>  (1) 
-2.6447420359463449

>  <r_i_glide_gscore_strain>  (1) 
0

>  <r_i_glide_hbond>  (1) 
0

>  <r_i_glide_ligand_efficiency>  (1) 
-0.10793394300229238

>  <r_i_glide_ligand_efficiency_ln>  (1) 
-0.4993895429396949

>  <r_i_glide_ligand_efficiency_sa>  (1) 
-0.28286695226629133

>  <r_i_glide_lipo>  (1) 
-0.97057715589410853

>  <r_i_glide_metal>  (1) 
-0

>  <r_i_glide_rewards>  (1) 
-1.7359701136363639

>  <r_lp_Energy>  (1) 
23.818217999999998

>  <s_epik_cmdline>  (1) 
J2VwaWtfcHl0aG9uJywgJy1waHQnLCAnMS4wJywgJy1waCcsICc3LjQnLCAnLXRuJywgJzgnLCAnLW1hJywgJzUwMCcsICctaW1hZScsICc8aW5maWxlLm1hZT4nLCAnLW9tYWUnLCAnPG91dGZpbGUubWFlPic=

>  <s_epik_input>  (1) 
W2NIXTFbY0hdW2NIXVtjSF1bY0hdYzFbQ0BIXTJbQ0gyXVtDQEhdMltOSF1bQ0BIXTNbQ0gyXVtDSDJdW0NIMl1bQ0BIXTNbQ0BIXShbTkgyXSlbQ0gzXQ==

>  <s_glide_docking_method>  (1) 
confgen

>  <s_i_glide_gridfile>  (1) 
gpcr_drd2_6luq_protein_autoprepared_prepared

>  <s_lp_Force_Field>  (1) 
S-OPLS

>  <s_lp_Variant>  (1) 
DiffSBDD_25-3

>  <s_m_source_file>  (1) 
generated_generic_title2_ligand_DiffSBDD_2026-06-23_prepared.sdf

>  <GenAI_Model>  (1) 
DiffSBDD

>  <Protein>  (1) 
generic_title2

$$$$
DiffSBDD_5
     RDKit          3D

  0  0  0  0  0  0  0  0  0  0999 V3000
M  V30 BEGIN CTAB
M  V30 COUNTS 64 67 0 0 1
M  V30 BEGIN ATOM
M  V30 1 C 10.482619 6.790377 -9.458180 0 CFG=1
M  V30 2 N 8.259986 4.527215 -13.006470 0
M  V30 3 C 5.534720 4.250163 -12.244006 0
M  V30 4 C 10.300953 7.294746 -8.061383 0
M  V30 5 C 8.684657 5.181059 -15.464451 0 CFG=2
M  V30 6 N 9.298445 6.161853 -10.032123 0
M  V30 7 C 7.854157 5.148599 -11.705041 0 CFG=1
M  V30 8 O 11.769754 8.771755 -9.894572 0 CHG=-1
M  V30 9 C 9.689474 8.389822 -7.660075 0
M  V30 10 C 8.711884 6.344849 -11.221825 0
M  V30 11 C 8.091958 -0.016053 -17.040445 0
M  V30 12 O 9.375410 3.656149 -12.702747 0
M  V30 13 C 10.459822 7.690211 -5.473283 0 CFG=1
M  V30 14 C 11.399806 7.663969 -10.344589 0
M  V30 15 C 6.542381 2.171692 -18.676065 0
M  V30 16 C 7.743146 3.866145 -17.289463 0
M  V30 17 C 9.679960 8.788585 -6.228525 0
M  V30 18 O 7.622633 -1.888040 -18.479130 0 CHG=-1
M  V30 19 C 7.524641 -0.696891 -20.849272 0
M  V30 20 O 8.904139 0.785549 -19.732321 0
M  V30 21 O 7.139716 4.806150 -17.815664 0
M  V30 22 C 6.571304 1.126016 -19.496952 0
M  V30 23 C 7.528698 2.434546 -17.626993 0
M  V30 24 O 11.768006 7.190155 -11.443149 0
M  V30 25 S 11.077923 6.510427 -6.703306 0
M  V30 26 C 7.666702 0.123518 -19.537072 0 CFG=1
M  V30 27 C 6.323910 5.398878 -11.599784 0
M  V30 28 C 7.677486 6.115018 -14.933611 0
M  V30 29 Cl 11.775288 8.420109 -4.507446 0
M  V30 30 C 9.656913 5.213437 -16.446900 0
M  V30 31 C 5.778961 6.776858 -12.031224 0
M  V30 32 C 8.219249 1.462423 -16.916258 0
M  V30 33 N 8.697629 4.057869 -16.355863 0
M  V30 34 O 8.839521 7.365333 -11.902044 0
M  V30 35 C 8.768544 5.437669 -14.015914 0 CFG=1
M  V30 36 C 7.778068 -0.669282 -18.234844 0
M  V30 37 H 10.975575 5.885324 -9.184694 0
M  V30 38 H 5.597316 4.261913 -13.332225 0
M  V30 39 H 5.898302 3.282219 -11.898373 0
M  V30 40 H 4.490615 4.318760 -11.984998 0
M  V30 41 H 8.985355 5.345436 -9.530302 0
M  V30 42 H 7.999160 4.365468 -10.956408 0
M  V30 43 H 9.181593 9.030987 -8.368837 0
M  V30 44 H 8.251783 -0.612099 -16.153446 0
M  V30 45 H 10.060936 4.270565 -12.477377 0
M  V30 46 H 9.818110 7.133546 -4.791917 0
M  V30 47 H 5.738428 2.881982 -18.801565 0
M  V30 48 H 10.175538 9.754878 -6.121861 0
M  V30 49 H 8.621502 8.790401 -5.978331 0
M  V30 50 H 6.597418 -1.271694 -20.862899 0
M  V30 51 H 7.513312 -0.043715 -21.722963 0
M  V30 52 H 8.352221 -1.395433 -20.978437 0
M  V30 53 H 9.246124 0.918672 -18.857592 0
M  V30 54 H 5.793656 1.018139 -20.240135 0
M  V30 55 H 6.107386 5.351142 -10.529826 0
M  V30 56 H 6.657096 5.743045 -14.888360 0
M  V30 57 H 7.774776 7.181299 -15.108697 0
M  V30 58 H 9.531413 5.920832 -17.265218 0
M  V30 59 H 10.685590 5.011597 -16.155609 0
M  V30 60 H 5.778243 6.907672 -13.111111 0
M  V30 61 H 4.757722 6.895244 -11.677372 0
M  V30 62 H 6.324241 7.607379 -11.587257 0
M  V30 63 H 8.870488 1.793611 -16.125270 0
M  V30 64 H 9.673610 5.989623 -13.783857 0
M  V30 END ATOM
M  V30 BEGIN BOND
M  V30 1 1 4 1
M  V30 2 1 6 1
M  V30 3 1 7 2
M  V30 4 2 9 4
M  V30 5 1 10 6
M  V30 6 1 10 7
M  V30 7 1 12 2
M  V30 8 1 14 1
M  V30 9 1 14 8
M  V30 10 1 17 9
M  V30 11 1 17 13
M  V30 12 2 21 16
M  V30 13 2 22 15
M  V30 14 1 23 15
M  V30 15 1 23 16
M  V30 16 2 24 14
M  V30 17 1 25 4
M  V30 18 1 25 13
M  V30 19 1 26 19
M  V30 20 1 26 20 CFG=3
M  V30 21 1 26 22
M  V30 22 1 27 3
M  V30 23 1 27 7
M  V30 24 1 28 5
M  V30 25 1 29 13
M  V30 26 1 30 5
M  V30 27 1 31 27
M  V30 28 1 32 11
M  V30 29 2 32 23
M  V30 30 1 5 33 CFG=1
M  V30 31 1 33 16
M  V30 32 1 33 30
M  V30 33 2 34 10
M  V30 34 1 35 2
M  V30 35 1 35 5
M  V30 36 1 35 28
M  V30 37 2 36 11
M  V30 38 1 36 18
M  V30 39 1 36 26
M  V30 40 1 1 37 CFG=1
M  V30 41 1 38 3
M  V30 42 1 39 3
M  V30 43 1 40 3
M  V30 44 1 41 6
M  V30 45 1 7 42 CFG=1
M  V30 46 1 43 9
M  V30 47 1 44 11
M  V30 48 1 45 12
M  V30 49 1 13 46 CFG=1
M  V30 50 1 47 15
M  V30 51 1 48 17
M  V30 52 1 49 17
M  V30 53 1 50 19
M  V30 54 1 51 19
M  V30 55 1 52 19
M  V30 56 1 53 20
M  V30 57 1 54 22
M  V30 58 1 55 27
M  V30 59 1 56 28
M  V30 60 1 57 28
M  V30 61 1 58 30
M  V30 62 1 59 30
M  V30 63 1 60 31
M  V30 64 1 61 31
M  V30 65 1 62 31
M  V30 66 1 63 32
M  V30 67 1 35 64 CFG=1
M  V30 END BOND
M  V30 END CTAB
M  END
>  <i_epik_Tot_Q>  (1) 
-2

>  <i_epik_Tot_abs_Q>  (1) 
2

>  <i_i_glide_confnum>  (1) 
354

>  <i_i_glide_lignum>  (1) 
29

>  <i_i_glide_posenum>  (1) 
314

>  <i_i_glide_rotatable_bonds>  (1) 
12

>  <i_lp_mmshare_version>  (1) 
72125

>  <i_m_source_file_index>  (1) 
6

>  <i_f3d_flags>  (1) 
0

>  <num_sample>  (1) 
50

>  <b_lp_Chiralities_Consistent>  (1) 
1

>  <r_epik_Charging_Adjusted_Penalty>  (1) 
2.4843421674805191

>  <r_epik_Ionization_Penalty>  (1) 
1.2439101461513797

>  <r_epik_Ionization_Penalty_Charging>  (1) 
1.2421750937233493

>  <r_epik_Ionization_Penalty_Neutral>  (1) 
0.0017350524280304977

>  <r_epik_State_Penalty>  (1) 
1.2421670737571699

>  <r_glide_ring_energy>  (1) 
0

>  <r_i_docking_score>  (1) 
-1.9412703554624247

>  <r_i_glide_ecoul>  (1) 
-1.2603604919344766

>  <r_i_glide_eff_state_penalty>  (1) 
1.2421670737571699

>  <r_i_glide_einternal>  (1) 
11.354613176293441

>  <r_i_glide_emodel>  (1) 
-31.826884699136649

>  <r_i_glide_emodel_strain>  (1) 
2.789379895595232

>  <r_i_glide_energy>  (1) 
-35.24968624103159

>  <r_i_glide_erotb>  (1) 
0.49960406782581518

>  <r_i_glide_esite>  (1) 
-0.15520174244869611

>  <r_i_glide_evdw>  (1) 
-33.989325749097112

>  <r_i_glide_gscore>  (1) 
-3.1834374292195946

>  <r_i_glide_gscore_strain>  (1) 
0

>  <r_i_glide_hbond>  (1) 
-0.0010023843747013091

>  <r_i_glide_ligand_efficiency>  (1) 
-0.053924176540622905

>  <r_i_glide_ligand_efficiency_ln>  (1) 
-0.42353274449790157

>  <r_i_glide_ligand_efficiency_sa>  (1) 
-0.17805370789368719

>  <r_i_glide_lipo>  (1) 
-1.2318401093494082

>  <r_i_glide_metal>  (1) 
-0

>  <r_i_glide_rewards>  (1) 
-0.40647689962757749

>  <r_lp_Energy>  (1) 
60.102664999999995

>  <s_epik_Chemistry_Notes>  (1) 
This compound has a N-S or N-O group and may undergo hydrolysis at high or low pH.

>  <s_epik_cmdline>  (1) 
J2VwaWtfcHl0aG9uJywgJy1waHQnLCAnMS4wJywgJy1waCcsICc3LjQnLCAnLXRuJywgJzgnLCAnLW1hJywgJzUwMCcsICctaW1hZScsICc8aW5maWxlLm1hZT4nLCAnLW9tYWUnLCAnPG91dGZpbGUubWFlPic=

>  <s_epik_input>  (1) 
UzFbQ0BASF0oQ2wpW0NIMl1bQ0hdPUMxW0NASF0oQyg9TylbT0hdKVtOSF1DKD1PKVtDQEBIXShbQ0hdKFtDSDNdKVtDSDNdKU4oW09IXSlbQ0hdMltDSDJdQzIzW0NIMl1OM0MoPU8pQyhbQ0hdPVtDSF1bQ0BAXTQoW0NIM10pW09IXSk9W0NIXVtDSF09QzRbT0hd

>  <s_glide_docking_method>  (1) 
confgen

>  <s_i_glide_gridfile>  (1) 
gpcr_drd2_6luq_protein_autoprepared_prepared

>  <s_lp_Force_Field>  (1) 
S-OPLS

>  <s_lp_Variant>  (1) 
DiffSBDD_5-2

>  <s_m_source_file>  (1) 
generated_generic_title2_ligand_DiffSBDD_2026-06-23_prepared.sdf

>  <GenAI_Model>  (1) 
DiffSBDD

>  <Protein>  (1) 
generic_title2

$$$$
DiffSBDD_0
     RDKit          3D

  0  0  0  0  0  0  0  0  0  0999 V3000
M  V30 BEGIN CTAB
M  V30 COUNTS 70 74 0 0 1
M  V30 BEGIN ATOM
M  V30 1 C 4.003437 -6.859449 -18.505660 0
M  V30 2 N 6.045367 0.634572 -19.277489 0
M  V30 3 C 7.552652 4.184894 -21.135147 0 CFG=1
M  V30 4 C 6.446037 -1.208992 -17.692738 0
M  V30 5 F 7.133776 -5.938347 -16.753250 0
M  V30 6 C 5.058428 1.581372 -19.813591 0
M  V30 7 C 3.694151 -5.471536 -19.088104 0
M  V30 8 C 7.714557 -3.125738 -18.201206 0
M  V30 9 C 5.524566 -4.431118 -17.630605 0 CFG=1
M  V30 10 C 8.399952 5.006860 -18.766416 0
M  V30 11 C 7.356191 0.642040 -19.957851 0 CFG=2
M  V30 12 C 7.124023 -1.474271 -22.957086 0
M  V30 13 C 8.522386 4.977594 -20.260071 0 CFG=1
M  V30 14 O 7.547559 -1.711886 -18.324000 0
M  V30 15 C 5.844994 -5.840789 -17.082677 0 CFG=1
M  V30 16 C 9.016397 3.805796 -21.095445 0 CFG=1
M  V30 17 N 6.897299 2.947368 -20.638035 0 CFG=1 CHG=1
M  V30 18 C 6.509649 -3.945508 -18.726765 0
M  V30 19 C 7.217073 -1.155601 -21.461095 0
M  V30 20 C 7.851133 2.098137 -19.916269 0 CFG=2
M  V30 21 O 5.775312 -1.609793 -23.348123 0
M  V30 22 C 4.050972 -4.361506 -18.086501 0
M  V30 23 N 9.433418 4.694795 -17.931577 0
M  V30 24 C 5.593511 3.019844 -19.957430 0
M  V30 25 N 7.263607 5.379571 -18.175662 0
M  V30 26 O 7.550023 5.292086 -16.804675 0
M  V30 27 C 8.840300 4.906633 -16.768457 0
M  V30 28 O 7.274971 0.252119 -21.290953 0
M  V30 29 N 9.375416 4.790227 -15.497777 0
M  V30 30 C 5.755790 -0.141021 -18.146180 0
M  V30 31 C 5.472930 -6.964614 -18.067169 0
M  V30 32 C 8.787222 4.996218 -14.187342 0
M  V30 33 C 9.196294 2.389810 -20.574611 0
M  V30 34 H 3.352945 -7.045862 -17.649765 0
M  V30 35 H 3.776565 -7.632135 -19.240707 0
M  V30 36 H 7.137330 4.603605 -22.049737 0
M  V30 37 H 6.187836 -1.763485 -16.804354 0
M  V30 38 H 4.734870 1.206168 -20.785044 0
M  V30 39 H 4.175410 1.590099 -19.185029 0
M  V30 40 H 2.636423 -5.405297 -19.346136 0
M  V30 41 H 4.248539 -5.327343 -20.015987 0
M  V30 42 H 8.575411 -3.378589 -18.816318 0
M  V30 43 H 7.987592 -3.405296 -17.185028 0
M  V30 44 H 5.604666 -3.755967 -16.785026 0
M  V30 45 H 8.094795 0.047628 -19.433466 0
M  V30 46 H 7.618810 -2.423235 -23.165374 0
M  V30 47 H 7.624466 -0.713779 -23.557555 0
M  V30 48 H 8.791362 5.972055 -20.610798 0
M  V30 49 H 5.293478 -5.989090 -16.152100 0
M  V30 50 H 9.640265 4.067318 -21.948057 0
M  V30 51 H 5.984018 -3.353012 -19.474567 0
M  V30 52 H 6.886302 -4.806678 -19.277122 0
M  V30 53 H 6.381429 -1.592613 -20.913285 0
M  V30 54 H 8.133251 -1.591728 -21.059809 0
M  V30 55 H 7.899038 2.397909 -18.867896 0
M  V30 56 H 5.269061 -0.877957 -23.017437 0
M  V30 57 H 3.404929 -4.456429 -17.211936 0
M  V30 58 H 3.828500 -3.382172 -18.511826 0
M  V30 59 H 4.896852 3.631491 -20.531222 0
M  V30 60 H 5.693800 3.474111 -18.973369 0
M  V30 61 H 10.348162 4.514979 -15.470739 0
M  V30 62 H 4.874078 0.194565 -17.623530 0
M  V30 63 H 5.649746 -7.932935 -17.599540 0
M  V30 64 H 6.119105 -6.928554 -18.944041 0
M  V30 65 H 9.537448 4.849364 -13.409594 0
M  V30 66 H 8.390558 6.007683 -14.098830 0
M  V30 67 H 7.973821 4.289521 -14.020189 0
M  V30 68 H 9.390804 1.724114 -21.416387 0
M  V30 69 H 10.031915 2.325341 -19.876696 0
M  V30 70 H 6.714466 2.410061 -21.475270 0
M  V30 END ATOM
M  V30 BEGIN BOND
M  V30 1 1 6 2
M  V30 2 1 7 1
M  V30 3 1 11 2
M  V30 4 1 13 3
M  V30 5 1 13 10
M  V30 6 1 14 4
M  V30 7 1 14 8
M  V30 8 1 15 5
M  V30 9 1 15 9
M  V30 10 1 16 3
M  V30 11 1 16 13
M  V30 12 1 17 3
M  V30 13 1 18 8
M  V30 14 1 18 9
M  V30 15 1 19 12
M  V30 16 1 20 11
M  V30 17 1 20 17
M  V30 18 1 21 12
M  V30 19 1 22 7
M  V30 20 1 22 9
M  V30 21 1 23 10
M  V30 22 1 24 6
M  V30 23 1 24 17
M  V30 24 2 25 10
M  V30 25 1 26 25
M  V30 26 2 27 23
M  V30 27 1 27 26
M  V30 28 1 28 11
M  V30 29 1 28 19
M  V30 30 1 29 27
M  V30 31 1 30 2
M  V30 32 2 30 4
M  V30 33 1 31 1
M  V30 34 1 31 15
M  V30 35 1 32 29
M  V30 36 1 33 16
M  V30 37 1 33 20
M  V30 38 1 34 1
M  V30 39 1 35 1
M  V30 40 1 3 36 CFG=3
M  V30 41 1 37 4
M  V30 42 1 38 6
M  V30 43 1 39 6
M  V30 44 1 40 7
M  V30 45 1 41 7
M  V30 46 1 42 8
M  V30 47 1 43 8
M  V30 48 1 9 44 CFG=1
M  V30 49 1 11 45 CFG=1
M  V30 50 1 46 12
M  V30 51 1 47 12
M  V30 52 1 13 48 CFG=3
M  V30 53 1 15 49 CFG=1
M  V30 54 1 16 50 CFG=3
M  V30 55 1 51 18
M  V30 56 1 52 18
M  V30 57 1 53 19
M  V30 58 1 54 19
M  V30 59 1 20 55 CFG=1
M  V30 60 1 56 21
M  V30 61 1 57 22
M  V30 62 1 58 22
M  V30 63 1 59 24
M  V30 64 1 60 24
M  V30 65 1 61 29
M  V30 66 1 62 30
M  V30 67 1 63 31
M  V30 68 1 64 31
M  V30 69 1 65 32
M  V30 70 1 66 32
M  V30 71 1 67 32
M  V30 72 1 68 33
M  V30 73 1 69 33
M  V30 74 1 17 70 CFG=3
M  V30 END BOND
M  V30 END CTAB
M  END
>  <i_epik_Tot_Q>  (1) 
1

>  <i_epik_Tot_abs_Q>  (1) 
1

>  <i_i_glide_confnum>  (1) 
125

>  <i_i_glide_lignum>  (1) 
12

>  <i_i_glide_posenum>  (1) 
293

>  <i_i_glide_rotatable_bonds>  (1) 
11

>  <i_lp_mmshare_version>  (1) 
72125

>  <i_m_source_file_index>  (1) 
1

>  <i_f3d_flags>  (1) 
0

>  <num_sample>  (1) 
50

>  <b_lp_Chiralities_Consistent>  (1) 
1

>  <r_epik_Charging_Adjusted_Penalty>  (1) 
0.41344222577729461

>  <r_epik_Ionization_Penalty>  (1) 
0.0027644559619576371

>  <r_epik_Ionization_Penalty_Charging>  (1) 
0.0027623868246906495

>  <r_epik_Ionization_Penalty_Neutral>  (1) 
2.0691372669875143e-06

>  <r_epik_State_Penalty>  (1) 
0.41067983895260396

>  <r_glide_ring_energy>  (1) 
1.7272227408313681

>  <r_i_docking_score>  (1) 
-1.8562572421873544

>  <r_i_glide_ecoul>  (1) 
-4.9391356289412593

>  <r_i_glide_eff_state_penalty>  (1) 
0.41067983895260396

>  <r_i_glide_einternal>  (1) 
14.596266574705663

>  <r_i_glide_emodel>  (1) 
-22.256999526673233

>  <r_i_glide_emodel_strain>  (1) 
0.97737475003829388

>  <r_i_glide_energy>  (1) 
-26.434018024483606

>  <r_i_glide_erotb>  (1) 
0.74142510397790429

>  <r_i_glide_esite>  (1) 
-0.039525836936488069

>  <r_i_glide_evdw>  (1) 
-21.494882395542348

>  <r_i_glide_gscore>  (1) 
-2.2669370811399583

>  <r_i_glide_gscore_strain>  (1) 
0

>  <r_i_glide_hbond>  (1) 
-0.22791787161162042

>  <r_i_glide_ligand_efficiency>  (1) 
-0.056250219460222864

>  <r_i_glide_ligand_efficiency_ln>  (1) 
-0.41282199947684717

>  <r_i_glide_ligand_efficiency_sa>  (1) 
-0.18042450998846415

>  <r_i_glide_lipo>  (1) 
-0.54056875020353146

>  <r_i_glide_metal>  (1) 
-0

>  <r_i_glide_rewards>  (1) 
-0.38473526224791604

>  <r_lp_Energy>  (1) 
39.695543999999998

>  <r_lp_tautomer_probability>  (1) 
0.5

>  <s_epik_Chemistry_Notes>  (1) 
This compound has an imine and may undergo hydrolysis. This compound contains an acetal/aminal-like group ( X-CH(R)-Y where X, Y are N, S, or O) that may be acid/base labile, releasing an aldehyde.

>  <s_epik_cmdline>  (1) 
J2VwaWtfcHl0aG9uJywgJy1waHQnLCAnMS4wJywgJy1waCcsICc3LjQnLCAnLXRuJywgJzgnLCAnLW1hJywgJzUwMCcsICctaW1hZScsICc8aW5maWxlLm1hZT4nLCAnLW9tYWUnLCAnPG91dGZpbGUubWFlPic=

>  <s_epik_input>  (1) 
W0NIMl0xW0NIMl1bQ0gyXVtDSDJdW0NASF0oRilbQ0BIXTFbQ0gyXVtDSDJdTy9bQ0hdPVtDSF1cTihbQ0BIXTJPW0NIMl1bQ0gyXVtPSF0pW0NIMl1bQ0gyXU4zW0NAQEhdMltDSDJdW0NAQEhdKFtDQEBIXTM0KVtDQEBIXTRjNW5jKG9uNSlbTkhdW0NIM10=

>  <s_glide_docking_method>  (1) 
confgen

>  <s_i_glide_gridfile>  (1) 
gpcr_drd2_6luq_protein_autoprepared_prepared

>  <s_lp_Force_Field>  (1) 
S-OPLS

>  <s_lp_Variant>  (1) 
DiffSBDD_0-12

>  <s_m_source_file>  (1) 
generated_generic_title2_ligand_DiffSBDD_2026-06-23_prepared.sdf

>  <GenAI_Model>  (1) 
DiffSBDD

>  <Protein>  (1) 
generic_title2

$$$$
DiffSBDD_20
     RDKit          3D

  0  0  0  0  0  0  0  0  0  0999 V3000
M  V30 BEGIN CTAB
M  V30 COUNTS 71 73 0 0 1
M  V30 BEGIN ATOM
M  V30 1 C 16.547425 5.003159 -19.461471 0
M  V30 2 C 10.948416 1.114007 -19.941026 0
M  V30 3 C 13.446789 2.428167 -17.207290 0 CFG=2
M  V30 4 C 16.212680 3.714285 -19.584992 0
M  V30 5 C 15.825612 6.008245 -18.654294 0 CFG=1
M  V30 6 C 5.398728 5.345806 -21.200378 0
M  V30 7 C 8.667307 5.277717 -20.407013 0 CFG=1
M  V30 8 F 14.716263 6.396697 -19.284568 0
M  V30 9 C 11.278916 4.887009 -20.601367 0
M  V30 10 O 6.158373 4.434677 -19.185016 0
M  V30 11 C 12.069141 3.149055 -17.210336 0
M  V30 12 C 10.104574 5.857771 -20.267462 0 CFG=2
M  V30 13 C 5.551283 6.743438 -17.506079 0
M  V30 14 C 15.112772 3.020561 -18.895658 0
M  V30 15 C 14.533585 3.362856 -17.707046 0
M  V30 16 C 14.919516 4.507769 -16.861049 0
M  V30 17 C 7.529537 6.264953 -19.986597 0 CFG=2
M  V30 18 C 12.551745 0.023980 -18.160430 0
M  V30 19 N 11.837406 4.123768 -18.306209 0 CHG=1
M  V30 20 C 11.112487 0.322275 -18.633588 0
M  V30 21 C 4.740790 7.919886 -19.589269 0
M  V30 22 C 11.542923 3.656810 -19.683389 0 CFG=1
M  V30 23 O 10.314134 6.390222 -18.974709 0
M  V30 24 C 6.074555 5.682307 -19.848961 0 CFG=1
M  V30 25 S 14.509026 1.541495 -19.595324 0
M  V30 26 C 15.509078 5.639617 -17.258635 0
M  V30 27 C 5.110592 6.555425 -18.974161 0
M  V30 28 C 10.447857 2.565327 -19.777188 0
M  V30 29 C 13.627109 1.129689 -18.057895 0 CFG=1
M  V30 30 O 7.556255 7.385424 -20.853663 0
M  V30 31 N 8.446369 4.765060 -21.769618 0
M  V30 32 H 17.381698 5.377983 -20.037135 0
M  V30 33 H 10.185414 0.591369 -20.520303 0
M  V30 34 H 11.839296 1.056453 -20.565276 0
M  V30 35 H 13.671239 2.163539 -16.173860 0
M  V30 36 H 16.801754 3.125398 -20.273414 0
M  V30 37 H 16.460367 6.894481 -18.611815 0
M  V30 38 H 5.387975 6.202530 -21.873313 0
M  V30 39 H 4.363845 5.032241 -21.057843 0
M  V30 40 H 5.893317 4.531220 -21.726440 0
M  V30 41 H 8.613979 4.443296 -19.712677 0
M  V30 42 H 11.169508 4.536386 -21.627915 0
M  V30 43 H 12.194752 5.480463 -20.622391 0
M  V30 44 H 6.602525 3.829814 -19.760526 0
M  V30 45 H 11.225874 2.488190 -17.063668 0
M  V30 46 H 12.055148 3.779049 -16.322212 0
M  V30 47 H 10.183301 6.700718 -20.955872 0
M  V30 48 H 6.440287 7.364847 -17.415434 0
M  V30 49 H 5.759103 5.791291 -17.018007 0
M  V30 50 H 4.764147 7.230255 -16.929438 0
M  V30 51 H 14.690181 4.429202 -15.807147 0
M  V30 52 H 7.802419 6.643732 -19.004018 0
M  V30 53 H 12.468095 -0.450207 -17.184947 0
M  V30 54 H 12.975409 -0.749580 -18.800290 0
M  V30 55 H 11.057097 4.716037 -18.043975 0
M  V30 56 H 10.499226 0.734778 -17.837027 0
M  V30 57 H 10.642116 -0.648989 -18.793570 0
M  V30 58 H 5.584475 8.608919 -19.585931 0
M  V30 59 H 3.936773 8.390229 -19.024176 0
M  V30 60 H 4.386410 7.828807 -20.614864 0
M  V30 61 H 12.460121 3.227896 -20.071992 0
M  V30 62 H 10.899076 7.133096 -19.043953 0
M  V30 63 H 15.729837 6.390210 -16.516828 0
M  V30 64 H 4.175317 5.999385 -18.920068 0
M  V30 65 H 9.875579 2.754026 -20.683844 0
M  V30 66 H 9.722183 2.645564 -18.967277 0
M  V30 67 H 14.428910 0.611313 -17.527779 0
M  V30 68 H 8.361006 7.858341 -20.710025 0
M  V30 69 H 8.190219 5.537697 -22.385956 0
M  V30 70 H 9.291222 4.343021 -22.150459 0
M  V30 71 H 12.651651 4.720540 -18.355368 0
M  V30 END ATOM
M  V30 BEGIN BOND
M  V30 1 2 4 1
M  V30 2 1 5 1
M  V30 3 1 8 5
M  V30 4 1 11 3
M  V30 5 1 12 7
M  V30 6 1 12 9
M  V30 7 1 14 4
M  V30 8 1 15 3
M  V30 9 2 15 14
M  V30 10 1 16 15
M  V30 11 1 17 7
M  V30 12 1 19 11
M  V30 13 1 20 2
M  V30 14 1 20 18
M  V30 15 1 22 9
M  V30 16 1 22 19
M  V30 17 1 23 12
M  V30 18 1 24 6
M  V30 19 1 24 10 CFG=1
M  V30 20 1 24 17
M  V30 21 1 25 14
M  V30 22 1 26 5
M  V30 23 2 26 16
M  V30 24 1 27 13
M  V30 25 1 27 21
M  V30 26 1 27 24
M  V30 27 1 28 2
M  V30 28 1 28 22
M  V30 29 1 29 3
M  V30 30 1 29 18
M  V30 31 1 29 25
M  V30 32 1 30 17
M  V30 33 1 31 7
M  V30 34 1 32 1
M  V30 35 1 33 2
M  V30 36 1 34 2
M  V30 37 1 3 35 CFG=1
M  V30 38 1 36 4
M  V30 39 1 5 37 CFG=1
M  V30 40 1 38 6
M  V30 41 1 39 6
M  V30 42 1 40 6
M  V30 43 1 7 41 CFG=1
M  V30 44 1 42 9
M  V30 45 1 43 9
M  V30 46 1 44 10
M  V30 47 1 45 11
M  V30 48 1 46 11
M  V30 49 1 12 47 CFG=3
M  V30 50 1 48 13
M  V30 51 1 49 13
M  V30 52 1 50 13
M  V30 53 1 51 16
M  V30 54 1 17 52 CFG=1
M  V30 55 1 53 18
M  V30 56 1 54 18
M  V30 57 1 55 19
M  V30 58 1 56 20
M  V30 59 1 57 20
M  V30 60 1 58 21
M  V30 61 1 59 21
M  V30 62 1 60 21
M  V30 63 1 22 61 CFG=3
M  V30 64 1 62 23
M  V30 65 1 63 26
M  V30 66 1 64 27
M  V30 67 1 65 28
M  V30 68 1 66 28
M  V30 69 1 29 67 CFG=1
M  V30 70 1 68 30
M  V30 71 1 69 31
M  V30 72 1 70 31
M  V30 73 1 71 19
M  V30 END BOND
M  V30 END CTAB
M  END
>  <i_epik_Tot_Q>  (1) 
1

>  <i_epik_Tot_abs_Q>  (1) 
1

>  <i_i_glide_confnum>  (1) 
47

>  <i_i_glide_lignum>  (1) 
67

>  <i_i_glide_posenum>  (1) 
382

>  <i_i_glide_rotatable_bonds>  (1) 
9

>  <i_lp_mmshare_version>  (1) 
72125

>  <i_m_source_file_index>  (1) 
21

>  <i_f3d_flags>  (1) 
0

>  <num_sample>  (1) 
50

>  <b_lp_Chiralities_Consistent>  (1) 
1

>  <r_epik_Charging_Adjusted_Penalty>  (1) 
1.0900107648315034

>  <r_epik_Ionization_Penalty>  (1) 
1.0648013143729294

>  <r_epik_Ionization_Penalty_Charging>  (1) 
0.018420486395911647

>  <r_epik_Ionization_Penalty_Neutral>  (1) 
1.0463808279770177

>  <r_epik_State_Penalty>  (1) 
1.0715902784355917

>  <r_glide_ring_energy>  (1) 
0

>  <r_i_docking_score>  (1) 
-1.8409650257770729

>  <r_i_glide_ecoul>  (1) 
-2.4576584554373202

>  <r_i_glide_eff_state_penalty>  (1) 
1.0715902784355917

>  <r_i_glide_einternal>  (1) 
11.770767042752787

>  <r_i_glide_emodel>  (1) 
-24.096391394034985

>  <r_i_glide_emodel_strain>  (1) 
0.36521821496523899

>  <r_i_glide_energy>  (1) 
-25.230659800548558

>  <r_i_glide_erotb>  (1) 
0.38705737007943358

>  <r_i_glide_esite>  (1) 
0

>  <r_i_glide_evdw>  (1) 
-22.77300134511124

>  <r_i_glide_gscore>  (1) 
-2.9125553042126646

>  <r_i_glide_gscore_strain>  (1) 
0

>  <r_i_glide_hbond>  (1) 
0

>  <r_i_glide_ligand_efficiency>  (1) 
-0.059385968573453962

>  <r_i_glide_ligand_efficiency_ln>  (1) 
-0.41519403211512812

>  <r_i_glide_ligand_efficiency_sa>  (1) 
-0.18655393270017162

>  <r_i_glide_lipo>  (1) 
-1.4399983841754829

>  <r_i_glide_metal>  (1) 
-0

>  <r_i_glide_rewards>  (1) 
-0.35231545454545543

>  <r_lp_Energy>  (1) 
51.224616999999995

>  <s_epik_cmdline>  (1) 
J2VwaWtfcHl0aG9uJywgJy1waHQnLCAnMS4wJywgJy1waCcsICc3LjQnLCAnLXRuJywgJzgnLCAnLW1hJywgJzUwMCcsICctaW1hZScsICc8aW5maWxlLm1hZT4nLCAnLW9tYWUnLCAnPG91dGZpbGUubWFlPic=

>  <s_epik_input>  (1) 
W0NIXTE9W0NIXVtDQEhdKEYpW0NIXT1bQ0hdQyg9QzFbQ0BASF0yMylTW0NAQEhdM1tDSDJdW0NIMl1bQ0gyXVtDSDJdW0NASF0oW05IXVtDSDJdMilbQ0gyXVtDQEhdKFtPSF0pW0NASF0oW05IMl0pW0NAQEhdKFtPSF0pW0NAQF0oW0NIM10pKFtPSF0pW0NIXShbQ0gzXSlbQ0gzXQ==

>  <s_glide_docking_method>  (1) 
confgen

>  <s_i_glide_gridfile>  (1) 
gpcr_drd2_6luq_protein_autoprepared_prepared

>  <s_lp_Force_Field>  (1) 
S-OPLS

>  <s_lp_Variant>  (1) 
DiffSBDD_20-4

>  <s_m_source_file>  (1) 
generated_generic_title2_ligand_DiffSBDD_2026-06-23_prepared.sdf

>  <GenAI_Model>  (1) 
DiffSBDD

>  <Protein>  (1) 
generic_title2

$$$$
DiffSBDD_43
     RDKit          3D

  0  0  0  0  0  0  0  0  0  0999 V3000
M  V30 BEGIN CTAB
M  V30 COUNTS 78 82 0 0 1
M  V30 BEGIN ATOM
M  V30 1 N 8.324847 1.612980 -18.088956 0
M  V30 2 C 7.075955 1.490839 -18.881187 0 CFG=1
M  V30 3 C 14.346198 9.194734 -19.218233 0
M  V30 4 C 5.792507 -1.173139 -19.413211 0 CFG=1
M  V30 5 C 13.147061 4.669791 -18.260308 0 CFG=2
M  V30 6 Cl 12.975541 7.590321 -16.825013 0
M  V30 7 C 4.583084 -3.159854 -20.566922 0
M  V30 8 C 15.862277 7.374743 -18.212456 0
M  V30 9 N 7.080273 -0.771041 -19.922291 0
M  V30 10 C 12.262437 4.081312 -17.139610 0
M  V30 11 C 5.528990 -2.631979 -19.504784 0
M  V30 12 O 8.577947 0.354289 -17.415573 0
M  V30 13 C 13.214270 8.157524 -19.467032 0 CFG=1
M  V30 14 C 9.819931 4.440757 -16.953150 0
M  V30 15 C 6.739714 -3.481395 -19.331541 0
M  V30 16 C 13.146344 7.726425 -20.944759 0
M  V30 17 C 14.758089 6.370466 -18.565060 0 CFG=1
M  V30 18 O 14.765680 5.223495 -16.418808 0
M  V30 19 C 15.678009 4.009816 -18.219175 0
M  V30 20 C 9.565688 1.934027 -18.798809 0
M  V30 21 C 14.612775 5.052783 -17.819301 0 CFG=1
M  V30 22 C 15.764744 8.575574 -19.178261 0
M  V30 23 C 7.215409 0.661257 -20.199740 0
M  V30 24 C 13.364284 6.984525 -18.469639 0 CFG=1
M  V30 25 C 8.158753 -1.605911 -20.002443 0
M  V30 26 N 10.915658 3.748972 -17.670441 0 CFG=2 CHG=1
M  V30 27 O 12.527927 5.856488 -18.699629 0
M  V30 28 C 5.904178 0.941412 -17.994684 0
M  V30 29 C 4.170308 -3.193453 -19.116756 0
M  V30 30 O 13.185090 3.754753 -19.335855 0
M  V30 31 N 7.937097 -2.914041 -19.645372 0
M  V30 32 C 5.706556 -0.598722 -17.985065 0
M  V30 33 O 6.662186 -4.649584 -18.955721 0
M  V30 34 C 6.711193 2.944876 -19.265309 0
M  V30 35 C 10.708697 2.286599 -17.823398 0
M  V30 36 O 9.270950 -1.209601 -20.346562 0
M  V30 37 H 14.304150 9.982572 -19.971412 0
M  V30 38 H 14.175347 9.697651 -18.266153 0
M  V30 39 H 5.027830 -0.674506 -20.012521 0
M  V30 40 H 4.175389 -2.412228 -21.241775 0
M  V30 41 H 4.807054 -4.115744 -21.038202 0
M  V30 42 H 16.844824 6.908296 -18.285574 0
M  V30 43 H 15.750169 7.712541 -17.185264 0
M  V30 44 H 12.189256 4.809833 -16.330475 0
M  V30 45 H 12.755001 3.202003 -16.720795 0
M  V30 46 H 8.675157 -0.243222 -18.141479 0
M  V30 47 H 12.258848 8.638863 -19.261606 0
M  V30 48 H 9.722080 4.072256 -15.933362 0
M  V30 49 H 10.005832 5.515420 -16.912880 0
M  V30 50 H 8.865325 4.297212 -17.458453 0
M  V30 51 H 14.075103 7.279484 -21.296055 0
M  V30 52 H 12.344826 7.005594 -21.106414 0
M  V30 53 H 12.941142 8.584665 -21.585465 0
M  V30 54 H 14.926913 6.096057 -19.606660 0
M  V30 55 H 14.646887 4.393956 -15.981889 0
M  V30 56 H 15.734340 3.854720 -19.297010 0
M  V30 57 H 16.666663 4.344863 -17.904526 0
M  V30 58 H 15.483179 3.044419 -17.750897 0
M  V30 59 H 9.871580 1.076696 -19.397674 0
M  V30 60 H 9.423883 2.752661 -19.502627 0
M  V30 61 H 16.046060 8.255010 -20.182146 0
M  V30 62 H 16.490741 9.338061 -18.893434 0
M  V30 63 H 6.398398 0.924640 -20.873935 0
M  V30 64 H 8.110115 0.918368 -20.766876 0
M  V30 65 H 5.977035 1.318848 -16.974026 0
M  V30 66 H 4.975513 1.352468 -18.385232 0
M  V30 67 H 4.127046 -4.166901 -18.630833 0
M  V30 68 H 3.408865 -2.489875 -18.784969 0
M  V30 69 H 13.742672 4.117583 -20.008465 0
M  V30 70 H 8.742974 -3.518064 -19.616384 0
M  V30 71 H 4.737220 -0.829374 -17.541729 0
M  V30 72 H 6.442273 -1.078060 -17.338421 0
M  V30 73 H 5.746296 2.991144 -19.772233 0
M  V30 74 H 6.636819 3.583915 -18.384658 0
M  V30 75 H 7.430961 3.397172 -19.946278 0
M  V30 76 H 10.578208 1.826990 -16.843369 0
M  V30 77 H 11.620713 1.851473 -18.233799 0
M  V30 78 H 10.931553 4.133461 -18.606068 0
M  V30 END ATOM
M  V30 BEGIN BOND
M  V30 1 1 2 1 CFG=1
M  V30 2 1 9 4
M  V30 3 1 10 5
M  V30 4 1 11 4
M  V30 5 1 11 7
M  V30 6 1 12 1
M  V30 7 1 13 3
M  V30 8 1 15 11
M  V30 9 1 16 13
M  V30 10 1 17 8
M  V30 11 1 20 1
M  V30 12 1 21 5
M  V30 13 1 21 17
M  V30 14 1 21 18 CFG=1
M  V30 15 1 21 19
M  V30 16 1 22 3
M  V30 17 1 22 8
M  V30 18 1 23 2
M  V30 19 1 23 9
M  V30 20 1 24 6 CFG=1
M  V30 21 1 24 13
M  V30 22 1 24 17
M  V30 23 1 25 9
M  V30 24 1 26 10
M  V30 25 1 26 14
M  V30 26 1 27 5
M  V30 27 1 27 24
M  V30 28 1 28 2
M  V30 29 1 29 7
M  V30 30 1 29 11
M  V30 31 1 5 30 CFG=3
M  V30 32 1 31 15
M  V30 33 1 31 25
M  V30 34 1 32 4
M  V30 35 1 32 28
M  V30 36 2 33 15
M  V30 37 1 34 2
M  V30 38 1 35 20
M  V30 39 1 35 26
M  V30 40 2 36 25
M  V30 41 1 37 3
M  V30 42 1 38 3
M  V30 43 1 4 39 CFG=3
M  V30 44 1 40 7
M  V30 45 1 41 7
M  V30 46 1 42 8
M  V30 47 1 43 8
M  V30 48 1 44 10
M  V30 49 1 45 10
M  V30 50 1 46 12
M  V30 51 1 13 47 CFG=1
M  V30 52 1 48 14
M  V30 53 1 49 14
M  V30 54 1 50 14
M  V30 55 1 51 16
M  V30 56 1 52 16
M  V30 57 1 53 16
M  V30 58 1 17 54 CFG=3
M  V30 59 1 55 18
M  V30 60 1 56 19
M  V30 61 1 57 19
M  V30 62 1 58 19
M  V30 63 1 59 20
M  V30 64 1 60 20
M  V30 65 1 61 22
M  V30 66 1 62 22
M  V30 67 1 63 23
M  V30 68 1 64 23
M  V30 69 1 65 28
M  V30 70 1 66 28
M  V30 71 1 67 29
M  V30 72 1 68 29
M  V30 73 1 69 30
M  V30 74 1 70 31
M  V30 75 1 71 32
M  V30 76 1 72 32
M  V30 77 1 73 34
M  V30 78 1 74 34
M  V30 79 1 75 34
M  V30 80 1 76 35
M  V30 81 1 77 35
M  V30 82 1 26 78 CFG=3
M  V30 END BOND
M  V30 END CTAB
M  END
>  <i_epik_Tot_Q>  (1) 
1

>  <i_epik_Tot_abs_Q>  (1) 
1

>  <i_i_glide_confnum>  (1) 
174

>  <i_i_glide_lignum>  (1) 
118

>  <i_i_glide_posenum>  (1) 
373

>  <i_i_glide_rotatable_bonds>  (1) 
9

>  <i_lp_mmshare_version>  (1) 
72125

>  <i_m_source_file_index>  (1) 
44

>  <i_f3d_flags>  (1) 
0

>  <num_sample>  (1) 
50

>  <b_lp_Chiralities_Consistent>  (1) 
1

>  <r_epik_Charging_Adjusted_Penalty>  (1) 
0.34224393187987273

>  <r_epik_Ionization_Penalty>  (1) 
0.17191807241559104

>  <r_epik_Ionization_Penalty_Charging>  (1) 
0.17112196593993639

>  <r_epik_Ionization_Penalty_Neutral>  (1) 
0.00079610647565464391

>  <r_epik_State_Penalty>  (1) 
0.17112196593993634

>  <r_glide_ring_energy>  (1) 
0

>  <r_i_docking_score>  (1) 
-1.8335814634202161

>  <r_i_glide_ecoul>  (1) 
-1.6179002063483336

>  <r_i_glide_eff_state_penalty>  (1) 
0.17112196593993634

>  <r_i_glide_einternal>  (1) 
4.5256140287670643

>  <r_i_glide_emodel>  (1) 
-28.848670185243357

>  <r_i_glide_emodel_strain>  (1) 
0

>  <r_i_glide_energy>  (1) 
-27.959250411090377

>  <r_i_glide_erotb>  (1) 
0.44011442581216542

>  <r_i_glide_esite>  (1) 
-0.00092672158251678061

>  <r_i_glide_evdw>  (1) 
-26.341350204742042

>  <r_i_glide_gscore>  (1) 
-2.0047034293601524

>  <r_i_glide_gscore_strain>  (1) 
0

>  <r_i_glide_hbond>  (1) 
0

>  <r_i_glide_ligand_efficiency>  (1) 
-0.050932818428339334

>  <r_i_glide_ligand_efficiency_ln>  (1) 
-0.40003793767193002

>  <r_i_glide_ligand_efficiency_sa>  (1) 
-0.16817646103153608

>  <r_i_glide_lipo>  (1) 
-0.84329291925871341

>  <r_i_glide_metal>  (1) 
-0

>  <r_i_glide_rewards>  (1) 
-0.040845673141735615

>  <r_lp_Energy>  (1) 
41.055799999999998

>  <r_lp_tautomer_probability>  (1) 
0.99999999996150013

>  <s_epik_Chemistry_Notes>  (1) 
This compound has a N-S or N-O group and may undergo hydrolysis at high or low pH.

>  <s_epik_cmdline>  (1) 
J2VwaWtfcHl0aG9uJywgJy1waHQnLCAnMS4wJywgJy1waCcsICc3LjQnLCAnLXRuJywgJzgnLCAnLW1hJywgJzUwMCcsICctaW1hZScsICc8aW5maWxlLm1hZT4nLCAnLW9tYWUnLCAnPG91dGZpbGUubWFlPic=

>  <s_epik_input>  (1) 
W0NIMl0xW0NIMl1DMTJbQ0BASF0zTihDKD1PKVtOSF1DMj1PKVtDSDJdW0NAQF0oW0NIM10pKFtDSDJdW0NIMl0zKU4oW09IXSlbQ0gyXVtDSDJdTihbQ0gzXSlbQ0gyXVtDQF0oTzQpKFtPSF0pW0NAQF0oW09IXSkoW0NIM10pW0NAQEhdKFtDQF00NUNsKVtDSDJdW0NIMl1bQ0gyXVtDQEhdNVtDSDNd

>  <s_glide_docking_method>  (1) 
confgen

>  <s_i_glide_gridfile>  (1) 
gpcr_drd2_6luq_protein_autoprepared_prepared

>  <s_lp_Force_Field>  (1) 
S-OPLS

>  <s_lp_Variant>  (1) 
DiffSBDD_43-2

>  <s_m_source_file>  (1) 
generated_generic_title2_ligand_DiffSBDD_2026-06-23_prepared.sdf

>  <GenAI_Model>  (1) 
DiffSBDD

>  <Protein>  (1) 
generic_title2

$$$$
DiffSBDD_26
     RDKit          3D

  0  0  0  0  0  0  0  0  0  0999 V3000
M  V30 BEGIN CTAB
M  V30 COUNTS 76 80 0 0 1
M  V30 BEGIN ATOM
M  V30 1 C 11.534298 7.047573 -12.148052 0
M  V30 2 C 6.429202 -6.662982 -17.814506 0
M  V30 3 O 6.544910 6.591393 -13.826892 0
M  V30 4 C 12.165997 7.754752 -10.915275 0
M  V30 5 N 6.670344 -0.519258 -17.597169 0
M  V30 6 C 12.384394 7.190211 -13.431120 0
M  V30 7 F 6.975413 -7.864167 -17.571574 0
M  V30 8 C 7.477832 -3.359924 -18.845228 0
M  V30 9 C 8.743289 0.224508 -16.669810 0 CFG=1
M  V30 10 C 7.072080 1.943811 -16.987407 0
M  V30 11 C 7.219255 -5.662182 -18.214004 0
M  V30 12 C 4.471346 -1.814237 -19.095978 0
M  V30 13 C 6.058095 0.803977 -17.351451 0
M  V30 14 C 8.503181 5.877985 -12.752670 0 CFG=1
M  V30 15 C 8.308670 3.401696 -12.588607 0
M  V30 16 C 9.234156 6.302328 -10.465729 0
M  V30 17 O 7.078042 5.796158 -12.728883 0
M  V30 18 C 8.157743 8.258977 -11.809998 0
M  V30 19 C 6.810519 1.037576 -13.888169 0
M  V30 20 C 5.611070 -1.032491 -19.762325 0
M  V30 21 C 8.075257 1.678044 -14.518590 0 CFG=2
M  V30 22 C 8.156567 3.176466 -14.108617 0
M  V30 23 C 9.053910 7.007917 -11.836934 0 CFG=2
M  V30 24 C 4.382189 -5.295351 -17.899801 0
M  V30 25 C 7.889248 -2.134935 -19.088104 0
M  V30 26 C 8.258808 1.530695 -16.076623 0 CFG=1
M  V30 27 O 10.239304 7.590139 -12.384958 0
M  V30 28 C 6.963043 -0.910827 -18.984652 0 CFG=2
M  V30 29 C 5.260755 -4.157656 -18.355953 0
M  V30 30 C 8.977537 -1.209742 -16.294667 0
M  V30 31 C 7.570012 -0.738862 -16.477007 0 CFG=2
M  V30 32 C 6.696412 -4.357617 -18.488258 0
M  V30 33 O 3.162791 -5.209714 -17.765532 0
M  V30 34 C 8.912506 4.832157 -10.735127 0
M  V30 35 C 4.630555 -3.031995 -18.632085 0
M  V30 36 O 5.079617 -6.464495 -17.651769 0
M  V30 37 N 8.986598 4.631538 -12.171803 0
M  V30 38 H 11.428703 5.984163 -11.985156 0
M  V30 39 H 6.384362 7.411460 -13.385016 0
M  V30 40 H 12.523306 7.062426 -10.155557 0
M  V30 41 H 13.007461 8.390362 -11.190163 0
M  V30 42 H 11.438251 8.399465 -10.420063 0
M  V30 43 H 13.375388 6.790021 -13.281430 0
M  V30 44 H 11.926784 6.646418 -14.258178 0
M  V30 45 H 12.575417 8.205251 -13.770323 0
M  V30 46 H 9.125546 0.395864 -17.675230 0
M  V30 47 H 6.575408 2.801595 -16.551402 0
M  V30 48 H 7.489175 2.303191 -17.929722 0
M  V30 49 H 8.278545 -5.842360 -18.328899 0
M  V30 50 H 3.499716 -1.345493 -19.104587 0
M  V30 51 H 5.373946 0.670342 -16.516083 0
M  V30 52 H 5.427335 1.118837 -18.179777 0
M  V30 53 H 8.857132 5.975502 -13.780309 0
M  V30 54 H 8.867163 2.564667 -12.166014 0
M  V30 55 H 7.317640 3.359469 -12.134634 0
M  V30 56 H 8.575437 6.690921 -9.699984 0
M  V30 57 H 10.222867 6.390206 -10.033704 0
M  V30 58 H 7.120463 8.023451 -11.585026 0
M  V30 59 H 8.508606 8.975637 -11.066611 0
M  V30 60 H 8.159204 8.760526 -12.778046 0
M  V30 61 H 5.919617 1.196261 -14.491187 0
M  V30 62 H 6.927765 -0.028894 -13.702112 0
M  V30 63 H 6.586050 1.446103 -12.906057 0
M  V30 64 H 5.222091 -0.038080 -19.975458 0
M  V30 65 H 5.790555 -1.464242 -20.747631 0
M  V30 66 H 8.932368 1.190198 -14.052031 0
M  V30 67 H 7.264431 3.698642 -14.455243 0
M  V30 68 H 8.975400 3.676227 -14.619427 0
M  V30 69 H 8.930744 -1.928564 -19.278956 0
M  V30 70 H 9.055716 2.229457 -16.330852 0
M  V30 71 H 7.527910 -0.097719 -19.440720 0
M  V30 72 H 9.307463 -1.405613 -15.278344 0
M  V30 73 H 9.429267 -1.862834 -17.033442 0
M  V30 74 H 7.067052 -0.809787 -15.526671 0
M  V30 75 H 7.900716 4.630161 -10.379460 0
M  V30 76 H 9.587336 4.161782 -10.203465 0
M  V30 END ATOM
M  V30 BEGIN BOND
M  V30 1 1 4 1
M  V30 2 1 6 1
M  V30 3 1 7 2
M  V30 4 2 11 2
M  V30 5 1 13 5
M  V30 6 1 13 10
M  V30 7 1 17 3
M  V30 8 1 17 14
M  V30 9 1 20 12
M  V30 10 1 21 19
M  V30 11 1 22 15
M  V30 12 1 22 21
M  V30 13 1 23 14
M  V30 14 1 23 16
M  V30 15 1 23 18
M  V30 16 2 25 8
M  V30 17 1 26 9
M  V30 18 1 26 10
M  V30 19 1 26 21
M  V30 20 1 27 1
M  V30 21 1 23 27 CFG=3
M  V30 22 1 28 5
M  V30 23 1 28 20
M  V30 24 1 28 25
M  V30 25 1 29 24
M  V30 26 1 30 9
M  V30 27 1 31 5
M  V30 28 1 31 9
M  V30 29 1 31 30
M  V30 30 2 32 8
M  V30 31 1 32 11
M  V30 32 1 32 29
M  V30 33 2 33 24
M  V30 34 1 34 16
M  V30 35 2 35 12
M  V30 36 2 35 29
M  V30 37 1 36 2
M  V30 38 1 36 24
M  V30 39 1 37 14
M  V30 40 1 37 15
M  V30 41 1 37 34
M  V30 42 1 38 1
M  V30 43 1 39 3
M  V30 44 1 40 4
M  V30 45 1 41 4
M  V30 46 1 42 4
M  V30 47 1 43 6
M  V30 48 1 44 6
M  V30 49 1 45 6
M  V30 50 1 9 46 CFG=3
M  V30 51 1 47 10
M  V30 52 1 48 10
M  V30 53 1 49 11
M  V30 54 1 50 12
M  V30 55 1 51 13
M  V30 56 1 52 13
M  V30 57 1 14 53 CFG=3
M  V30 58 1 54 15
M  V30 59 1 55 15
M  V30 60 1 56 16
M  V30 61 1 57 16
M  V30 62 1 58 18
M  V30 63 1 59 18
M  V30 64 1 60 18
M  V30 65 1 61 19
M  V30 66 1 62 19
M  V30 67 1 63 19
M  V30 68 1 64 20
M  V30 69 1 65 20
M  V30 70 1 21 66 CFG=1
M  V30 71 1 67 22
M  V30 72 1 68 22
M  V30 73 1 69 25
M  V30 74 1 26 70 CFG=3
M  V30 75 1 28 71 CFG=3
M  V30 76 1 72 30
M  V30 77 1 73 30
M  V30 78 1 31 74 CFG=1
M  V30 79 1 75 34
M  V30 80 1 76 34
M  V30 END BOND
M  V30 END CTAB
M  END
>  <i_epik_Tot_Q>  (1) 
0

>  <i_epik_Tot_abs_Q>  (1) 
0

>  <i_i_glide_confnum>  (1) 
10

>  <i_i_glide_lignum>  (1) 
76

>  <i_i_glide_posenum>  (1) 
236

>  <i_i_glide_rotatable_bonds>  (1) 
9

>  <i_lp_mmshare_version>  (1) 
72125

>  <i_m_source_file_index>  (1) 
27

>  <i_f3d_flags>  (1) 
0

>  <num_sample>  (1) 
50

>  <b_lp_Chiralities_Consistent>  (1) 
1

>  <r_epik_Charging_Adjusted_Penalty>  (1) 
0

>  <r_epik_Ionization_Penalty>  (1) 
0.071693018493777738

>  <r_epik_Ionization_Penalty_Charging>  (1) 
0

>  <r_epik_Ionization_Penalty_Neutral>  (1) 
0.071693018493777738

>  <r_epik_State_Penalty>  (1) 
-0

>  <r_glide_ring_energy>  (1) 
1.2337109712795384

>  <r_i_docking_score>  (1) 
-1.808119974831413

>  <r_i_glide_ecoul>  (1) 
0.29975384579480779

>  <r_i_glide_eff_state_penalty>  (1) 
-0

>  <r_i_glide_einternal>  (1) 
14.63219992622046

>  <r_i_glide_emodel>  (1) 
-18.749505223928413

>  <r_i_glide_emodel_strain>  (1) 
6.0159382131753318

>  <r_i_glide_energy>  (1) 
-29.11075521857552

>  <r_i_glide_erotb>  (1) 
0.54216957858083481

>  <r_i_glide_esite>  (1) 
-0.017296863650520473

>  <r_i_glide_evdw>  (1) 
-29.410509064370327

>  <r_i_glide_gscore>  (1) 
-1.808119974831413

>  <r_i_glide_gscore_strain>  (1) 
0.50398455329383296

>  <r_i_glide_hbond>  (1) 
0

>  <r_i_glide_ligand_efficiency>  (1) 
-0.048868107427876027

>  <r_i_glide_ligand_efficiency_ln>  (1) 
-0.39213883419462353

>  <r_i_glide_ligand_efficiency_sa>  (1) 
-0.16283937541975044

>  <r_i_glide_lipo>  (1) 
-1.3155160672653972

>  <r_i_glide_metal>  (1) 
-0

>  <r_i_glide_rewards>  (1) 
-0.09589879944086746

>  <r_lp_Energy>  (1) 
45.427697999999999

>  <r_lp_tautomer_probability>  (1) 
1

>  <s_epik_Chemistry_Notes>  (1) 
This compound contains an acetal/aminal-like group ( X-CH(R)-Y where X, Y are N, S, or O) that may be acid/base labile, releasing an aldehyde.

>  <s_epik_cmdline>  (1) 
J2VwaWtfcHl0aG9uJywgJy1waHQnLCAnMS4wJywgJy1waCcsICc3LjQnLCAnLXRuJywgJzgnLCAnLW1hJywgJzUwMCcsICctaW1hZScsICc8aW5maWxlLm1hZT4nLCAnLW9tYWUnLCAnPG91dGZpbGUubWFlPic=

>  <s_epik_input>  (1) 
W0NIM11bQ0hdKFtDSDNdKU9bQ0BAXTEoW0NIM10pW0NASF0oT1tPSF0pTihbQ0gyXVtDSDJdMSlbQ0gyXVtDSDJdW0NAQEhdKFtDSDNdKVtDQEBIXTJbQ0gyXVtDSDJdTihbQ0BIXShbQ0BASF0yMylbQ0gyXTMpW0NASF0oW0NIMl1bQ0hdPUM0KVtDSF09Qz1jKGM9NDUpW2NIXWMoRilvYzU9Tw==

>  <s_glide_docking_method>  (1) 
confgen

>  <s_i_glide_gridfile>  (1) 
gpcr_drd2_6luq_protein_autoprepared_prepared

>  <s_lp_Force_Field>  (1) 
S-OPLS

>  <s_lp_Variant>  (1) 
DiffSBDD_26-1

>  <s_m_source_file>  (1) 
generated_generic_title2_ligand_DiffSBDD_2026-06-23_prepared.sdf

>  <GenAI_Model>  (1) 
DiffSBDD

>  <Protein>  (1) 
generic_title2

$$$$
DiffSBDD_8
     RDKit          3D

  0  0  0  0  0  0  0  0  0  0999 V3000
M  V30 BEGIN CTAB
M  V30 COUNTS 69 72 0 0 1
M  V30 BEGIN ATOM
M  V30 1 N 10.789109 6.790243 -11.185079 0
M  V30 2 C 9.621047 8.305831 -7.893799 0
M  V30 3 C 7.855555 7.245746 -11.743139 0 CFG=1
M  V30 4 N 11.230488 6.916640 -6.934067 0
M  V30 5 O 8.036544 4.148955 -11.549826 0
M  V30 6 C 5.375453 6.686657 -14.608385 0
M  V30 7 F 9.400499 5.589945 -7.275358 0
M  V30 8 C 6.584394 7.055749 -15.428913 0
M  V30 9 N 5.615358 6.168766 -13.251636 0 CHG=1
M  V30 10 C 6.790977 5.324898 -13.072471 0 CFG=1
M  V30 11 C 10.448677 6.137878 -7.889510 0 CFG=1
M  V30 12 C 7.890389 3.387085 -17.761588 0
M  V30 13 C 8.015109 6.186819 -12.778413 0 CFG=2
M  V30 14 O 6.001730 4.968060 -10.800054 0
M  V30 15 O 11.508882 5.990603 -5.834921 0
M  V30 16 C 6.123540 7.498513 -16.811113 0
M  V30 17 C 10.103703 4.715503 -12.565348 0
M  V30 18 C 11.701113 7.088549 -12.295639 0
M  V30 19 C 10.075509 5.513619 -11.254699 0 CFG=2
M  V30 20 C 9.886527 7.154513 -8.871764 0 CFG=2
M  V30 21 C 10.808767 7.569895 -10.065959 0
M  V30 22 C 8.381028 8.649236 -11.886953 0
M  V30 23 C 6.709137 4.374365 -11.868337 0 CFG=2
M  V30 24 C 8.834691 5.214038 -12.048275 0 CFG=2
M  V30 25 O 7.376495 2.880049 -16.541364 0
M  V30 26 O 11.513234 8.576857 -9.981684 0
M  V30 27 C 6.844247 4.262634 -18.469455 0
M  V30 28 C 11.549727 6.631318 -4.556597 0
M  V30 29 C 10.239393 7.923552 -6.552556 0
M  V30 30 O 6.934567 5.530859 -17.861134 0
M  V30 31 C 5.897020 6.367842 -17.798781 0
M  V30 32 N 6.975526 8.338707 -11.984981 0
M  V30 33 O 4.861526 6.272253 -18.455717 0
M  V30 34 H 10.104037 9.190186 -8.234998 0
M  V30 35 H 8.575331 8.546881 -7.785006 0
M  V30 36 H 7.765946 6.790247 -10.785024 0
M  V30 37 H 4.860472 7.637122 -14.487106 0
M  V30 38 H 4.741486 5.991404 -15.164092 0
M  V30 39 H 7.287415 6.230338 -15.524813 0
M  V30 40 H 7.125680 7.870776 -14.943412 0
M  V30 41 H 5.772750 6.963960 -12.637246 0
M  V30 42 H 6.960781 4.688681 -13.943383 0
M  V30 43 H 10.978620 5.319882 -8.355308 0
M  V30 44 H 8.790366 3.972663 -17.560392 0
M  V30 45 H 8.168781 2.547315 -18.399235 0
M  V30 46 H 8.531015 6.570654 -13.652946 0
M  V30 47 H 6.107946 4.432053 -10.026729 0
M  V30 48 H 6.975394 7.990315 -17.183783 0
M  V30 49 H 5.301825 8.213841 -16.785538 0
M  V30 50 H 10.178003 3.633127 -12.534730 0
M  V30 51 H 10.369757 5.190224 -13.512034 0
M  V30 52 H 12.575306 7.662700 -11.987881 0
M  V30 53 H 12.162709 6.200703 -12.702177 0
M  V30 54 H 11.179673 7.589414 -13.104749 0
M  V30 55 H 10.137430 4.904891 -10.355350 0
M  V30 56 H 8.948030 6.758743 -9.221635 0
M  V30 57 H 8.687693 9.194828 -10.999715 0
M  V30 58 H 8.923335 8.904024 -12.783937 0
M  V30 59 H 6.219618 3.426072 -12.100877 0
M  V30 60 H 6.679337 2.269215 -16.731196 0
M  V30 61 H 7.079026 4.361967 -19.531066 0
M  V30 62 H 5.843039 3.833495 -18.389581 0
M  V30 63 H 12.052177 5.983080 -3.840199 0
M  V30 64 H 12.071220 7.588698 -4.556409 0
M  V30 65 H 10.545726 6.767222 -4.163704 0
M  V30 66 H 10.693031 8.780483 -6.054433 0
M  V30 67 H 9.456973 7.509455 -5.913161 0
M  V30 68 H 6.476150 8.563259 -11.121471 0
M  V30 69 H 4.801365 5.675651 -12.920074 0
M  V30 END ATOM
M  V30 BEGIN BOND
M  V30 1 1 8 6
M  V30 2 1 9 6
M  V30 3 1 10 9
M  V30 4 1 11 4
M  V30 5 1 11 7
M  V30 6 1 13 3
M  V30 7 1 13 10
M  V30 8 1 15 4
M  V30 9 1 16 8
M  V30 10 1 18 1
M  V30 11 1 19 1
M  V30 12 1 19 17
M  V30 13 1 20 2
M  V30 14 1 20 11
M  V30 15 1 21 1
M  V30 16 1 21 20
M  V30 17 1 22 3
M  V30 18 1 23 5
M  V30 19 1 23 10
M  V30 20 1 23 14
M  V30 21 1 24 5 CFG=1
M  V30 22 1 24 13
M  V30 23 1 24 17
M  V30 24 1 24 19
M  V30 25 1 25 12
M  V30 26 2 26 21
M  V30 27 1 27 12
M  V30 28 1 28 15
M  V30 29 1 29 2
M  V30 30 1 29 4
M  V30 31 1 30 27
M  V30 32 1 31 16
M  V30 33 1 31 30
M  V30 34 1 32 3
M  V30 35 1 32 22
M  V30 36 2 33 31
M  V30 37 1 34 2
M  V30 38 1 35 2
M  V30 39 1 3 36 CFG=1
M  V30 40 1 37 6
M  V30 41 1 38 6
M  V30 42 1 39 8
M  V30 43 1 40 8
M  V30 44 1 41 9
M  V30 45 1 10 42 CFG=3
M  V30 46 1 11 43 CFG=3
M  V30 47 1 44 12
M  V30 48 1 45 12
M  V30 49 1 13 46 CFG=3
M  V30 50 1 47 14
M  V30 51 1 48 16
M  V30 52 1 49 16
M  V30 53 1 50 17
M  V30 54 1 51 17
M  V30 55 1 52 18
M  V30 56 1 53 18
M  V30 57 1 54 18
M  V30 58 1 19 55 CFG=1
M  V30 59 1 20 56 CFG=3
M  V30 60 1 57 22
M  V30 61 1 58 22
M  V30 62 1 23 59 CFG=3
M  V30 63 1 60 25
M  V30 64 1 61 27
M  V30 65 1 62 27
M  V30 66 1 63 28
M  V30 67 1 64 28
M  V30 68 1 65 28
M  V30 69 1 66 29
M  V30 70 1 67 29
M  V30 71 1 68 32
M  V30 72 1 69 9
M  V30 END BOND
M  V30 END CTAB
M  END
>  <i_epik_Tot_Q>  (1) 
1

>  <i_epik_Tot_abs_Q>  (1) 
1

>  <i_i_glide_confnum>  (1) 
4016

>  <i_i_glide_lignum>  (1) 
35

>  <i_i_glide_posenum>  (1) 
277

>  <i_i_glide_rotatable_bonds>  (1) 
15

>  <i_lp_mmshare_version>  (1) 
72125

>  <i_m_source_file_index>  (1) 
9

>  <i_f3d_flags>  (1) 
0

>  <num_sample>  (1) 
50

>  <b_lp_Chiralities_Consistent>  (1) 
1

>  <r_epik_Charging_Adjusted_Penalty>  (1) 
0.31458683345696248

>  <r_epik_Ionization_Penalty>  (1) 
0.14300301403106822

>  <r_epik_Ionization_Penalty_Charging>  (1) 
0.065080964065447874

>  <r_epik_Ionization_Penalty_Neutral>  (1) 
0.077922049965620341

>  <r_epik_State_Penalty>  (1) 
0.24950586939151459

>  <r_glide_ring_energy>  (1) 
1.8996230600700921

>  <r_i_docking_score>  (1) 
-1.7698591912175783

>  <r_i_glide_ecoul>  (1) 
-4.9402415047245718

>  <r_i_glide_eff_state_penalty>  (1) 
0.24950586939151459

>  <r_i_glide_einternal>  (1) 
22.223037874551547

>  <r_i_glide_emodel>  (1) 
4.7464703325891175

>  <r_i_glide_emodel_strain>  (1) 
8.6180751867339183

>  <r_i_glide_energy>  (1) 
-9.5719087935254183

>  <r_i_glide_erotb>  (1) 
1.0741905119875848

>  <r_i_glide_esite>  (1) 
-0.045718422817034594

>  <r_i_glide_evdw>  (1) 
-4.6316672888008465

>  <r_i_glide_gscore>  (1) 
-2.0193650606090929

>  <r_i_glide_gscore_strain>  (1) 
1.1545187966834796

>  <r_i_glide_hbond>  (1) 
-0.15482420410383621

>  <r_i_glide_ligand_efficiency>  (1) 
-0.053632096703562976

>  <r_i_glide_ligand_efficiency_ln>  (1) 
-0.3936075202863355

>  <r_i_glide_ligand_efficiency_sa>  (1) 
-0.17202679136633425

>  <r_i_glide_lipo>  (1) 
-1.2908030674398276

>  <r_i_glide_metal>  (1) 
-0

>  <r_i_glide_rewards>  (1) 
-1.7841090847707315

>  <r_lp_Energy>  (1) 
35.996015

>  <s_epik_Chemistry_Notes>  (1) 
This compound has an ester and may undergo hydrolysis at high or low pH. This compound contains an acetal/aminal-like group ( X-CH(R)-Y where X, Y are N, S, or O) that may be acid/base labile, releasing an aldehyde. This compound has a N-S or N-O group and may undergo hydrolysis at high or low pH.

>  <s_epik_cmdline>  (1) 
J2VwaWtfcHl0aG9uJywgJy1waHQnLCAnMS4wJywgJy1waCcsICc3LjQnLCAnLXRuJywgJzgnLCAnLW1hJywgJzUwMCcsICctaW1hZScsICc8aW5maWxlLm1hZT4nLCAnLW9tYWUnLCAnPG91dGZpbGUubWFlPic=

>  <s_epik_input>  (1) 
W0NIM11PTjFbQ0BIXShGKVtDQEBIXShbQ0gyXVtDSDJdMSlDKD1PKU4oW0NIM10pW0NASF0yW0NIMl1DMjNPW0NAQEhdKFtPSF0pW0NASF0oW0NASF0zW0NASF00W0NIMl1bTkhdNClbTkhdW0NIMl1bQ0gyXVtDSDJdQyg9TylPW0NIMl1bQ0gyXVtPSF0=

>  <s_glide_docking_method>  (1) 
confgen

>  <s_i_glide_gridfile>  (1) 
gpcr_drd2_6luq_protein_autoprepared_prepared

>  <s_lp_Force_Field>  (1) 
S-OPLS

>  <s_lp_Variant>  (1) 
DiffSBDD_8-4

>  <s_m_source_file>  (1) 
generated_generic_title2_ligand_DiffSBDD_2026-06-23_prepared.sdf

>  <GenAI_Model>  (1) 
DiffSBDD

>  <Protein>  (1) 
generic_title2

$$$$
DiffSBDD_20
     RDKit          3D

  0  0  0  0  0  0  0  0  0  0999 V3000
M  V30 BEGIN CTAB
M  V30 COUNTS 71 73 0 0 1
M  V30 BEGIN ATOM
M  V30 1 C 6.176452 1.532142 -22.009105 0
M  V30 2 C 6.961823 8.336534 -22.692095 0
M  V30 3 C 5.005142 5.737361 -20.459277 0 CFG=2
M  V30 4 C 6.150100 2.726385 -22.608195 0
M  V30 5 C 5.612659 1.215923 -20.683031 0 CFG=1
M  V30 6 C 11.111401 5.201135 -16.867525 0
M  V30 7 C 11.798821 5.525591 -20.033498 0 CFG=1
M  V30 8 F 5.950870 -0.027985 -20.345230 0
M  V30 9 C 9.474544 5.858713 -21.186441 0
M  V30 10 O 12.678727 3.664347 -17.662169 0
M  V30 11 C 6.005289 6.598280 -19.642522 0
M  V30 12 C 10.398355 6.210622 -19.988900 0 CFG=2
M  V30 13 C 15.067871 5.285893 -16.839840 0
M  V30 14 C 5.629796 3.985923 -22.052890 0
M  V30 15 C 5.496085 4.321068 -20.735335 0
M  V30 16 C 5.848538 3.461058 -19.584907 0
M  V30 17 C 12.761984 5.794882 -18.821580 0 CFG=2
M  V30 18 C 4.414654 7.812164 -22.155754 0
M  V30 19 N 7.446782 6.316304 -19.851702 0 CHG=1
M  V30 20 C 5.621632 8.780093 -22.081213 0
M  V30 21 C 13.393559 6.710065 -15.586026 0
M  V30 22 C 8.062909 6.504658 -21.187560 0 CFG=1
M  V30 23 O 10.575433 7.607960 -19.985000 0
M  V30 24 C 12.534181 5.057720 -17.444339 0 CFG=1
M  V30 25 S 5.201049 5.254607 -23.171684 0
M  V30 26 C 5.931565 2.125439 -19.564945 0
M  V30 27 C 13.609211 5.386803 -16.350511 0
M  V30 28 C 8.058249 7.974447 -21.667768 0
M  V30 29 C 4.523049 6.294137 -21.842860 0 CFG=1
M  V30 30 O 12.866240 7.190438 -18.621755 0
M  V30 31 N 11.711824 4.083173 -20.316441 0
M  V30 32 H 6.590017 0.693578 -22.550663 0
M  V30 33 H 7.343207 9.190812 -23.254485 0
M  V30 34 H 6.831913 7.560068 -23.444443 0
M  V30 35 H 4.122015 5.625067 -19.831971 0
M  V30 36 H 6.542338 2.768321 -23.614167 0
M  V30 37 H 4.529268 1.189887 -20.783903 0
M  V30 38 H 10.800844 6.245050 -16.824151 0
M  V30 39 H 11.051759 4.801414 -15.854343 0
M  V30 40 H 10.377126 4.646677 -17.450138 0
M  V30 41 H 12.290068 5.972650 -20.899582 0
M  V30 42 H 9.984721 6.083474 -22.124402 0
M  V30 43 H 9.324920 4.778886 -21.200055 0
M  V30 44 H 12.610273 3.223998 -16.826962 0
M  V30 45 H 5.787698 7.657401 -19.689768 0
M  V30 46 H 5.837747 6.362692 -18.590962 0
M  V30 47 H 9.893979 5.947578 -19.066764 0
M  V30 48 H 15.321894 6.086286 -17.534486 0
M  V30 49 H 15.258919 4.335332 -17.338249 0
M  V30 50 H 15.761631 5.355714 -16.001267 0
M  V30 51 H 6.047549 3.963288 -18.649878 0
M  V30 52 H 13.746689 5.490520 -19.178235 0
M  V30 53 H 3.640440 8.230513 -21.511768 0
M  V30 54 H 4.003075 7.891673 -23.163124 0
M  V30 55 H 7.972752 6.888580 -19.205650 0
M  V30 56 H 5.766734 9.180328 -21.080526 0
M  V30 57 H 5.308601 9.665782 -22.636211 0
M  V30 58 H 13.523709 7.594032 -16.207049 0
M  V30 59 H 14.116702 6.786104 -14.776618 0
M  V30 60 H 12.408240 6.765262 -15.124058 0
M  V30 61 H 7.506961 5.925362 -21.913609 0
M  V30 62 H 11.367892 7.782663 -19.479295 0
M  V30 63 H 6.198973 1.641615 -18.636133 0
M  V30 64 H 13.511823 4.616663 -15.585180 0
M  V30 65 H 9.007129 8.168646 -22.169943 0
M  V30 66 H 8.049465 8.665568 -20.826221 0
M  V30 67 H 3.481683 5.973386 -21.888345 0
M  V30 68 H 13.547325 7.349261 -17.984390 0
M  V30 69 H 11.911427 3.559569 -19.457465 0
M  V30 70 H 10.785861 3.816157 -20.642679 0
M  V30 71 H 7.589564 5.348348 -19.602413 0
M  V30 END ATOM
M  V30 BEGIN BOND
M  V30 1 2 4 1
M  V30 2 1 5 1
M  V30 3 1 8 5
M  V30 4 1 11 3
M  V30 5 1 12 7
M  V30 6 1 12 9
M  V30 7 1 14 4
M  V30 8 1 15 3
M  V30 9 2 15 14
M  V30 10 1 16 15
M  V30 11 1 17 7
M  V30 12 1 19 11
M  V30 13 1 20 2
M  V30 14 1 20 18
M  V30 15 1 22 9
M  V30 16 1 22 19
M  V30 17 1 23 12
M  V30 18 1 24 6
M  V30 19 1 24 10 CFG=3
M  V30 20 1 24 17
M  V30 21 1 25 14
M  V30 22 1 26 5
M  V30 23 2 26 16
M  V30 24 1 27 13
M  V30 25 1 27 21
M  V30 26 1 27 24
M  V30 27 1 28 2
M  V30 28 1 28 22
M  V30 29 1 29 3
M  V30 30 1 29 18
M  V30 31 1 29 25
M  V30 32 1 30 17
M  V30 33 1 31 7
M  V30 34 1 32 1
M  V30 35 1 33 2
M  V30 36 1 34 2
M  V30 37 1 3 35 CFG=1
M  V30 38 1 36 4
M  V30 39 1 5 37 CFG=3
M  V30 40 1 38 6
M  V30 41 1 39 6
M  V30 42 1 40 6
M  V30 43 1 7 41 CFG=3
M  V30 44 1 42 9
M  V30 45 1 43 9
M  V30 46 1 44 10
M  V30 47 1 45 11
M  V30 48 1 46 11
M  V30 49 1 12 47 CFG=1
M  V30 50 1 48 13
M  V30 51 1 49 13
M  V30 52 1 50 13
M  V30 53 1 51 16
M  V30 54 1 17 52 CFG=3
M  V30 55 1 53 18
M  V30 56 1 54 18
M  V30 57 1 55 19
M  V30 58 1 56 20
M  V30 59 1 57 20
M  V30 60 1 58 21
M  V30 61 1 59 21
M  V30 62 1 60 21
M  V30 63 1 22 61 CFG=3
M  V30 64 1 62 23
M  V30 65 1 63 26
M  V30 66 1 64 27
M  V30 67 1 65 28
M  V30 68 1 66 28
M  V30 69 1 29 67 CFG=1
M  V30 70 1 68 30
M  V30 71 1 69 31
M  V30 72 1 70 31
M  V30 73 1 71 19
M  V30 END BOND
M  V30 END CTAB
M  END
>  <i_epik_Tot_Q>  (1) 
1

>  <i_epik_Tot_abs_Q>  (1) 
1

>  <i_i_glide_confnum>  (1) 
45

>  <i_i_glide_lignum>  (1) 
67

>  <i_i_glide_posenum>  (1) 
274

>  <i_i_glide_rotatable_bonds>  (1) 
9

>  <i_lp_mmshare_version>  (1) 
72125

>  <i_m_source_file_index>  (1) 
21

>  <i_f3d_flags>  (1) 
0

>  <num_sample>  (1) 
50

>  <b_lp_Chiralities_Consistent>  (1) 
1

>  <r_epik_Charging_Adjusted_Penalty>  (1) 
1.0900107648315034

>  <r_epik_Ionization_Penalty>  (1) 
1.0648013143729294

>  <r_epik_Ionization_Penalty_Charging>  (1) 
0.018420486395911647

>  <r_epik_Ionization_Penalty_Neutral>  (1) 
1.0463808279770177

>  <r_epik_State_Penalty>  (1) 
1.0715902784355917

>  <r_glide_ring_energy>  (1) 
0

>  <r_i_docking_score>  (1) 
-1.7634793062040448

>  <r_i_glide_ecoul>  (1) 
-1.063791658749528

>  <r_i_glide_eff_state_penalty>  (1) 
1.0715902784355917

>  <r_i_glide_einternal>  (1) 
4.7828355017194468

>  <r_i_glide_emodel>  (1) 
-28.018955908826385

>  <r_i_glide_emodel_strain>  (1) 
0.67165647057953493

>  <r_i_glide_energy>  (1) 
-26.101811904952093

>  <r_i_glide_erotb>  (1) 
0.38705737007943358

>  <r_i_glide_esite>  (1) 
-0.008181081219043174

>  <r_i_glide_evdw>  (1) 
-25.038020246202567

>  <r_i_glide_gscore>  (1) 
-2.8350695846396365

>  <r_i_glide_gscore_strain>  (1) 
0

>  <r_i_glide_hbond>  (1) 
0

>  <r_i_glide_ligand_efficiency>  (1) 
-0.056886429232388541

>  <r_i_glide_ligand_efficiency_ln>  (1) 
-0.39771862769929028

>  <r_i_glide_ligand_efficiency_sa>  (1) 
-0.17870192817425756

>  <r_i_glide_lipo>  (1) 
-1.5001606578320137

>  <r_i_glide_metal>  (1) 
-0

>  <r_i_glide_rewards>  (1) 
-0.30231545454545544

>  <r_lp_Energy>  (1) 
51.224616999999995

>  <s_epik_cmdline>  (1) 
J2VwaWtfcHl0aG9uJywgJy1waHQnLCAnMS4wJywgJy1waCcsICc3LjQnLCAnLXRuJywgJzgnLCAnLW1hJywgJzUwMCcsICctaW1hZScsICc8aW5maWxlLm1hZT4nLCAnLW9tYWUnLCAnPG91dGZpbGUubWFlPic=

>  <s_epik_input>  (1) 
W0NIXTE9W0NIXVtDQEhdKEYpW0NIXT1bQ0hdQyg9QzFbQ0BASF0yMylTW0NAQEhdM1tDSDJdW0NIMl1bQ0gyXVtDSDJdW0NASF0oW05IXVtDSDJdMilbQ0gyXVtDQEhdKFtPSF0pW0NASF0oW05IMl0pW0NAQEhdKFtPSF0pW0NAQF0oW0NIM10pKFtPSF0pW0NIXShbQ0gzXSlbQ0gzXQ==

>  <s_glide_docking_method>  (1) 
confgen

>  <s_i_glide_gridfile>  (1) 
gpcr_drd2_6luq_protein_autoprepared_prepared

>  <s_lp_Force_Field>  (1) 
S-OPLS

>  <s_lp_Variant>  (1) 
DiffSBDD_20-4

>  <s_m_source_file>  (1) 
generated_generic_title2_ligand_DiffSBDD_2026-06-23_prepared.sdf

>  <GenAI_Model>  (1) 
DiffSBDD

>  <Protein>  (1) 
generic_title2

$$$$
DiffSBDD_28
     RDKit          3D

  0  0  0  0  0  0  0  0  0  0999 V3000
M  V30 BEGIN CTAB
M  V30 COUNTS 79 86 0 0 1
M  V30 BEGIN ATOM
M  V30 1 F 19.953511 12.255640 -22.823284 0
M  V30 2 C 15.492935 0.929635 -20.802147 0 CFG=1
M  V30 3 C 17.831613 3.808041 -20.922992 0 CFG=2
M  V30 4 C 13.801442 2.472417 -19.148505 0 CFG=2
M  V30 5 C 21.997260 6.754086 -20.898758 0 CFG=1
M  V30 6 C 14.431059 0.494080 -21.821013 0
M  V30 7 C 19.842270 5.261336 -20.536378 0 CFG=2
M  V30 8 C 21.335377 10.546298 -20.547414 0 CFG=1
M  V30 9 C 16.984130 4.080704 -22.168193 0
M  V30 10 C 21.179073 8.041438 -20.933098 0 CFG=1
M  V30 11 C 15.251030 0.161720 -18.757735 0 CFG=1
M  V30 12 C 19.951846 2.761074 -20.746290 0
M  V30 13 C 14.782983 1.379458 -19.511919 0 CFG=1
M  V30 14 O 14.175530 -0.666609 -18.369613 0
M  V30 15 C 21.227305 12.416889 -22.311616 0 CFG=1
M  V30 16 C 21.344514 5.391855 -20.766455 0 CFG=1
M  V30 17 O 21.754000 5.898874 -22.031790 0
M  V30 18 N 19.284431 4.019787 -21.151040 0 CFG=1 CHG=1
M  V30 19 O 12.618361 3.726013 -17.433226 0
M  V30 20 C 21.375498 13.686573 -21.585029 0
M  V30 21 O 15.210886 2.626234 -18.941389 0
M  V30 22 C 19.734779 7.812279 -20.415959 0
M  V30 23 C 16.063585 -0.258867 -19.986551 0
M  V30 24 N 16.453400 1.868020 -21.446178 0
M  V30 25 C 12.971085 2.423966 -17.878096 0
M  V30 26 N 21.578042 11.303825 -19.292740 0 CHG=1
M  V30 27 C 19.105668 6.539074 -21.007172 0
M  V30 28 C 22.470136 10.513451 -18.432679 0
M  V30 29 C 22.215539 9.076876 -18.863880 0
M  V30 30 O 21.934190 13.932755 -20.516557 0
M  V30 31 C 18.925856 1.657890 -20.989639 0
M  V30 32 C 21.994263 11.213863 -21.774690 0
M  V30 33 O 22.031970 13.589715 -22.711631 0
M  V30 34 N 21.904031 9.188433 -20.304894 0 CFG=2 CHG=1
M  V30 35 C 15.850976 3.075887 -22.003791 0
M  V30 36 C 11.506788 4.288896 -18.111957 0
M  V30 37 C 17.592459 2.318552 -20.642447 0 CFG=1
M  V30 38 H 17.459806 4.377376 -20.069193 0
M  V30 39 H 13.386911 3.045405 -19.973950 0
M  V30 40 H 23.055818 6.846655 -20.661629 0
M  V30 41 H 13.805233 -0.311615 -21.435726 0
M  V30 42 H 13.758967 1.309740 -22.088659 0
M  V30 43 H 14.889355 0.129074 -22.740788 0
M  V30 44 H 19.701330 5.189598 -19.457483 0
M  V30 45 H 20.257064 10.500140 -20.694072 0
M  V30 46 H 17.538872 3.852665 -23.079614 0
M  V30 47 H 16.629591 5.109696 -22.231370 0
M  V30 48 H 21.095634 8.301526 -21.989936 0
M  V30 49 H 15.868307 0.390266 -17.890678 0
M  V30 50 H 20.202488 2.792104 -19.684847 0
M  V30 51 H 20.873415 2.591832 -21.303843 0
M  V30 52 H 13.605768 -0.754238 -19.117860 0
M  V30 53 H 21.968534 4.586356 -20.385019 0
M  V30 54 H 19.094881 8.656038 -20.671819 0
M  V30 55 H 19.708074 7.728321 -19.330343 0
M  V30 56 H 17.134930 -0.221708 -19.798283 0
M  V30 57 H 15.789278 -1.238976 -20.379497 0
M  V30 58 H 12.085634 1.806782 -18.036757 0
M  V30 59 H 13.552655 1.940954 -17.091840 0
M  V30 60 H 20.696156 11.413400 -18.809095 0
M  V30 61 H 19.109433 6.598333 -22.096900 0
M  V30 62 H 18.057884 6.509690 -20.707997 0
M  V30 63 H 22.276831 10.688459 -17.373562 0
M  V30 64 H 23.503489 10.795891 -18.641367 0
M  V30 65 H 21.359812 8.693753 -18.313186 0
M  V30 66 H 23.065976 8.421933 -18.669679 0
M  V30 67 H 19.129506 0.769010 -20.394047 0
M  V30 68 H 18.938647 1.371334 -22.041767 0
M  V30 69 H 23.020886 11.503407 -21.541458 0
M  V30 70 H 22.069126 10.500359 -22.596130 0
M  V30 71 H 15.347509 2.874363 -22.949830 0
M  V30 72 H 15.114114 3.495416 -21.321765 0
M  V30 73 H 11.287002 5.271980 -17.695288 0
M  V30 74 H 11.702393 4.416778 -19.176472 0
M  V30 75 H 10.616835 3.669925 -17.990935 0
M  V30 76 H 17.411768 2.186525 -19.585018 0
M  V30 77 H 19.408941 4.091796 -22.151277 0
M  V30 78 H 21.960814 12.226714 -19.473627 0
M  V30 79 H 22.808126 9.204822 -20.758368 0
M  V30 END ATOM
M  V30 BEGIN BOND
M  V30 1 1 2 6 CFG=3
M  V30 2 1 9 3
M  V30 3 1 10 5
M  V30 4 1 13 2
M  V30 5 1 13 4
M  V30 6 1 13 11
M  V30 7 1 14 11
M  V30 8 1 15 1 CFG=3
M  V30 9 1 16 5
M  V30 10 1 16 7
M  V30 11 1 17 5
M  V30 12 1 17 16
M  V30 13 1 18 3
M  V30 14 1 18 7
M  V30 15 1 18 12
M  V30 16 1 20 15
M  V30 17 1 21 4
M  V30 18 1 13 21 CFG=1
M  V30 19 1 22 10
M  V30 20 1 23 2
M  V30 21 1 23 11
M  V30 22 1 24 2
M  V30 23 1 25 4
M  V30 24 1 25 19
M  V30 25 1 26 8
M  V30 26 1 27 7
M  V30 27 1 27 22
M  V30 28 1 28 26
M  V30 29 1 29 28
M  V30 30 2 30 20
M  V30 31 1 31 12
M  V30 32 1 32 8
M  V30 33 1 32 15
M  V30 34 1 33 15
M  V30 35 1 33 20
M  V30 36 1 34 8
M  V30 37 1 34 10
M  V30 38 1 34 29
M  V30 39 1 35 9
M  V30 40 1 35 24
M  V30 41 1 36 19
M  V30 42 1 37 3
M  V30 43 1 37 24
M  V30 44 1 37 31
M  V30 45 1 3 38 CFG=1
M  V30 46 1 4 39 CFG=3
M  V30 47 1 5 40 CFG=1
M  V30 48 1 41 6
M  V30 49 1 42 6
M  V30 50 1 43 6
M  V30 51 1 7 44 CFG=1
M  V30 52 1 8 45 CFG=3
M  V30 53 1 46 9
M  V30 54 1 47 9
M  V30 55 1 10 48 CFG=3
M  V30 56 1 11 49 CFG=1
M  V30 57 1 50 12
M  V30 58 1 51 12
M  V30 59 1 52 14
M  V30 60 1 16 53 CFG=1
M  V30 61 1 54 22
M  V30 62 1 55 22
M  V30 63 1 56 23
M  V30 64 1 57 23
M  V30 65 1 58 25
M  V30 66 1 59 25
M  V30 67 1 60 26
M  V30 68 1 61 27
M  V30 69 1 62 27
M  V30 70 1 63 28
M  V30 71 1 64 28
M  V30 72 1 65 29
M  V30 73 1 66 29
M  V30 74 1 67 31
M  V30 75 1 68 31
M  V30 76 1 69 32
M  V30 77 1 70 32
M  V30 78 1 71 35
M  V30 79 1 72 35
M  V30 80 1 73 36
M  V30 81 1 74 36
M  V30 82 1 75 36
M  V30 83 1 37 76 CFG=1
M  V30 84 1 18 77 CFG=3
M  V30 85 1 78 26
M  V30 86 1 34 79 CFG=3
M  V30 END BOND
M  V30 END CTAB
M  END
>  <i_epik_Tot_Q>  (1) 
3

>  <i_epik_Tot_abs_Q>  (1) 
3

>  <i_i_glide_confnum>  (1) 
331

>  <i_i_glide_lignum>  (1) 
80

>  <i_i_glide_posenum>  (1) 
174

>  <i_i_glide_rotatable_bonds>  (1) 
8

>  <i_lp_mmshare_version>  (1) 
72125

>  <i_m_source_file_index>  (1) 
29

>  <i_f3d_flags>  (1) 
0

>  <num_sample>  (1) 
50

>  <b_lp_Chiralities_Consistent>  (1) 
1

>  <r_epik_Charging_Adjusted_Penalty>  (1) 
2.5241965566360229

>  <r_epik_Ionization_Penalty>  (1) 
2.0480993089750741

>  <r_epik_Ionization_Penalty_Charging>  (1) 
2.0477503768466887

>  <r_epik_Ionization_Penalty_Neutral>  (1) 
0.00034893212838530931

>  <r_epik_State_Penalty>  (1) 
0.4764461797893344

>  <r_glide_ring_energy>  (1) 
0.8191457475608499

>  <r_i_docking_score>  (1) 
-1.7562135635101519

>  <r_i_glide_ecoul>  (1) 
-2.2769456784271411

>  <r_i_glide_eff_state_penalty>  (1) 
0.4764461797893344

>  <r_i_glide_einternal>  (1) 
7.218436695890972

>  <r_i_glide_emodel>  (1) 
-23.963029414823268

>  <r_i_glide_emodel_strain>  (1) 
0.11378987498829929

>  <r_i_glide_energy>  (1) 
-24.495944198221409

>  <r_i_glide_erotb>  (1) 
0.44698704239028575

>  <r_i_glide_esite>  (1) 
0

>  <r_i_glide_evdw>  (1) 
-22.218998519794269

>  <r_i_glide_gscore>  (1) 
-2.2326597432994864

>  <r_i_glide_gscore_strain>  (1) 
0

>  <r_i_glide_hbond>  (1) 
0

>  <r_i_glide_ligand_efficiency>  (1) 
-0.047465231446220321

>  <r_i_glide_ligand_efficiency_ln>  (1) 
-0.3808815504379725

>  <r_i_glide_ligand_efficiency_sa>  (1) 
-0.15816468141852802

>  <r_i_glide_lipo>  (1) 
-1.0839165786123144

>  <r_i_glide_metal>  (1) 
-0

>  <r_i_glide_rewards>  (1) 
-0.14323842932367306

>  <r_lp_Energy>  (1) 
68.604765999999998

>  <s_epik_Chemistry_Notes>  (1) 
This compound has an ester and may undergo hydrolysis at high or low pH. This compound contains an acetal/aminal-like group ( X-CH(R)-Y where X, Y are N, S, or O) that may be acid/base labile, releasing an aldehyde.

>  <s_epik_cmdline>  (1) 
J2VwaWtfcHl0aG9uJywgJy1waHQnLCAnMS4wJywgJy1waCcsICc3LjQnLCAnLXRuJywgJzgnLCAnLW1hJywgJzUwMCcsICctaW1hZScsICc8aW5maWxlLm1hZT4nLCAnLW9tYWUnLCAnPG91dGZpbGUubWFlPic=

>  <s_epik_input>  (1) 
Tz1DKE8xKUMxKEYpW0NIMl1bQ0BASF0yW05IXVtDSDJdW0NIMl1OMltDQEBIXTNbQ0gyXVtDSDJdW0NASF0oW0NAQEhdKE80KVtDQEhdMzQpTjVbQ0gyXVtDSDJdW0NAQEhdKFtDQEhdNTYpTihbQ0gyXVtDSDJdNilbQ0BAXShbQ0gzXSkoW0NIMl1bQ0BASF03W09IXSlbQ0BAXTc4W0NASF0oTzgpW0NIMl1PW0NIM10=

>  <s_glide_docking_method>  (1) 
confgen

>  <s_i_glide_gridfile>  (1) 
gpcr_drd2_6luq_protein_autoprepared_prepared

>  <s_lp_Force_Field>  (1) 
S-OPLS

>  <s_lp_Variant>  (1) 
DiffSBDD_28-3

>  <s_m_source_file>  (1) 
generated_generic_title2_ligand_DiffSBDD_2026-06-23_prepared.sdf

>  <GenAI_Model>  (1) 
DiffSBDD

>  <Protein>  (1) 
generic_title2

$$$$
DiffSBDD_8
     RDKit          3D

  0  0  0  0  0  0  0  0  0  0999 V3000
M  V30 BEGIN CTAB
M  V30 COUNTS 69 72 0 0 1
M  V30 BEGIN ATOM
M  V30 1 N 5.726072 5.898703 -13.331903 0
M  V30 2 C 5.088919 6.463717 -16.542318 0
M  V30 3 C 8.564739 5.596890 -12.421596 0 CFG=1
M  V30 4 N 6.833358 5.993081 -18.061323 0
M  V30 5 O 7.092340 4.390266 -10.139676 0
M  V30 6 C 9.977979 8.087871 -10.066088 0
M  V30 7 F 8.430409 5.192572 -16.634273 0
M  V30 8 C 11.316098 8.743722 -9.700046 0
M  V30 9 N 9.986982 6.623365 -9.912970 0
M  V30 10 C 8.610714 6.113210 -9.906370 0 CFG=1
M  V30 11 C 7.115754 5.257162 -16.840181 0 CFG=1
M  V30 12 C 11.671577 9.290952 -4.073833 0
M  V30 13 C 7.880100 6.269607 -11.236402 0 CFG=2
M  V30 14 O 9.375453 3.990231 -10.422156 0
M  V30 15 O 7.098582 5.071860 -19.135986 0
M  V30 16 C 11.954976 8.227411 -8.413918 0
M  V30 17 C 5.278946 5.983036 -10.742145 0
M  V30 18 C 5.464200 7.343410 -13.365265 0
M  V30 19 C 5.569276 5.234399 -12.043194 0 CFG=2
M  V30 20 C 6.342836 6.036996 -15.758673 0 CFG=2
M  V30 21 C 6.131405 5.223514 -14.442610 0
M  V30 22 C 8.888263 6.390189 -13.584992 0
M  V30 23 C 8.408670 4.652872 -9.675064 0 CFG=2
M  V30 24 C 6.664170 5.450777 -11.002888 0 CFG=2
M  V30 25 O 10.975419 10.390209 -4.613451 0
M  V30 26 O 6.365096 4.016203 -14.423488 0
M  V30 27 C 11.229166 8.005713 -4.785042 0
M  V30 28 C 7.547044 5.834318 -20.242591 0
M  V30 29 C 5.388069 6.123862 -18.005098 0
M  V30 30 O 11.775407 7.947615 -6.079618 0
M  V30 31 C 11.122849 8.355795 -7.143017 0
M  V30 32 N 9.935073 6.001815 -12.657097 0 CHG=1
M  V30 33 O 9.972073 8.790201 -7.145215 0
M  V30 34 H 4.171926 5.990252 -16.200576 0
M  V30 35 H 4.941249 7.540627 -16.464708 0
M  V30 36 H 8.430163 4.529971 -12.588471 0
M  V30 37 H 9.194287 8.519724 -9.445003 0
M  V30 38 H 9.713939 8.369225 -11.085765 0
M  V30 39 H 11.183983 9.818624 -9.585044 0
M  V30 40 H 12.029286 8.602369 -10.509714 0
M  V30 41 H 10.408882 6.382881 -9.020113 0
M  V30 42 H 8.175409 6.452121 -8.984501 0
M  V30 43 H 6.757872 4.231201 -16.930343 0
M  V30 44 H 12.747956 9.447641 -4.151428 0
M  V30 45 H 11.432612 9.225368 -3.011205 0
M  V30 46 H 7.638366 7.305351 -11.462270 0
M  V30 47 H 9.263414 3.057264 -10.298219 0
M  V30 48 H 12.907689 8.730744 -8.251630 0
M  V30 49 H 12.179591 7.175790 -8.539253 0
M  V30 50 H 4.657969 5.471765 -10.011502 0
M  V30 51 H 5.160767 7.060891 -10.740281 0
M  V30 52 H 5.104700 7.733267 -14.310987 0
M  V30 53 H 4.718001 7.676052 -12.649911 0
M  V30 54 H 6.388106 7.859234 -13.120468 0
M  V30 55 H 5.146121 4.232562 -12.085572 0
M  V30 56 H 6.926947 6.928902 -15.537170 0
M  V30 57 H 9.048323 5.906233 -14.539838 0
M  V30 58 H 8.575329 7.431875 -13.548968 0
M  V30 59 H 8.519182 4.390230 -8.621523 0
M  V30 60 H 10.076748 10.141389 -4.765903 0
M  V30 61 H 11.626399 7.150186 -4.238722 0
M  V30 62 H 10.152555 7.882263 -4.802768 0
M  V30 63 H 7.791583 5.166607 -21.069305 0
M  V30 64 H 6.774564 6.521903 -20.589103 0
M  V30 65 H 8.443088 6.406982 -19.998101 0
M  V30 66 H 4.958357 5.163134 -18.274058 0
M  V30 67 H 5.019904 6.879770 -18.700073 0
M  V30 68 H 10.156211 6.531945 -11.818003 0
M  V30 69 H 10.484395 5.174023 -12.856381 0
M  V30 END ATOM
M  V30 BEGIN BOND
M  V30 1 1 8 6
M  V30 2 1 9 6
M  V30 3 1 10 9
M  V30 4 1 11 4
M  V30 5 1 11 7
M  V30 6 1 13 3
M  V30 7 1 13 10
M  V30 8 1 15 4
M  V30 9 1 16 8
M  V30 10 1 18 1
M  V30 11 1 19 1
M  V30 12 1 19 17
M  V30 13 1 20 2
M  V30 14 1 20 11
M  V30 15 1 21 1
M  V30 16 1 21 20
M  V30 17 1 22 3
M  V30 18 1 23 5
M  V30 19 1 23 10
M  V30 20 1 23 14
M  V30 21 1 24 5 CFG=1
M  V30 22 1 24 13
M  V30 23 1 24 17
M  V30 24 1 24 19
M  V30 25 1 25 12
M  V30 26 2 26 21
M  V30 27 1 27 12
M  V30 28 1 28 15
M  V30 29 1 29 2
M  V30 30 1 29 4
M  V30 31 1 30 27
M  V30 32 1 31 16
M  V30 33 1 31 30
M  V30 34 1 32 3
M  V30 35 1 32 22
M  V30 36 2 33 31
M  V30 37 1 34 2
M  V30 38 1 35 2
M  V30 39 1 3 36 CFG=3
M  V30 40 1 37 6
M  V30 41 1 38 6
M  V30 42 1 39 8
M  V30 43 1 40 8
M  V30 44 1 41 9
M  V30 45 1 10 42 CFG=1
M  V30 46 1 11 43 CFG=3
M  V30 47 1 44 12
M  V30 48 1 45 12
M  V30 49 1 13 46 CFG=3
M  V30 50 1 47 14
M  V30 51 1 48 16
M  V30 52 1 49 16
M  V30 53 1 50 17
M  V30 54 1 51 17
M  V30 55 1 52 18
M  V30 56 1 53 18
M  V30 57 1 54 18
M  V30 58 1 19 55 CFG=3
M  V30 59 1 20 56 CFG=1
M  V30 60 1 57 22
M  V30 61 1 58 22
M  V30 62 1 23 59 CFG=1
M  V30 63 1 60 25
M  V30 64 1 61 27
M  V30 65 1 62 27
M  V30 66 1 63 28
M  V30 67 1 64 28
M  V30 68 1 65 28
M  V30 69 1 66 29
M  V30 70 1 67 29
M  V30 71 1 68 32
M  V30 72 1 69 32
M  V30 END BOND
M  V30 END CTAB
M  END
>  <i_epik_Tot_Q>  (1) 
1

>  <i_epik_Tot_abs_Q>  (1) 
1

>  <i_i_glide_confnum>  (1) 
1111

>  <i_i_glide_lignum>  (1) 
39

>  <i_i_glide_posenum>  (1) 
110

>  <i_i_glide_rotatable_bonds>  (1) 
15

>  <i_lp_mmshare_version>  (1) 
72125

>  <i_m_source_file_index>  (1) 
9

>  <i_f3d_flags>  (1) 
0

>  <num_sample>  (1) 
50

>  <b_lp_Chiralities_Consistent>  (1) 
1

>  <r_epik_Charging_Adjusted_Penalty>  (1) 
1.2103720943885907

>  <r_epik_Ionization_Penalty>  (1) 
0.55446808147534954

>  <r_epik_Ionization_Penalty_Charging>  (1) 
0.13553905892425583

>  <r_epik_Ionization_Penalty_Neutral>  (1) 
0.41892902255109377

>  <r_epik_State_Penalty>  (1) 
1.074833035464335

>  <r_glide_ring_energy>  (1) 
0

>  <r_i_docking_score>  (1) 
-1.6356023696301687

>  <r_i_glide_ecoul>  (1) 
-4.5296033254369465

>  <r_i_glide_eff_state_penalty>  (1) 
1.074833035464335

>  <r_i_glide_einternal>  (1) 
8.211577413680601

>  <r_i_glide_emodel>  (1) 
-13.79922446083463

>  <r_i_glide_emodel_strain>  (1) 
6.5843847533565025

>  <r_i_glide_energy>  (1) 
-18.106476281584015

>  <r_i_glide_erotb>  (1) 
1.0741905119875848

>  <r_i_glide_esite>  (1) 
-0.026148260227947379

>  <r_i_glide_evdw>  (1) 
-13.576872956147067

>  <r_i_glide_gscore>  (1) 
-2.7104354050945036

>  <r_i_glide_gscore_strain>  (1) 
0.64609618833912563

>  <r_i_glide_hbond>  (1) 
0

>  <r_i_glide_ligand_efficiency>  (1) 
-0.049563708170611176

>  <r_i_glide_ligand_efficiency_ln>  (1) 
-0.36374949830991443

>  <r_i_glide_ligand_efficiency_sa>  (1) 
-0.15897729547912998

>  <r_i_glide_lipo>  (1) 
-1.7107954640977669

>  <r_i_glide_metal>  (1) 
-0

>  <r_i_glide_rewards>  (1) 
-1.335494234472604

>  <r_lp_Energy>  (1) 
38.778824999999998

>  <s_epik_Chemistry_Notes>  (1) 
This compound has an ester and may undergo hydrolysis at high or low pH. This compound contains an acetal/aminal-like group ( X-CH(R)-Y where X, Y are N, S, or O) that may be acid/base labile, releasing an aldehyde. This compound has a N-S or N-O group and may undergo hydrolysis at high or low pH.

>  <s_epik_cmdline>  (1) 
J2VwaWtfcHl0aG9uJywgJy1waHQnLCAnMS4wJywgJy1waCcsICc3LjQnLCAnLXRuJywgJzgnLCAnLW1hJywgJzUwMCcsICctaW1hZScsICc8aW5maWxlLm1hZT4nLCAnLW9tYWUnLCAnPG91dGZpbGUubWFlPic=

>  <s_epik_input>  (1) 
W0NIM11PTjFbQ0BIXShGKVtDQEBIXShbQ0gyXVtDSDJdMSlDKD1PKU4oW0NIM10pW0NASF0yW0NIMl1DMjNPW0NAQEhdKFtPSF0pW0NASF0oW0NASF0zW0NASF00W0NIMl1bTkhdNClbTkhdW0NIMl1bQ0gyXVtDSDJdQyg9TylPW0NIMl1bQ0gyXVtPSF0=

>  <s_glide_docking_method>  (1) 
confgen

>  <s_i_glide_gridfile>  (1) 
gpcr_drd2_6luq_protein_autoprepared_prepared

>  <s_lp_Force_Field>  (1) 
S-OPLS

>  <s_lp_Variant>  (1) 
DiffSBDD_8-8

>  <s_m_source_file>  (1) 
generated_generic_title2_ligand_DiffSBDD_2026-06-23_prepared.sdf

>  <GenAI_Model>  (1) 
DiffSBDD

>  <Protein>  (1) 
generic_title2

$$$$
DiffSBDD_5
     RDKit          3D

  0  0  0  0  0  0  0  0  0  0999 V3000
M  V30 BEGIN CTAB
M  V30 COUNTS 65 68 0 0 1
M  V30 BEGIN ATOM
M  V30 1 C 13.422219 7.714727 -21.723706 0 CFG=1
M  V30 2 N 9.460211 5.932491 -19.404670 0
M  V30 3 C 8.806406 6.206782 -22.777932 0
M  V30 4 C 14.247650 8.558684 -20.754263 0
M  V30 5 C 10.034633 3.382960 -19.578416 0 CFG=2
M  V30 6 N 12.027423 7.710928 -21.292177 0
M  V30 7 C 9.869980 6.891999 -20.471305 0 CFG=1
M  V30 8 O 14.214736 7.590165 -23.958323 0 CHG=-1
M  V30 9 C 15.060873 9.589308 -21.003866 0
M  V30 10 C 11.259013 6.632731 -21.095178 0
M  V30 11 C 15.296083 4.689988 -19.266464 0
M  V30 12 O 10.501719 5.928031 -18.386837 0
M  V30 13 C 15.435918 9.547601 -18.608185 0 CFG=1
M  V30 14 C 13.482083 8.223853 -23.168784 0
M  V30 15 C 14.159149 2.753478 -17.053147 0
M  V30 16 C 12.085949 2.675011 -18.462315 0
M  V30 17 C 15.767216 10.326680 -19.900251 0
M  V30 18 O 17.313012 5.473778 -18.365861 0
M  V30 19 C 14.850371 5.782645 -16.265466 0
M  V30 20 O 16.970196 4.811307 -15.989287 0
M  V30 21 O 11.560519 1.828968 -17.736496 0
M  V30 22 C 15.186682 3.349562 -16.424226 0
M  V30 23 C 13.452324 3.234141 -18.260003 0
M  V30 24 O 12.812179 9.242814 -23.449108 0
M  V30 25 S 14.209242 8.260226 -19.025928 0
M  V30 26 C 15.789650 4.671348 -16.767207 0 CFG=1
M  V30 27 C 8.744030 7.121549 -21.533766 0
M  V30 28 C 8.962244 3.513361 -18.571937 0
M  V30 29 Cl 16.929249 8.802923 -17.984250 0
M  V30 30 C 10.526060 2.369061 -20.389079 0
M  V30 31 C 8.706268 8.585743 -22.012809 0
M  V30 32 C 13.965436 4.085383 -19.225391 0
M  V30 33 N 11.455947 3.192712 -19.537062 0
M  V30 34 O 11.625661 5.492548 -21.367960 0
M  V30 35 C 9.121184 4.544519 -19.762030 0 CFG=1
M  V30 36 C 16.098709 4.912826 -18.222337 0
M  V30 37 H 13.834355 6.704170 -21.697188 0
M  V30 38 H 9.651635 6.459862 -23.419085 0
M  V30 39 H 8.902022 5.154318 -22.520082 0
M  V30 40 H 7.905110 6.313403 -23.382592 0
M  V30 41 H 11.623353 8.621783 -21.135382 0
M  V30 42 H 9.972581 7.841793 -19.943397 0
M  V30 43 H 15.213519 9.941094 -22.013814 0
M  V30 44 H 15.659865 4.994034 -20.237554 0
M  V30 45 H 11.228468 5.545744 -18.857446 0
M  V30 46 H 15.039682 10.202277 -17.829893 0
M  V30 47 H 13.805529 1.828234 -16.619070 0
M  V30 48 H 16.838894 10.383099 -20.089668 0
M  V30 49 H 15.376405 11.341311 -19.858886 0
M  V30 50 H 17.431830 5.664533 -19.284343 0
M  V30 51 H 13.861801 5.705002 -16.718176 0
M  V30 52 H 14.713344 5.738241 -15.185062 0
M  V30 53 H 15.232754 6.770178 -16.515231 0
M  V30 54 H 17.517556 5.434550 -16.448661 0
M  V30 55 H 15.594177 2.867701 -15.547157 0
M  V30 56 H 7.786380 6.937269 -21.043937 0
M  V30 57 H 8.135770 2.808156 -18.625291 0
M  V30 58 H 9.250896 3.815543 -17.567059 0
M  V30 59 H 10.577515 2.546700 -21.461237 0
M  V30 60 H 10.347800 1.336159 -20.093465 0
M  V30 61 H 9.625092 8.859081 -22.534183 0
M  V30 62 H 7.878285 8.751974 -22.702694 0
M  V30 63 H 8.575878 9.282689 -21.186753 0
M  V30 64 H 13.353277 4.296025 -20.082229 0
M  V30 65 H 8.358279 4.407569 -20.523840 0
M  V30 END ATOM
M  V30 BEGIN BOND
M  V30 1 1 4 1
M  V30 2 1 6 1
M  V30 3 1 7 2
M  V30 4 2 9 4
M  V30 5 1 10 6
M  V30 6 1 10 7
M  V30 7 1 12 2
M  V30 8 1 14 1
M  V30 9 1 14 8
M  V30 10 1 17 9
M  V30 11 1 17 13
M  V30 12 2 21 16
M  V30 13 2 22 15
M  V30 14 1 23 15
M  V30 15 1 23 16
M  V30 16 2 24 14
M  V30 17 1 25 4
M  V30 18 1 25 13
M  V30 19 1 26 19
M  V30 20 1 26 20 CFG=1
M  V30 21 1 26 22
M  V30 22 1 27 3
M  V30 23 1 27 7
M  V30 24 1 28 5
M  V30 25 1 29 13
M  V30 26 1 30 5
M  V30 27 1 31 27
M  V30 28 1 32 11
M  V30 29 2 32 23
M  V30 30 1 5 33 CFG=1
M  V30 31 1 33 16
M  V30 32 1 33 30
M  V30 33 2 34 10
M  V30 34 1 35 2
M  V30 35 1 35 5
M  V30 36 1 35 28
M  V30 37 2 36 11
M  V30 38 1 36 18
M  V30 39 1 36 26
M  V30 40 1 1 37 CFG=3
M  V30 41 1 38 3
M  V30 42 1 39 3
M  V30 43 1 40 3
M  V30 44 1 41 6
M  V30 45 1 7 42 CFG=1
M  V30 46 1 43 9
M  V30 47 1 44 11
M  V30 48 1 45 12
M  V30 49 1 13 46 CFG=1
M  V30 50 1 47 15
M  V30 51 1 48 17
M  V30 52 1 49 17
M  V30 53 1 50 18
M  V30 54 1 51 19
M  V30 55 1 52 19
M  V30 56 1 53 19
M  V30 57 1 54 20
M  V30 58 1 55 22
M  V30 59 1 56 27
M  V30 60 1 57 28
M  V30 61 1 58 28
M  V30 62 1 59 30
M  V30 63 1 60 30
M  V30 64 1 61 31
M  V30 65 1 62 31
M  V30 66 1 63 31
M  V30 67 1 64 32
M  V30 68 1 35 65 CFG=3
M  V30 END BOND
M  V30 END CTAB
M  END
>  <i_epik_Tot_Q>  (1) 
-1

>  <i_epik_Tot_abs_Q>  (1) 
1

>  <i_i_glide_confnum>  (1) 
58

>  <i_i_glide_lignum>  (1) 
28

>  <i_i_glide_posenum>  (1) 
5

>  <i_i_glide_rotatable_bonds>  (1) 
13

>  <i_lp_mmshare_version>  (1) 
72125

>  <i_m_source_file_index>  (1) 
6

>  <i_f3d_flags>  (1) 
0

>  <num_sample>  (1) 
50

>  <b_lp_Chiralities_Consistent>  (1) 
1

>  <r_epik_Charging_Adjusted_Penalty>  (1) 
0.077690704590845053

>  <r_epik_Ionization_Penalty>  (1) 
0.082549720368024937

>  <r_epik_Ionization_Penalty_Charging>  (1) 
8.0199661793119585e-06

>  <r_epik_Ionization_Penalty_Neutral>  (1) 
0.082541700401845622

>  <r_epik_State_Penalty>  (1) 
0.077682684624665738

>  <r_glide_ring_energy>  (1) 
1.4769951276530608

>  <r_i_docking_score>  (1) 
-1.6283071233629605

>  <r_i_glide_ecoul>  (1) 
-1.3398972988651052

>  <r_i_glide_eff_state_penalty>  (1) 
0.077682684624665738

>  <r_i_glide_einternal>  (1) 
10.472148299447596

>  <r_i_glide_emodel>  (1) 
-26.781196522289996

>  <r_i_glide_emodel_strain>  (1) 
1.4093901245364862

>  <r_i_glide_energy>  (1) 
-30.400812819673092

>  <r_i_glide_erotb>  (1) 
0.49788325422123908

>  <r_i_glide_esite>  (1) 
0

>  <r_i_glide_evdw>  (1) 
-29.060915520807988

>  <r_i_glide_gscore>  (1) 
-1.7059898079876261

>  <r_i_glide_gscore_strain>  (1) 
0

>  <r_i_glide_hbond>  (1) 
-0.19272682355157089

>  <r_i_glide_ligand_efficiency>  (1) 
-0.045230753426748899

>  <r_i_glide_ligand_efficiency_ln>  (1) 
-0.35525262254320072

>  <r_i_glide_ligand_efficiency_sa>  (1) 
-0.14934865722781623

>  <r_i_glide_lipo>  (1) 
-0.82010880871617486

>  <r_i_glide_metal>  (1) 
-0

>  <r_i_glide_rewards>  (1) 
0.46299294092904586

>  <r_lp_Energy>  (1) 
46.399811

>  <s_epik_Chemistry_Notes>  (1) 
This compound has a N-S or N-O group and may undergo hydrolysis at high or low pH.

>  <s_epik_cmdline>  (1) 
J2VwaWtfcHl0aG9uJywgJy1waHQnLCAnMS4wJywgJy1waCcsICc3LjQnLCAnLXRuJywgJzgnLCAnLW1hJywgJzUwMCcsICctaW1hZScsICc8aW5maWxlLm1hZT4nLCAnLW9tYWUnLCAnPG91dGZpbGUubWFlPic=

>  <s_epik_input>  (1) 
UzFbQ0BASF0oQ2wpW0NIMl1bQ0hdPUMxW0NASF0oQyg9TylbT0hdKVtOSF1DKD1PKVtDQEBIXShbQ0hdKFtDSDNdKVtDSDNdKU4oW09IXSlbQ0hdMltDSDJdQzIzW0NIMl1OM0MoPU8pQyhbQ0hdPVtDSF1bQ0BAXTQoW0NIM10pW09IXSk9W0NIXVtDSF09QzRbT0hd

>  <s_glide_docking_method>  (1) 
confgen

>  <s_i_glide_gridfile>  (1) 
gpcr_drd2_6luq_protein_autoprepared_prepared

>  <s_lp_Force_Field>  (1) 
S-OPLS

>  <s_lp_Variant>  (1) 
DiffSBDD_5-1

>  <s_m_source_file>  (1) 
generated_generic_title2_ligand_DiffSBDD_2026-06-23_prepared.sdf

>  <GenAI_Model>  (1) 
DiffSBDD

>  <Protein>  (1) 
generic_title2

$$$$
DiffSBDD_20
     RDKit          3D

  0  0  0  0  0  0  0  0  0  0999 V3000
M  V30 BEGIN CTAB
M  V30 COUNTS 71 73 0 0 1
M  V30 BEGIN ATOM
M  V30 1 C 6.175754 1.457689 -22.319114 0
M  V30 2 C 7.057694 8.215285 -22.692364 0
M  V30 3 C 4.986543 5.634719 -20.581190 0 CFG=2
M  V30 4 C 5.837624 2.624344 -22.874659 0
M  V30 5 C 6.295430 1.131320 -20.889087 0 CFG=1
M  V30 6 C 11.131774 5.212461 -16.758157 0
M  V30 7 C 11.846106 5.428279 -20.047678 0 CFG=1
M  V30 8 F 7.506149 0.619498 -20.672820 0
M  V30 9 C 9.552175 5.649235 -21.276390 0
M  V30 10 O 12.464011 3.532401 -17.704065 0
M  V30 11 C 6.064477 6.379883 -19.753873 0
M  V30 12 C 10.350133 5.834596 -19.956308 0 CFG=2
M  V30 13 C 15.066957 4.816437 -16.941457 0
M  V30 14 C 5.490903 3.898329 -22.227837 0
M  V30 15 C 5.371789 4.190468 -20.898344 0
M  V30 16 C 5.560878 3.274327 -19.756085 0
M  V30 17 C 12.740948 5.700765 -18.785033 0 CFG=2
M  V30 18 C 4.486666 7.797760 -22.190105 0
M  V30 19 N 7.468359 5.973251 -19.998276 0 CHG=1
M  V30 20 C 5.735479 8.704747 -22.075930 0
M  V30 21 C 13.655150 6.417116 -15.597130 0
M  V30 22 C 8.120704 6.258801 -21.300168 0 CFG=1
M  V30 23 O 10.260919 7.190134 -19.585808 0
M  V30 24 C 12.493930 4.923878 -17.430752 0 CFG=1
M  V30 25 S 5.165992 5.251396 -23.285869 0
M  V30 26 C 5.943600 1.992110 -19.745327 0
M  V30 27 C 13.655455 5.089197 -16.384209 0
M  V30 28 C 8.125856 7.763682 -21.673480 0
M  V30 29 C 4.527224 6.267407 -21.931771 0 CFG=1
M  V30 30 O 12.781774 7.095556 -18.543605 0
M  V30 31 N 11.999905 4.037200 -20.500816 0
M  V30 32 H 6.395837 0.635261 -22.984646 0
M  V30 33 H 7.485831 9.071837 -23.217138 0
M  V30 34 H 6.898260 7.477152 -23.477045 0
M  V30 35 H 4.103984 5.589377 -19.944352 0
M  V30 36 H 5.819920 2.633042 -23.953166 0
M  V30 37 H 5.632648 0.272094 -20.772712 0
M  V30 38 H 10.916261 6.280326 -16.725464 0
M  V30 39 H 11.115090 4.849259 -15.730107 0
M  V30 40 H 10.300277 4.710161 -17.244611 0
M  V30 41 H 12.258015 6.055888 -20.839899 0
M  V30 42 H 10.130754 6.029202 -22.119716 0
M  V30 43 H 9.459857 4.578595 -21.462769 0
M  V30 44 H 12.404211 3.069624 -16.880581 0
M  V30 45 H 5.944168 7.455474 -19.760930 0
M  V30 46 H 5.891874 6.117929 -18.709128 0
M  V30 47 H 9.865134 5.237725 -19.192693 0
M  V30 48 H 15.404173 5.623877 -17.591541 0
M  V30 49 H 15.107713 3.885625 -17.507816 0
M  V30 50 H 15.791159 4.738508 -16.129982 0
M  V30 51 H 5.362879 3.700662 -18.785032 0
M  V30 52 H 13.747401 5.447988 -19.116248 0
M  V30 53 H 3.725683 8.226520 -21.537537 0
M  V30 54 H 4.086411 7.930456 -23.196219 0
M  V30 55 H 8.043579 6.429499 -19.301711 0
M  V30 56 H 5.887310 9.063754 -21.060263 0
M  V30 57 H 5.469069 9.621550 -22.604013 0
M  V30 58 H 13.886795 7.272241 -16.229777 0
M  V30 59 H 14.406354 6.390128 -14.807147 0
M  V30 60 H 12.700919 6.612429 -15.109065 0
M  V30 61 H 7.593072 5.723544 -22.083029 0
M  V30 62 H 11.014950 7.383187 -19.032517 0
M  V30 63 H 6.017895 1.504758 -18.783326 0
M  V30 64 H 13.496379 4.324792 -15.624232 0
M  V30 65 H 9.085593 7.992287 -22.138617 0
M  V30 66 H 8.107648 8.393482 -20.785383 0
M  V30 67 H 3.472422 5.992850 -21.985073 0
M  V30 68 H 13.331301 7.501456 -19.198887 0
M  V30 69 H 11.999478 3.417756 -19.684244 0
M  V30 70 H 11.237083 3.754579 -21.113072 0
M  V30 71 H 7.521721 4.975916 -19.846258 0
M  V30 END ATOM
M  V30 BEGIN BOND
M  V30 1 2 4 1
M  V30 2 1 5 1
M  V30 3 1 8 5
M  V30 4 1 11 3
M  V30 5 1 12 7
M  V30 6 1 12 9
M  V30 7 1 14 4
M  V30 8 1 15 3
M  V30 9 2 15 14
M  V30 10 1 16 15
M  V30 11 1 17 7
M  V30 12 1 19 11
M  V30 13 1 20 2
M  V30 14 1 20 18
M  V30 15 1 22 9
M  V30 16 1 22 19
M  V30 17 1 23 12
M  V30 18 1 24 6
M  V30 19 1 24 10 CFG=3
M  V30 20 1 24 17
M  V30 21 1 25 14
M  V30 22 1 26 5
M  V30 23 2 26 16
M  V30 24 1 27 13
M  V30 25 1 27 21
M  V30 26 1 27 24
M  V30 27 1 28 2
M  V30 28 1 28 22
M  V30 29 1 29 3
M  V30 30 1 29 18
M  V30 31 1 29 25
M  V30 32 1 30 17
M  V30 33 1 31 7
M  V30 34 1 32 1
M  V30 35 1 33 2
M  V30 36 1 34 2
M  V30 37 1 3 35 CFG=1
M  V30 38 1 36 4
M  V30 39 1 5 37 CFG=3
M  V30 40 1 38 6
M  V30 41 1 39 6
M  V30 42 1 40 6
M  V30 43 1 7 41 CFG=3
M  V30 44 1 42 9
M  V30 45 1 43 9
M  V30 46 1 44 10
M  V30 47 1 45 11
M  V30 48 1 46 11
M  V30 49 1 12 47 CFG=1
M  V30 50 1 48 13
M  V30 51 1 49 13
M  V30 52 1 50 13
M  V30 53 1 51 16
M  V30 54 1 17 52 CFG=3
M  V30 55 1 53 18
M  V30 56 1 54 18
M  V30 57 1 55 19
M  V30 58 1 56 20
M  V30 59 1 57 20
M  V30 60 1 58 21
M  V30 61 1 59 21
M  V30 62 1 60 21
M  V30 63 1 22 61 CFG=3
M  V30 64 1 62 23
M  V30 65 1 63 26
M  V30 66 1 64 27
M  V30 67 1 65 28
M  V30 68 1 66 28
M  V30 69 1 29 67 CFG=1
M  V30 70 1 68 30
M  V30 71 1 69 31
M  V30 72 1 70 31
M  V30 73 1 71 19
M  V30 END BOND
M  V30 END CTAB
M  END
>  <i_epik_Tot_Q>  (1) 
1

>  <i_epik_Tot_abs_Q>  (1) 
1

>  <i_i_glide_confnum>  (1) 
45

>  <i_i_glide_lignum>  (1) 
67

>  <i_i_glide_posenum>  (1) 
274

>  <i_i_glide_rotatable_bonds>  (1) 
9

>  <i_lp_mmshare_version>  (1) 
72125

>  <i_m_source_file_index>  (1) 
21

>  <i_f3d_flags>  (1) 
0

>  <num_sample>  (1) 
50

>  <b_lp_Chiralities_Consistent>  (1) 
1

>  <r_epik_Charging_Adjusted_Penalty>  (1) 
1.0900107648315034

>  <r_epik_Ionization_Penalty>  (1) 
1.0648013143729294

>  <r_epik_Ionization_Penalty_Charging>  (1) 
0.018420486395911647

>  <r_epik_Ionization_Penalty_Neutral>  (1) 
1.0463808279770177

>  <r_epik_State_Penalty>  (1) 
1.0715902784355917

>  <r_glide_ring_energy>  (1) 
0

>  <r_i_docking_score>  (1) 
-1.5420283652766618

>  <r_i_glide_ecoul>  (1) 
-1.3154689925501983

>  <r_i_glide_eff_state_penalty>  (1) 
1.0715902784355917

>  <r_i_glide_einternal>  (1) 
4.3863439482204356

>  <r_i_glide_emodel>  (1) 
-25.800889450617877

>  <r_i_glide_emodel_strain>  (1) 
1.8896471827676464

>  <r_i_glide_energy>  (1) 
-25.292501649487498

>  <r_i_glide_erotb>  (1) 
0.38705737007943358

>  <r_i_glide_esite>  (1) 
0

>  <r_i_glide_evdw>  (1) 
-23.9770326569373

>  <r_i_glide_gscore>  (1) 
-2.6136186437122535

>  <r_i_glide_gscore_strain>  (1) 
0

>  <r_i_glide_hbond>  (1) 
0

>  <r_i_glide_ligand_efficiency>  (1) 
-0.049742850492795539

>  <r_i_glide_ligand_efficiency_ln>  (1) 
-0.34777465386387257

>  <r_i_glide_ligand_efficiency_sa>  (1) 
-0.15626122813286561

>  <r_i_glide_lipo>  (1) 
-1.3021885775168367

>  <r_i_glide_metal>  (1) 
-0

>  <r_i_glide_rewards>  (1) 
-0.30231545454545544

>  <r_lp_Energy>  (1) 
51.224616999999995

>  <s_epik_cmdline>  (1) 
J2VwaWtfcHl0aG9uJywgJy1waHQnLCAnMS4wJywgJy1waCcsICc3LjQnLCAnLXRuJywgJzgnLCAnLW1hJywgJzUwMCcsICctaW1hZScsICc8aW5maWxlLm1hZT4nLCAnLW9tYWUnLCAnPG91dGZpbGUubWFlPic=

>  <s_epik_input>  (1) 
W0NIXTE9W0NIXVtDQEhdKEYpW0NIXT1bQ0hdQyg9QzFbQ0BASF0yMylTW0NAQEhdM1tDSDJdW0NIMl1bQ0gyXVtDSDJdW0NASF0oW05IXVtDSDJdMilbQ0gyXVtDQEhdKFtPSF0pW0NASF0oW05IMl0pW0NAQEhdKFtPSF0pW0NAQF0oW0NIM10pKFtPSF0pW0NIXShbQ0gzXSlbQ0gzXQ==

>  <s_glide_docking_method>  (1) 
confgen

>  <s_i_glide_gridfile>  (1) 
gpcr_drd2_6luq_protein_autoprepared_prepared

>  <s_lp_Force_Field>  (1) 
S-OPLS

>  <s_lp_Variant>  (1) 
DiffSBDD_20-4

>  <s_m_source_file>  (1) 
generated_generic_title2_ligand_DiffSBDD_2026-06-23_prepared.sdf

>  <GenAI_Model>  (1) 
DiffSBDD

>  <Protein>  (1) 
generic_title2

$$$$
DiffSBDD_28
     RDKit          3D

  0  0  0  0  0  0  0  0  0  0999 V3000
M  V30 BEGIN CTAB
M  V30 COUNTS 79 86 0 0 1
M  V30 BEGIN ATOM
M  V30 1 F 24.187425 10.921981 -16.988095 0
M  V30 2 C 11.986290 6.742257 -19.538496 0 CFG=1
M  V30 3 C 15.434303 6.827846 -21.046311 0 CFG=2
M  V30 4 C 11.184256 4.457489 -20.951733 0 CFG=2
M  V30 5 C 20.131188 8.571975 -21.810631 0 CFG=1
M  V30 6 C 11.584952 6.227890 -18.148583 0
M  V30 7 C 17.848422 7.633624 -20.871054 0 CFG=2
M  V30 8 C 22.914249 9.038388 -19.195270 0 CFG=1
M  V30 9 C 15.610732 5.878473 -19.846360 0
M  V30 10 C 20.719737 8.694100 -20.411803 0 CFG=1
M  V30 11 C 10.336687 7.083521 -20.952146 0 CFG=1
M  V30 12 C 15.797478 9.089778 -20.408608 0
M  V30 13 C 11.230781 5.922172 -20.592670 0 CFG=1
M  V30 14 O 8.988624 6.836831 -20.615118 0
M  V30 15 C 23.127331 11.181401 -17.836383 0 CFG=1
M  V30 16 C 18.699039 8.121336 -22.033811 0 CFG=1
M  V30 17 O 19.053399 9.498679 -22.043312 0
M  V30 18 N 16.407336 7.946777 -21.116799 0 CFG=2 CHG=1
M  V30 19 O 10.424161 2.643156 -22.315331 0
M  V30 20 C 22.306165 12.364231 -17.489601 0
M  V30 21 O 11.986116 5.390313 -21.691855 0
M  V30 22 C 19.919296 7.849670 -19.393686 0
M  V30 23 C 11.145652 7.958083 -19.993334 0
M  V30 24 N 13.465753 6.832863 -19.630040 0
M  V30 25 C 10.017743 3.854978 -21.702510 0
M  V30 26 N 24.222629 8.337734 -19.184975 0 CHG=1
M  V30 27 C 18.411767 8.122721 -19.510828 0
M  V30 28 C 24.152224 7.176784 -20.091759 0
M  V30 29 C 22.711620 7.132003 -20.595258 0
M  V30 30 O 21.995739 13.179237 -18.356272 0
M  V30 31 C 14.301042 8.962975 -20.678349 0
M  V30 32 C 23.082918 10.574068 -19.231491 0
M  V30 33 O 21.805198 11.190225 -17.188370 0
M  V30 34 N 22.204489 8.504748 -20.388484 0 CFG=2 CHG=1
M  V30 35 C 14.175696 5.576160 -19.449727 0
M  V30 36 C 9.372028 2.031195 -23.041659 0
M  V30 37 C 14.041103 7.451618 -20.826651 0 CFG=1
M  V30 38 H 15.450162 6.257790 -21.976236 0
M  V30 39 H 11.737143 3.776028 -20.308681 0
M  V30 40 H 20.831383 8.513565 -22.642660 0
M  V30 41 H 10.507938 6.296039 -17.990451 0
M  V30 42 H 11.849114 5.180350 -18.003459 0
M  V30 43 H 12.062261 6.804769 -17.354887 0
M  V30 44 H 17.956938 6.548618 -20.893286 0
M  V30 45 H 22.375107 8.729282 -18.299370 0
M  V30 46 H 16.093827 6.374947 -19.006821 0
M  V30 47 H 16.178486 4.979870 -20.088724 0
M  V30 48 H 20.550909 9.734285 -20.132247 0
M  V30 49 H 10.414222 7.406417 -21.991076 0
M  V30 50 H 16.204223 10.045178 -20.741842 0
M  V30 51 H 15.952164 9.005304 -19.332845 0
M  V30 52 H 8.491252 7.593554 -20.886883 0
M  V30 53 H 18.445935 7.720260 -23.013521 0
M  V30 54 H 20.234245 8.095512 -18.385020 0
M  V30 55 H 20.086186 6.780940 -19.525536 0
M  V30 56 H 11.674978 8.733002 -20.539133 0
M  V30 57 H 10.567256 8.397480 -19.185069 0
M  V30 58 H 9.209713 3.662402 -20.995785 0
M  V30 59 H 9.651533 4.564365 -22.446460 0
M  V30 60 H 24.472185 8.031237 -18.251140 0
M  V30 61 H 18.251073 9.194087 -19.381978 0
M  V30 62 H 17.896881 7.633083 -18.684926 0
M  V30 63 H 24.438867 6.255350 -19.583472 0
M  V30 64 H 24.846596 7.333116 -20.918514 0
M  V30 65 H 22.163948 6.414151 -19.986677 0
M  V30 66 H 22.639463 6.816337 -21.636713 0
M  V30 67 H 14.045335 9.473936 -21.607394 0
M  V30 68 H 13.724870 9.426481 -19.876608 0
M  V30 69 H 23.992146 10.853231 -19.766091 0
M  V30 70 H 22.268747 11.040408 -19.787039 0
M  V30 71 H 14.112070 5.214991 -18.423056 0
M  V30 72 H 13.780382 4.803260 -20.106427 0
M  V30 73 H 9.723758 1.102014 -23.490051 0
M  V30 74 H 8.529011 1.792567 -22.391078 0
M  V30 75 H 9.019834 2.679343 -23.845484 0
M  V30 76 H 13.418942 7.271462 -21.702808 0
M  V30 77 H 16.369284 8.225788 -22.087382 0
M  V30 78 H 24.952389 8.955260 -19.513830 0
M  V30 79 H 22.556349 9.043507 -21.168185 0
M  V30 END ATOM
M  V30 BEGIN BOND
M  V30 1 1 2 6 CFG=1
M  V30 2 1 9 3
M  V30 3 1 10 5
M  V30 4 1 13 2
M  V30 5 1 13 4
M  V30 6 1 13 11
M  V30 7 1 14 11
M  V30 8 1 15 1 CFG=1
M  V30 9 1 16 5
M  V30 10 1 16 7
M  V30 11 1 17 5
M  V30 12 1 17 16
M  V30 13 1 18 3
M  V30 14 1 18 7
M  V30 15 1 18 12
M  V30 16 1 20 15
M  V30 17 1 21 4
M  V30 18 1 13 21 CFG=3
M  V30 19 1 22 10
M  V30 20 1 23 2
M  V30 21 1 23 11
M  V30 22 1 24 2
M  V30 23 1 25 4
M  V30 24 1 25 19
M  V30 25 1 26 8
M  V30 26 1 27 7
M  V30 27 1 27 22
M  V30 28 1 28 26
M  V30 29 1 29 28
M  V30 30 2 30 20
M  V30 31 1 31 12
M  V30 32 1 32 8
M  V30 33 1 32 15
M  V30 34 1 33 15
M  V30 35 1 33 20
M  V30 36 1 34 8
M  V30 37 1 34 10
M  V30 38 1 34 29
M  V30 39 1 35 9
M  V30 40 1 35 24
M  V30 41 1 36 19
M  V30 42 1 37 3
M  V30 43 1 37 24
M  V30 44 1 37 31
M  V30 45 1 3 38 CFG=3
M  V30 46 1 4 39 CFG=1
M  V30 47 1 5 40 CFG=3
M  V30 48 1 41 6
M  V30 49 1 42 6
M  V30 50 1 43 6
M  V30 51 1 7 44 CFG=1
M  V30 52 1 8 45 CFG=1
M  V30 53 1 46 9
M  V30 54 1 47 9
M  V30 55 1 10 48 CFG=1
M  V30 56 1 11 49 CFG=3
M  V30 57 1 50 12
M  V30 58 1 51 12
M  V30 59 1 52 14
M  V30 60 1 16 53 CFG=3
M  V30 61 1 54 22
M  V30 62 1 55 22
M  V30 63 1 56 23
M  V30 64 1 57 23
M  V30 65 1 58 25
M  V30 66 1 59 25
M  V30 67 1 60 26
M  V30 68 1 61 27
M  V30 69 1 62 27
M  V30 70 1 63 28
M  V30 71 1 64 28
M  V30 72 1 65 29
M  V30 73 1 66 29
M  V30 74 1 67 31
M  V30 75 1 68 31
M  V30 76 1 69 32
M  V30 77 1 70 32
M  V30 78 1 71 35
M  V30 79 1 72 35
M  V30 80 1 73 36
M  V30 81 1 74 36
M  V30 82 1 75 36
M  V30 83 1 37 76 CFG=3
M  V30 84 1 18 77 CFG=3
M  V30 85 1 78 26
M  V30 86 1 34 79 CFG=3
M  V30 END BOND
M  V30 END CTAB
M  END
>  <i_epik_Tot_Q>  (1) 
3

>  <i_epik_Tot_abs_Q>  (1) 
3

>  <i_i_glide_confnum>  (1) 
336

>  <i_i_glide_lignum>  (1) 
81

>  <i_i_glide_posenum>  (1) 
206

>  <i_i_glide_rotatable_bonds>  (1) 
8

>  <i_lp_mmshare_version>  (1) 
72125

>  <i_m_source_file_index>  (1) 
29

>  <i_f3d_flags>  (1) 
0

>  <num_sample>  (1) 
50

>  <b_lp_Chiralities_Consistent>  (1) 
1

>  <r_epik_Charging_Adjusted_Penalty>  (1) 
2.5241965566360229

>  <r_epik_Ionization_Penalty>  (1) 
2.0480993089750741

>  <r_epik_Ionization_Penalty_Charging>  (1) 
2.0477503768466887

>  <r_epik_Ionization_Penalty_Neutral>  (1) 
0.00034893212838530931

>  <r_epik_State_Penalty>  (1) 
0.4764461797893344

>  <r_glide_ring_energy>  (1) 
0.81914574756083636

>  <r_i_docking_score>  (1) 
-1.5172559779565635

>  <r_i_glide_ecoul>  (1) 
-5.1500847788365327

>  <r_i_glide_eff_state_penalty>  (1) 
0.4764461797893344

>  <r_i_glide_einternal>  (1) 
30.386801799587928

>  <r_i_glide_emodel>  (1) 
-11.209838291548806

>  <r_i_glide_emodel_strain>  (1) 
0.48751642936161943

>  <r_i_glide_energy>  (1) 
-23.140242705203114

>  <r_i_glide_erotb>  (1) 
0.44698704239028575

>  <r_i_glide_esite>  (1) 
0

>  <r_i_glide_evdw>  (1) 
-17.990157926366582

>  <r_i_glide_gscore>  (1) 
-1.993702157745898

>  <r_i_glide_gscore_strain>  (1) 
0

>  <r_i_glide_hbond>  (1) 
0

>  <r_i_glide_ligand_efficiency>  (1) 
-0.041006918323150364

>  <r_i_glide_ligand_efficiency_ln>  (1) 
-0.32905725209201619

>  <r_i_glide_ligand_efficiency_sa>  (1) 
-0.1366441493050625

>  <r_i_glide_lipo>  (1) 
-0.52686754892128718

>  <r_i_glide_metal>  (1) 
-0

>  <r_i_glide_rewards>  (1) 
-0.24180103807108744

>  <r_lp_Energy>  (1) 
75.273594000000003

>  <s_epik_Chemistry_Notes>  (1) 
This compound has an ester and may undergo hydrolysis at high or low pH. This compound contains an acetal/aminal-like group ( X-CH(R)-Y where X, Y are N, S, or O) that may be acid/base labile, releasing an aldehyde.

>  <s_epik_cmdline>  (1) 
J2VwaWtfcHl0aG9uJywgJy1waHQnLCAnMS4wJywgJy1waCcsICc3LjQnLCAnLXRuJywgJzgnLCAnLW1hJywgJzUwMCcsICctaW1hZScsICc8aW5maWxlLm1hZT4nLCAnLW9tYWUnLCAnPG91dGZpbGUubWFlPic=

>  <s_epik_input>  (1) 
Tz1DKE8xKUMxKEYpW0NIMl1bQ0BASF0yW05IXVtDSDJdW0NIMl1OMltDQEBIXTNbQ0gyXVtDSDJdW0NASF0oW0NAQEhdKE80KVtDQEhdMzQpTjVbQ0gyXVtDSDJdW0NAQEhdKFtDQEhdNTYpTihbQ0gyXVtDSDJdNilbQ0BAXShbQ0gzXSkoW0NIMl1bQ0BASF03W09IXSlbQ0BAXTc4W0NASF0oTzgpW0NIMl1PW0NIM10=

>  <s_glide_docking_method>  (1) 
confgen

>  <s_i_glide_gridfile>  (1) 
gpcr_drd2_6luq_protein_autoprepared_prepared

>  <s_lp_Force_Field>  (1) 
S-OPLS

>  <s_lp_Variant>  (1) 
DiffSBDD_28-4

>  <s_m_source_file>  (1) 
generated_generic_title2_ligand_DiffSBDD_2026-06-23_prepared.sdf

>  <GenAI_Model>  (1) 
DiffSBDD

>  <Protein>  (1) 
generic_title2

$$$$
DiffSBDD_8
     RDKit          3D

  0  0  0  0  0  0  0  0  0  0999 V3000
M  V30 BEGIN CTAB
M  V30 COUNTS 69 72 0 0 1
M  V30 BEGIN ATOM
M  V30 1 N 8.031116 5.439579 -16.730888 0
M  V30 2 C 8.795497 3.800386 -20.059914 0
M  V30 3 C 5.682895 7.142121 -13.180280 0 CFG=1
M  V30 4 N 8.084443 1.847618 -18.871697 0
M  V30 5 O 6.575410 4.039330 -15.104998 0
M  V30 6 C 8.887056 4.871695 -11.861694 0
M  V30 7 F 8.877187 2.357133 -16.789809 0
M  V30 8 C 10.261191 5.344885 -12.314080 0
M  V30 9 N 7.978402 5.280892 -12.898659 0
M  V30 10 C 6.638528 4.728253 -12.858663 0 CFG=1
M  V30 11 C 9.096030 2.542469 -18.091906 0 CFG=2
M  V30 12 C 10.847066 8.489617 -7.908879 0
M  V30 13 C 5.714039 5.666294 -13.611089 0 CFG=2
M  V30 14 O 7.752545 2.656944 -13.655667 0
M  V30 15 O 8.494837 0.466888 -18.901804 0
M  V30 16 C 10.704536 6.787220 -11.979243 0
M  V30 17 C 5.501264 6.131491 -16.228502 0
M  V30 18 C 9.370684 5.464315 -16.142376 0
M  V30 19 C 7.007767 6.175688 -15.981725 0 CFG=1
M  V30 20 C 8.984434 4.007695 -18.548261 0 CFG=2
M  V30 21 C 7.788499 4.767661 -17.898645 0
M  V30 22 C 5.010859 7.588505 -11.893436 0
M  V30 23 C 6.642483 3.511871 -13.816102 0 CFG=2
M  V30 24 C 6.095422 5.386042 -15.052055 0 CFG=2
M  V30 25 O 12.174800 8.144253 -7.585003 0
M  V30 26 O 6.684594 4.741919 -18.440038 0
M  V30 27 C 10.056301 7.240451 -8.323609 0
M  V30 28 C 7.525458 -0.271988 -18.176009 0
M  V30 29 C 8.296925 2.352940 -20.224085 0
M  V30 30 O 10.496016 6.790217 -9.596499 0
M  V30 31 C 10.114732 7.411950 -10.722711 0
M  V30 32 N 6.444149 7.488903 -11.985031 0 CHG=1
M  V30 33 O 9.375398 8.390193 -10.776148 0
M  V30 34 H 8.105827 4.514833 -20.511395 0
M  V30 35 H 9.746939 3.923505 -20.577793 0
M  V30 36 H 5.827783 7.876659 -13.965673 0
M  V30 37 H 8.903863 3.786076 -11.768680 0
M  V30 38 H 8.590875 5.251319 -10.884636 0
M  V30 39 H 10.327883 5.236041 -13.393446 0
M  V30 40 H 10.975413 4.611323 -11.985024 0
M  V30 41 H 8.376244 4.966987 -13.782443 0
M  V30 42 H 6.305035 4.471155 -11.852315 0
M  V30 43 H 10.090340 2.149904 -18.314246 0
M  V30 44 H 10.385425 8.951740 -7.035784 0
M  V30 45 H 10.858540 9.227312 -8.707248 0
M  V30 46 H 4.700206 5.282223 -13.514333 0
M  V30 47 H 7.614612 2.131457 -12.882595 0
M  V30 48 H 10.402735 7.447314 -12.785055 0
M  V30 49 H 11.791184 6.843535 -11.934676 0
M  V30 50 H 5.044797 5.590197 -17.041401 0
M  V30 51 H 4.966741 7.051942 -16.007445 0
M  V30 52 H 9.752647 4.466630 -15.930558 0
M  V30 53 H 10.082171 5.990482 -16.777995 0
M  V30 54 H 9.342791 5.990219 -15.195837 0
M  V30 55 H 7.354533 7.118837 -15.568212 0
M  V30 56 H 9.925328 4.533790 -18.399889 0
M  V30 57 H 4.713078 8.625710 -11.765604 0
M  V30 58 H 4.667077 6.868214 -11.153910 0
M  V30 59 H 5.750987 2.904044 -13.659822 0
M  V30 60 H 12.573916 7.763892 -8.352749 0
M  V30 61 H 10.185764 6.441976 -7.591391 0
M  V30 62 H 8.988431 7.461720 -8.359586 0
M  V30 63 H 7.791283 -1.329679 -18.183701 0
M  V30 64 H 7.475257 0.049541 -17.134030 0
M  V30 65 H 6.535217 -0.174633 -18.624105 0
M  V30 66 H 7.374961 2.292988 -20.804126 0
M  V30 67 H 9.057591 1.763277 -20.739426 0
M  V30 68 H 6.823905 6.736534 -11.425728 0
M  V30 69 H 6.893597 8.389943 -11.912331 0
M  V30 END ATOM
M  V30 BEGIN BOND
M  V30 1 1 8 6
M  V30 2 1 9 6
M  V30 3 1 10 9
M  V30 4 1 11 4
M  V30 5 1 11 7
M  V30 6 1 13 3
M  V30 7 1 13 10
M  V30 8 1 15 4
M  V30 9 1 16 8
M  V30 10 1 18 1
M  V30 11 1 19 1
M  V30 12 1 19 17
M  V30 13 1 20 2
M  V30 14 1 20 11
M  V30 15 1 21 1
M  V30 16 1 21 20
M  V30 17 1 22 3
M  V30 18 1 23 5
M  V30 19 1 23 10
M  V30 20 1 23 14
M  V30 21 1 24 5 CFG=3
M  V30 22 1 24 13
M  V30 23 1 24 17
M  V30 24 1 24 19
M  V30 25 1 25 12
M  V30 26 2 26 21
M  V30 27 1 27 12
M  V30 28 1 28 15
M  V30 29 1 29 2
M  V30 30 1 29 4
M  V30 31 1 30 27
M  V30 32 1 31 16
M  V30 33 1 31 30
M  V30 34 1 32 3
M  V30 35 1 32 22
M  V30 36 2 33 31
M  V30 37 1 34 2
M  V30 38 1 35 2
M  V30 39 1 3 36 CFG=3
M  V30 40 1 37 6
M  V30 41 1 38 6
M  V30 42 1 39 8
M  V30 43 1 40 8
M  V30 44 1 41 9
M  V30 45 1 10 42 CFG=1
M  V30 46 1 11 43 CFG=3
M  V30 47 1 44 12
M  V30 48 1 45 12
M  V30 49 1 13 46 CFG=3
M  V30 50 1 47 14
M  V30 51 1 48 16
M  V30 52 1 49 16
M  V30 53 1 50 17
M  V30 54 1 51 17
M  V30 55 1 52 18
M  V30 56 1 53 18
M  V30 57 1 54 18
M  V30 58 1 19 55 CFG=1
M  V30 59 1 20 56 CFG=3
M  V30 60 1 57 22
M  V30 61 1 58 22
M  V30 62 1 23 59 CFG=1
M  V30 63 1 60 25
M  V30 64 1 61 27
M  V30 65 1 62 27
M  V30 66 1 63 28
M  V30 67 1 64 28
M  V30 68 1 65 28
M  V30 69 1 66 29
M  V30 70 1 67 29
M  V30 71 1 68 32
M  V30 72 1 69 32
M  V30 END BOND
M  V30 END CTAB
M  END
>  <i_epik_Tot_Q>  (1) 
1

>  <i_epik_Tot_abs_Q>  (1) 
1

>  <i_i_glide_confnum>  (1) 
2941

>  <i_i_glide_lignum>  (1) 
36

>  <i_i_glide_posenum>  (1) 
154

>  <i_i_glide_rotatable_bonds>  (1) 
15

>  <i_lp_mmshare_version>  (1) 
72125

>  <i_m_source_file_index>  (1) 
9

>  <i_f3d_flags>  (1) 
0

>  <num_sample>  (1) 
50

>  <b_lp_Chiralities_Consistent>  (1) 
1

>  <r_epik_Charging_Adjusted_Penalty>  (1) 
1.2103720943885907

>  <r_epik_Ionization_Penalty>  (1) 
0.55446808147534954

>  <r_epik_Ionization_Penalty_Charging>  (1) 
0.13553905892425583

>  <r_epik_Ionization_Penalty_Neutral>  (1) 
0.41892902255109377

>  <r_epik_State_Penalty>  (1) 
1.074833035464335

>  <r_glide_ring_energy>  (1) 
0

>  <r_i_docking_score>  (1) 
-1.5129651521554135

>  <r_i_glide_ecoul>  (1) 
-4.7807703201758338

>  <r_i_glide_eff_state_penalty>  (1) 
1.074833035464335

>  <r_i_glide_einternal>  (1) 
14.121780153484323

>  <r_i_glide_emodel>  (1) 
-22.606871649345955

>  <r_i_glide_emodel_strain>  (1) 
5.2564479686354986

>  <r_i_glide_energy>  (1) 
-27.082685577440653

>  <r_i_glide_erotb>  (1) 
1.0741905119875848

>  <r_i_glide_esite>  (1) 
-0.1559744606028475

>  <r_i_glide_evdw>  (1) 
-22.30191525726482

>  <r_i_glide_gscore>  (1) 
-2.5877981876197484

>  <r_i_glide_gscore_strain>  (1) 
0.31411199215887464

>  <r_i_glide_hbond>  (1) 
0

>  <r_i_glide_ligand_efficiency>  (1) 
-0.045847428853194351

>  <r_i_glide_ligand_efficiency_ln>  (1) 
-0.33647561612505744

>  <r_i_glide_ligand_efficiency_sa>  (1) 
-0.14705720198866207

>  <r_i_glide_lipo>  (1) 
-1.1264246119924608

>  <r_i_glide_metal>  (1) 
-0

>  <r_i_glide_rewards>  (1) 
-0.86149030828128281

>  <r_lp_Energy>  (1) 
39.739995999999998

>  <s_epik_Chemistry_Notes>  (1) 
This compound has an ester and may undergo hydrolysis at high or low pH. This compound contains an acetal/aminal-like group ( X-CH(R)-Y where X, Y are N, S, or O) that may be acid/base labile, releasing an aldehyde. This compound has a N-S or N-O group and may undergo hydrolysis at high or low pH.

>  <s_epik_cmdline>  (1) 
J2VwaWtfcHl0aG9uJywgJy1waHQnLCAnMS4wJywgJy1waCcsICc3LjQnLCAnLXRuJywgJzgnLCAnLW1hJywgJzUwMCcsICctaW1hZScsICc8aW5maWxlLm1hZT4nLCAnLW9tYWUnLCAnPG91dGZpbGUubWFlPic=

>  <s_epik_input>  (1) 
W0NIM11PTjFbQ0BIXShGKVtDQEBIXShbQ0gyXVtDSDJdMSlDKD1PKU4oW0NIM10pW0NASF0yW0NIMl1DMjNPW0NAQEhdKFtPSF0pW0NASF0oW0NASF0zW0NASF00W0NIMl1bTkhdNClbTkhdW0NIMl1bQ0gyXVtDSDJdQyg9TylPW0NIMl1bQ0gyXVtPSF0=

>  <s_glide_docking_method>  (1) 
confgen

>  <s_i_glide_gridfile>  (1) 
gpcr_drd2_6luq_protein_autoprepared_prepared

>  <s_lp_Force_Field>  (1) 
S-OPLS

>  <s_lp_Variant>  (1) 
DiffSBDD_8-5

>  <s_m_source_file>  (1) 
generated_generic_title2_ligand_DiffSBDD_2026-06-23_prepared.sdf

>  <GenAI_Model>  (1) 
DiffSBDD

>  <Protein>  (1) 
generic_title2

$$$$
DiffSBDD_20
     RDKit          3D

  0  0  0  0  0  0  0  0  0  0999 V3000
M  V30 BEGIN CTAB
M  V30 COUNTS 71 73 0 0 1
M  V30 BEGIN ATOM
M  V30 1 C 15.582966 5.624933 -18.262112 0
M  V30 2 C 13.194663 0.750459 -22.088619 0
M  V30 3 C 14.373827 1.154414 -18.359574 0 CFG=2
M  V30 4 C 16.055442 4.591481 -18.967647 0
M  V30 5 C 14.365190 5.621166 -17.427026 0 CFG=1
M  V30 6 C 6.921322 3.363986 -19.156372 0
M  V30 7 C 9.361966 5.292541 -20.599665 0 CFG=1
M  V30 8 F 13.278590 5.783070 -18.181525 0
M  V30 9 C 11.520153 3.880344 -20.652022 0
M  V30 10 O 7.577858 5.406403 -18.198787 0
M  V30 11 C 12.838434 0.951000 -18.479878 0
M  V30 12 C 10.007191 3.908957 -20.310580 0 CFG=2
M  V30 13 C 5.397798 7.005646 -19.349425 0
M  V30 14 C 15.509940 3.224593 -19.012646 0
M  V30 15 C 14.742568 2.604058 -18.067955 0
M  V30 16 C 14.310717 3.193674 -16.785027 0
M  V30 17 C 7.797160 5.355506 -20.627773 0 CFG=2
M  V30 18 C 14.941539 -0.460312 -20.502640 0
M  V30 19 N 12.056803 2.095041 -19.017817 0 CHG=1
M  V30 20 C 13.643913 -0.516416 -21.342652 0
M  V30 21 C 4.575495 4.882170 -20.439186 0
M  V30 22 C 12.277849 2.547518 -20.413776 0 CFG=1
M  V30 23 O 9.376475 2.921661 -21.095364 0
M  V30 24 C 6.962208 4.897075 -19.370342 0 CFG=1
M  V30 25 S 15.940686 2.218368 -20.372960 0
M  V30 26 C 14.175408 4.493462 -16.493195 0
M  V30 27 C 5.499261 5.465022 -19.349916 0
M  V30 28 C 11.970167 1.467970 -21.480565 0
M  V30 29 C 15.281057 0.727211 -19.563858 0 CFG=1
M  V30 30 O 7.352745 4.677417 -21.789560 0
M  V30 31 N 9.901387 6.332733 -19.706013 0
M  V30 32 H 16.092277 6.575115 -18.336948 0
M  V30 33 H 12.890928 0.426465 -23.085381 0
M  V30 34 H 14.021009 1.434518 -22.274382 0
M  V30 35 H 14.694126 0.555071 -17.504974 0
M  V30 36 H 16.922082 4.785501 -19.583460 0
M  V30 37 H 14.417485 6.519756 -16.810425 0
M  V30 38 H 6.627100 2.832068 -20.060837 0
M  V30 39 H 6.201805 3.090190 -18.385029 0
M  V30 40 H 7.874367 2.952096 -18.835758 0
M  V30 41 H 9.682928 5.558770 -21.608129 0
M  V30 42 H 11.664022 4.190689 -21.688186 0
M  V30 43 H 12.017530 4.649567 -20.062626 0
M  V30 44 H 7.030596 5.194997 -17.457296 0
M  V30 45 H 12.572564 0.017879 -18.960719 0
M  V30 46 H 12.460970 0.827214 -17.463884 0
M  V30 47 H 9.867984 3.667590 -19.258125 0
M  V30 48 H 5.684970 7.438888 -20.306840 0
M  V30 49 H 6.019949 7.455769 -18.576645 0
M  V30 50 H 4.373198 7.323598 -19.154011 0
M  V30 51 H 14.062792 2.498394 -15.995773 0
M  V30 52 H 7.565114 6.403105 -20.812694 0
M  V30 53 H 14.975406 -1.375086 -19.909369 0
M  V30 54 H 15.777938 -0.557378 -21.196520 0
M  V30 55 H 11.076370 1.865056 -18.933587 0
M  V30 56 H 12.815658 -0.942192 -20.785025 0
M  V30 57 H 13.826726 -1.279173 -22.101252 0
M  V30 58 H 4.854883 5.222990 -21.435289 0
M  V30 59 H 3.545835 5.190186 -20.277656 0
M  V30 60 H 4.575408 3.793034 -20.443552 0
M  V30 61 H 13.319311 2.819773 -20.522769 0
M  V30 62 H 8.518983 3.257118 -21.343987 0
M  V30 63 H 13.843436 4.764965 -15.501487 0
M  V30 64 H 5.061762 5.154406 -18.400402 0
M  V30 65 H 11.487832 1.963411 -22.323969 0
M  V30 66 H 11.225852 0.754657 -21.124258 0
M  V30 67 H 16.187251 0.373118 -19.068896 0
M  V30 68 H 7.582618 5.198592 -22.545582 0
M  V30 69 H 9.424049 6.276763 -18.802506 0
M  V30 70 H 10.898257 6.205867 -19.537859 0
M  V30 71 H 12.245357 2.885730 -18.416835 0
M  V30 END ATOM
M  V30 BEGIN BOND
M  V30 1 2 4 1
M  V30 2 1 5 1
M  V30 3 1 8 5
M  V30 4 1 11 3
M  V30 5 1 12 7
M  V30 6 1 12 9
M  V30 7 1 14 4
M  V30 8 1 15 3
M  V30 9 2 15 14
M  V30 10 1 16 15
M  V30 11 1 17 7
M  V30 12 1 19 11
M  V30 13 1 20 2
M  V30 14 1 20 18
M  V30 15 1 22 9
M  V30 16 1 22 19
M  V30 17 1 23 12
M  V30 18 1 24 6
M  V30 19 1 24 10 CFG=1
M  V30 20 1 24 17
M  V30 21 1 25 14
M  V30 22 1 26 5
M  V30 23 2 26 16
M  V30 24 1 27 13
M  V30 25 1 27 21
M  V30 26 1 27 24
M  V30 27 1 28 2
M  V30 28 1 28 22
M  V30 29 1 29 3
M  V30 30 1 29 18
M  V30 31 1 29 25
M  V30 32 1 30 17
M  V30 33 1 31 7
M  V30 34 1 32 1
M  V30 35 1 33 2
M  V30 36 1 34 2
M  V30 37 1 3 35 CFG=1
M  V30 38 1 36 4
M  V30 39 1 5 37 CFG=1
M  V30 40 1 38 6
M  V30 41 1 39 6
M  V30 42 1 40 6
M  V30 43 1 7 41 CFG=3
M  V30 44 1 42 9
M  V30 45 1 43 9
M  V30 46 1 44 10
M  V30 47 1 45 11
M  V30 48 1 46 11
M  V30 49 1 12 47 CFG=1
M  V30 50 1 48 13
M  V30 51 1 49 13
M  V30 52 1 50 13
M  V30 53 1 51 16
M  V30 54 1 17 52 CFG=3
M  V30 55 1 53 18
M  V30 56 1 54 18
M  V30 57 1 55 19
M  V30 58 1 56 20
M  V30 59 1 57 20
M  V30 60 1 58 21
M  V30 61 1 59 21
M  V30 62 1 60 21
M  V30 63 1 22 61 CFG=1
M  V30 64 1 62 23
M  V30 65 1 63 26
M  V30 66 1 64 27
M  V30 67 1 65 28
M  V30 68 1 66 28
M  V30 69 1 29 67 CFG=1
M  V30 70 1 68 30
M  V30 71 1 69 31
M  V30 72 1 70 31
M  V30 73 1 71 19
M  V30 END BOND
M  V30 END CTAB
M  END
>  <i_epik_Tot_Q>  (1) 
1

>  <i_epik_Tot_abs_Q>  (1) 
1

>  <i_i_glide_confnum>  (1) 
47

>  <i_i_glide_lignum>  (1) 
67

>  <i_i_glide_posenum>  (1) 
382

>  <i_i_glide_rotatable_bonds>  (1) 
9

>  <i_lp_mmshare_version>  (1) 
72125

>  <i_m_source_file_index>  (1) 
21

>  <i_f3d_flags>  (1) 
0

>  <num_sample>  (1) 
50

>  <b_lp_Chiralities_Consistent>  (1) 
1

>  <r_epik_Charging_Adjusted_Penalty>  (1) 
1.0900107648315034

>  <r_epik_Ionization_Penalty>  (1) 
1.0648013143729294

>  <r_epik_Ionization_Penalty_Charging>  (1) 
0.018420486395911647

>  <r_epik_Ionization_Penalty_Neutral>  (1) 
1.0463808279770177

>  <r_epik_State_Penalty>  (1) 
1.0715902784355917

>  <r_glide_ring_energy>  (1) 
0

>  <r_i_docking_score>  (1) 
-1.3635499365733865

>  <r_i_glide_ecoul>  (1) 
-1.6506396306441942

>  <r_i_glide_eff_state_penalty>  (1) 
1.0715902784355917

>  <r_i_glide_einternal>  (1) 
4.7347458403260312

>  <r_i_glide_emodel>  (1) 
-23.514092596978081

>  <r_i_glide_emodel_strain>  (1) 
0.60398069601254178

>  <r_i_glide_energy>  (1) 
-22.207762961325031

>  <r_i_glide_erotb>  (1) 
0.38705737007943358

>  <r_i_glide_esite>  (1) 
0

>  <r_i_glide_evdw>  (1) 
-20.557123330680838

>  <r_i_glide_gscore>  (1) 
-2.4351402150089783

>  <r_i_glide_gscore_strain>  (1) 
0

>  <r_i_glide_hbond>  (1) 
0

>  <r_i_glide_ligand_efficiency>  (1) 
-0.04398548182494795

>  <r_i_glide_ligand_efficiency_ln>  (1) 
-0.30752229848433121

>  <r_i_glide_ligand_efficiency_sa>  (1) 
-0.13817514159100477

>  <r_i_glide_lipo>  (1) 
-1.2256437462911323

>  <r_i_glide_metal>  (1) 
-0

>  <r_i_glide_rewards>  (1) 
-0.32110172766660888

>  <r_lp_Energy>  (1) 
51.224616999999995

>  <s_epik_cmdline>  (1) 
J2VwaWtfcHl0aG9uJywgJy1waHQnLCAnMS4wJywgJy1waCcsICc3LjQnLCAnLXRuJywgJzgnLCAnLW1hJywgJzUwMCcsICctaW1hZScsICc8aW5maWxlLm1hZT4nLCAnLW9tYWUnLCAnPG91dGZpbGUubWFlPic=

>  <s_epik_input>  (1) 
W0NIXTE9W0NIXVtDQEhdKEYpW0NIXT1bQ0hdQyg9QzFbQ0BASF0yMylTW0NAQEhdM1tDSDJdW0NIMl1bQ0gyXVtDSDJdW0NASF0oW05IXVtDSDJdMilbQ0gyXVtDQEhdKFtPSF0pW0NASF0oW05IMl0pW0NAQEhdKFtPSF0pW0NAQF0oW0NIM10pKFtPSF0pW0NIXShbQ0gzXSlbQ0gzXQ==

>  <s_glide_docking_method>  (1) 
confgen

>  <s_i_glide_gridfile>  (1) 
gpcr_drd2_6luq_protein_autoprepared_prepared

>  <s_lp_Force_Field>  (1) 
S-OPLS

>  <s_lp_Variant>  (1) 
DiffSBDD_20-4

>  <s_m_source_file>  (1) 
generated_generic_title2_ligand_DiffSBDD_2026-06-23_prepared.sdf

>  <GenAI_Model>  (1) 
DiffSBDD

>  <Protein>  (1) 
generic_title2

$$$$
DiffSBDD_41
     RDKit          3D

  0  0  0  0  0  0  0  0  0  0999 V3000
M  V30 BEGIN CTAB
M  V30 COUNTS 77 81 0 0 1
M  V30 BEGIN ATOM
M  V30 1 C 14.586520 6.300351 -17.507573 0
M  V30 2 C 10.208408 5.507082 -17.572814 0
M  V30 3 C 11.019666 0.549638 -21.644262 0
M  V30 4 C 15.469799 5.059933 -17.421128 0
M  V30 5 C 7.057323 -6.064611 -17.912238 0
M  V30 6 C 7.697309 -4.945821 -17.354333 0
M  V30 7 C 7.072019 -3.597743 -19.302095 0
M  V30 8 C 6.436062 -4.748839 -19.872101 0
M  V30 9 C 11.092895 4.518427 -18.381774 0 CFG=1
M  V30 10 C 7.831596 -0.043333 -19.109771 0
M  V30 11 C 15.455540 7.511101 -17.823408 0
M  V30 12 C 6.432770 -5.968000 -19.167303 0
M  V30 13 C 7.711809 -3.718533 -18.041983 0
M  V30 14 C 10.572721 4.030509 -19.780262 0 CFG=2
M  V30 15 C 6.043549 -1.868886 -20.752144 0
M  V30 16 N 7.094168 -2.308994 -20.000481 0
M  V30 17 C 12.593137 4.915551 -18.595377 0 CFG=2
M  V30 18 C 8.959460 0.723111 -18.348287 0
M  V30 19 C 11.872102 3.666105 -20.526210 0
M  V30 20 C 12.643817 7.466700 -18.823691 0
M  V30 21 C 9.877134 5.179079 -20.551779 0
M  V30 22 C 8.245714 -1.390877 -19.806686 0 CFG=1
M  V30 23 O 4.975365 -2.459666 -20.874156 0
M  V30 24 C 13.142939 6.250591 -18.036471 0 CFG=2
M  V30 25 C 8.912636 4.907448 -17.009312 0
M  V30 26 C 9.031749 -1.264672 -21.152421 0
M  V30 27 C 9.616816 0.107285 -21.310894 0 CFG=1
M  V30 28 C 12.906915 4.687197 -20.079159 0
M  V30 29 C 13.416237 6.418153 -16.556085 0
M  V30 30 C 10.579516 0.448449 -20.200955 0 CFG=2
M  V30 31 F 5.869580 -4.696338 -21.099249 0
M  V30 32 C 9.568030 2.832649 -19.746681 0
M  V30 33 C 10.046997 1.453917 -19.190723 0 CFG=1
M  V30 34 H 10.777512 5.865761 -16.716538 0
M  V30 35 H 9.955990 6.390211 -18.152653 0
M  V30 36 H 11.123373 1.529153 -22.100372 0
M  V30 37 H 11.704331 -0.209006 -22.017999 0
M  V30 38 H 14.952202 4.231040 -16.939746 0
M  V30 39 H 15.782187 4.749057 -18.418380 0
M  V30 40 H 16.360554 5.261737 -16.825668 0
M  V30 41 H 7.049814 -7.002944 -17.377541 0
M  V30 42 H 8.175419 -5.025116 -16.389393 0
M  V30 43 H 11.143009 3.641951 -17.737291 0
M  V30 44 H 7.332198 0.627380 -19.809541 0
M  V30 45 H 7.074273 -0.284021 -18.361895 0
M  V30 46 H 14.932305 8.443317 -17.610852 0
M  V30 47 H 16.369607 7.503090 -17.229593 0
M  V30 48 H 15.736666 7.503638 -18.876795 0
M  V30 49 H 5.954681 -6.835163 -19.597635 0
M  V30 50 H 8.195117 -2.867868 -17.588955 0
M  V30 51 H 6.274235 -0.900367 -21.222507 0
M  V30 52 H 13.127650 4.122048 -18.077406 0
M  V30 53 H 8.498060 1.442553 -17.670848 0
M  V30 54 H 9.456699 0.011141 -17.688003 0
M  V30 55 H 12.230267 2.682389 -20.226677 0
M  V30 56 H 11.756145 3.659132 -21.610092 0
M  V30 57 H 12.736596 8.386484 -18.243145 0
M  V30 58 H 13.232997 7.597935 -19.730834 0
M  V30 59 H 11.602965 7.371303 -19.114186 0
M  V30 60 H 10.493901 6.073992 -20.613660 0
M  V30 61 H 9.644844 4.884595 -21.575682 0
M  V30 62 H 8.934246 5.463719 -20.084819 0
M  V30 63 H 8.975417 -1.836624 -19.142352 0
M  V30 64 H 8.464791 5.585991 -16.283055 0
M  V30 65 H 8.169418 4.744813 -17.787563 0
M  V30 66 H 9.095683 3.959641 -16.502402 0
M  V30 67 H 9.827870 -2.009561 -21.193139 0
M  V30 68 H 8.408745 -1.452502 -22.026823 0
M  V30 69 H 8.861058 0.827593 -21.609680 0
M  V30 70 H 13.927738 4.337217 -20.235496 0
M  V30 71 H 12.784059 5.593224 -20.669825 0
M  V30 72 H 13.219295 7.392153 -16.111537 0
M  V30 73 H 13.197750 5.570356 -15.909104 0
M  V30 74 H 11.043763 -0.394506 -19.692174 0
M  V30 75 H 9.161873 2.711788 -20.746907 0
M  V30 76 H 8.703971 3.146011 -19.167336 0
M  V30 77 H 10.867571 1.647383 -18.502229 0
M  V30 END ATOM
M  V30 BEGIN BOND
M  V30 1 1 4 1
M  V30 2 2 6 5
M  V30 3 1 8 7
M  V30 4 1 9 2
M  V30 5 1 11 1
M  V30 6 1 12 5
M  V30 7 2 12 8
M  V30 8 1 13 6
M  V30 9 2 13 7
M  V30 10 1 14 9
M  V30 11 1 16 7
M  V30 12 1 16 15
M  V30 13 1 17 9
M  V30 14 1 18 10
M  V30 15 1 19 14
M  V30 16 1 14 21 CFG=3
M  V30 17 1 22 10
M  V30 18 1 22 16
M  V30 19 2 23 15
M  V30 20 1 24 1
M  V30 21 1 24 17
M  V30 22 1 24 20 CFG=3
M  V30 23 1 25 2
M  V30 24 1 26 22
M  V30 25 1 27 3
M  V30 26 1 27 26
M  V30 27 1 28 17
M  V30 28 1 28 19
M  V30 29 1 29 1
M  V30 30 1 29 24
M  V30 31 1 30 3
M  V30 32 1 30 27
M  V30 33 1 31 8
M  V30 34 1 32 14
M  V30 35 1 33 18
M  V30 36 1 33 30
M  V30 37 1 33 32
M  V30 38 1 34 2
M  V30 39 1 35 2
M  V30 40 1 36 3
M  V30 41 1 37 3
M  V30 42 1 38 4
M  V30 43 1 39 4
M  V30 44 1 40 4
M  V30 45 1 41 5
M  V30 46 1 42 6
M  V30 47 1 9 43 CFG=1
M  V30 48 1 44 10
M  V30 49 1 45 10
M  V30 50 1 46 11
M  V30 51 1 47 11
M  V30 52 1 48 11
M  V30 53 1 49 12
M  V30 54 1 50 13
M  V30 55 1 51 15
M  V30 56 1 17 52 CFG=1
M  V30 57 1 53 18
M  V30 58 1 54 18
M  V30 59 1 55 19
M  V30 60 1 56 19
M  V30 61 1 57 20
M  V30 62 1 58 20
M  V30 63 1 59 20
M  V30 64 1 60 21
M  V30 65 1 61 21
M  V30 66 1 62 21
M  V30 67 1 22 63 CFG=1
M  V30 68 1 64 25
M  V30 69 1 65 25
M  V30 70 1 66 25
M  V30 71 1 67 26
M  V30 72 1 68 26
M  V30 73 1 27 69 CFG=3
M  V30 74 1 70 28
M  V30 75 1 71 28
M  V30 76 1 72 29
M  V30 77 1 73 29
M  V30 78 1 30 74 CFG=1
M  V30 79 1 75 32
M  V30 80 1 76 32
M  V30 81 1 33 77 CFG=1
M  V30 END BOND
M  V30 END CTAB
M  END
>  <i_epik_Tot_Q>  (1) 
0

>  <i_epik_Tot_abs_Q>  (1) 
0

>  <i_i_glide_confnum>  (1) 
118

>  <i_i_glide_lignum>  (1) 
116

>  <i_i_glide_posenum>  (1) 
62

>  <i_i_glide_rotatable_bonds>  (1) 
7

>  <i_lp_mmshare_version>  (1) 
72125

>  <i_m_source_file_index>  (1) 
42

>  <i_f3d_flags>  (1) 
0

>  <num_sample>  (1) 
50

>  <b_lp_Chiralities_Consistent>  (1) 
1

>  <r_epik_Charging_Adjusted_Penalty>  (1) 
0

>  <r_epik_Ionization_Penalty>  (1) 
1.2096700552292907e-05

>  <r_epik_Ionization_Penalty_Charging>  (1) 
0

>  <r_epik_Ionization_Penalty_Neutral>  (1) 
1.2096700552292907e-05

>  <r_epik_State_Penalty>  (1) 
-0

>  <r_glide_ring_energy>  (1) 
0.29128280038351462

>  <r_i_docking_score>  (1) 
-1.3625695121169745

>  <r_i_glide_ecoul>  (1) 
-0.12569525262232356

>  <r_i_glide_eff_state_penalty>  (1) 
-0

>  <r_i_glide_einternal>  (1) 
3.1043190960066624

>  <r_i_glide_emodel>  (1) 
-18.611910637922463

>  <r_i_glide_emodel_strain>  (1) 
0.35974412636346642

>  <r_i_glide_energy>  (1) 
-19.552893827231667

>  <r_i_glide_erotb>  (1) 
0.48765284155676775

>  <r_i_glide_esite>  (1) 
-0.0035032720084239425

>  <r_i_glide_evdw>  (1) 
-19.427198574609342

>  <r_i_glide_gscore>  (1) 
-1.3625695121169745

>  <r_i_glide_gscore_strain>  (1) 
0

>  <r_i_glide_hbond>  (1) 
0

>  <r_i_glide_ligand_efficiency>  (1) 
-0.041289985215665896

>  <r_i_glide_ligand_efficiency_ln>  (1) 
-0.30302840448745727

>  <r_i_glide_ligand_efficiency_sa>  (1) 
-0.13243904506426848

>  <r_i_glide_lipo>  (1) 
-0.54075268322331949

>  <r_i_glide_metal>  (1) 
-0

>  <r_i_glide_rewards>  (1) 
-0.31575218181818332

>  <r_lp_Energy>  (1) 
75.135584999999992

>  <r_lp_tautomer_probability>  (1) 
1

>  <s_epik_cmdline>  (1) 
J2VwaWtfcHl0aG9uJywgJy1waHQnLCAnMS4wJywgJy1waCcsICc3LjQnLCAnLXRuJywgJzgnLCAnLW1hJywgJzUwMCcsICctaW1hZScsICc8aW5maWxlLm1hZT4nLCAnLW9tYWUnLCAnPG91dGZpbGUubWFlPic=

>  <s_epik_input>  (1) 
W0NIM11DMShbQ0gzXSlbQ0BAXShbQ0gzXSkoW0NIMl0xKVtDQEhdKFtDSDJdW0NIMl0yKVtDQEBIXShbQ0gyXVtDSDNdKVtDQF0yKFtDSDNdKVtDSDJdW0NASF0oW0NASF0oW0NIMl0zKVtDQEBIXTM0KVtDSDJdW0NIMl1bQ0BIXShbQ0gyXTQpTihbQ0hdPU8pYzVjKEYpW2NIXVtjSF1bY0hdW2NIXTU=

>  <s_glide_docking_method>  (1) 
confgen

>  <s_i_glide_gridfile>  (1) 
gpcr_drd2_6luq_protein_autoprepared_prepared

>  <s_lp_Force_Field>  (1) 
S-OPLS

>  <s_lp_Variant>  (1) 
DiffSBDD_41-1

>  <s_m_source_file>  (1) 
generated_generic_title2_ligand_DiffSBDD_2026-06-23_prepared.sdf

>  <GenAI_Model>  (1) 
DiffSBDD

>  <Protein>  (1) 
generic_title2

$$$$
DiffSBDD_43
     RDKit          3D

  0  0  0  0  0  0  0  0  0  0999 V3000
M  V30 BEGIN CTAB
M  V30 COUNTS 77 81 0 0 1
M  V30 BEGIN ATOM
M  V30 1 N 8.610082 7.014467 -12.247663 0
M  V30 2 C 8.405660 5.575446 -11.943502 0 CFG=1
M  V30 3 C 11.454498 8.602132 -2.352900 0
M  V30 4 C 7.932005 4.258364 -14.589303 0 CFG=1
M  V30 5 C 11.563039 8.253417 -7.136572 0 CFG=2
M  V30 6 Cl 10.575416 10.229371 -5.170244 0
M  V30 7 C 8.659305 3.251571 -16.887645 0
M  V30 8 C 10.836478 6.523248 -3.836175 0
M  V30 9 N 6.974939 5.096730 -13.910428 0
M  V30 10 C 10.893552 9.017124 -8.277264 0
M  V30 11 C 7.689698 4.071499 -16.042926 0
M  V30 12 O 7.417081 7.795016 -11.984911 0
M  V30 13 C 12.047357 9.290993 -3.546313 0 CFG=1
M  V30 14 C 12.185796 8.906963 -10.274393 0
M  V30 15 C 6.995461 5.213122 -16.709006 0
M  V30 16 C 13.375413 8.968002 -3.510867 0
M  V30 17 C 11.215719 7.380366 -5.048948 0 CFG=1
M  V30 18 O 9.256000 7.677468 -6.384874 0
M  V30 19 C 10.625300 5.862448 -7.073295 0
M  V30 20 C 9.770064 7.767310 -11.760726 0
M  V30 21 C 10.604990 7.254394 -6.418677 0 CFG=1
M  V30 22 C 11.375817 7.051668 -2.478928 0
M  V30 23 C 7.026273 5.038723 -12.443887 0
M  V30 24 C 11.558698 8.878955 -4.923486 0 CFG=1
M  V30 25 C 6.185021 6.013634 -14.543260 0
M  V30 26 N 11.026168 8.350968 -9.578472 0
M  V30 27 O 12.191316 9.074434 -6.165836 0
M  V30 28 C 9.525897 4.826492 -12.718248 0
M  V30 29 C 7.306377 2.691479 -16.563437 0
M  V30 30 O 12.579603 7.590208 -7.755273 0
M  V30 31 N 6.276899 6.051679 -15.911845 0
M  V30 32 C 9.302241 4.872812 -14.248367 0
M  V30 33 O 7.046318 5.376324 -17.927250 0
M  V30 34 C 8.525092 5.282164 -10.439949 0
M  V30 35 C 9.740157 8.264251 -10.295101 0
M  V30 36 O 5.445098 6.775325 -13.930246 0
M  V30 37 H 11.936991 8.876744 -1.411958 0
M  V30 38 H 10.575645 9.190213 -2.379672 0
M  V30 39 H 7.887189 3.268982 -14.129282 0
M  V30 40 H 8.842452 3.546337 -17.920112 0
M  V30 41 H 9.512518 2.799390 -16.388953 0
M  V30 42 H 11.233805 5.533339 -3.989682 0
M  V30 43 H 9.775062 6.377032 -3.803738 0
M  V30 44 H 11.378530 9.987999 -8.322039 0
M  V30 45 H 9.846592 9.190163 -8.042595 0
M  V30 46 H 7.330190 7.752469 -11.025353 0
M  V30 47 H 11.984889 10.356676 -3.333458 0
M  V30 48 H 13.098309 8.790365 -9.694492 0
M  V30 49 H 12.405771 8.376983 -11.185096 0
M  V30 50 H 12.107657 9.984656 -10.384993 0
M  V30 51 H 13.588719 7.923336 -3.732481 0
M  V30 52 H 13.899627 9.590365 -4.241587 0
M  V30 53 H 13.775046 9.189935 -2.522103 0
M  V30 54 H 12.175199 6.900155 -5.185960 0
M  V30 55 H 8.767353 7.281263 -7.094869 0
M  V30 56 H 11.538228 5.315637 -6.824266 0
M  V30 57 H 9.763710 5.268765 -6.784823 0
M  V30 58 H 10.565663 5.928893 -8.156125 0
M  V30 59 H 10.688755 7.230254 -11.979416 0
M  V30 60 H 9.775690 8.658051 -12.384899 0
M  V30 61 H 12.377112 6.646568 -2.326789 0
M  V30 62 H 10.781830 6.640510 -1.660512 0
M  V30 63 H 6.908461 3.993929 -12.151317 0
M  V30 64 H 6.193827 5.546560 -11.951262 0
M  V30 65 H 10.515815 5.202864 -12.466125 0
M  V30 66 H 9.544058 3.782102 -12.406482 0
M  V30 67 H 7.256788 1.872312 -15.848999 0
M  V30 68 H 6.584055 2.623505 -17.378640 0
M  V30 69 H 12.324285 7.598463 -8.673014 0
M  V30 70 H 5.749970 6.773778 -16.376638 0
M  V30 71 H 10.123948 4.390446 -14.766178 0
M  V30 72 H 9.323976 5.899513 -14.599974 0
M  V30 73 H 8.325718 4.234187 -10.226561 0
M  V30 74 H 9.529489 5.483229 -10.074059 0
M  V30 75 H 7.809938 5.860994 -9.855501 0
M  V30 76 H 9.185588 9.190261 -10.253877 0
M  V30 77 H 9.106612 7.609466 -9.703000 0
M  V30 END ATOM
M  V30 BEGIN BOND
M  V30 1 1 2 1 CFG=1
M  V30 2 1 9 4
M  V30 3 1 10 5
M  V30 4 1 11 4
M  V30 5 1 11 7
M  V30 6 1 12 1
M  V30 7 1 13 3
M  V30 8 1 15 11
M  V30 9 1 16 13
M  V30 10 1 17 8
M  V30 11 1 20 1
M  V30 12 1 21 5
M  V30 13 1 21 17
M  V30 14 1 21 18 CFG=1
M  V30 15 1 21 19
M  V30 16 1 22 3
M  V30 17 1 22 8
M  V30 18 1 23 2
M  V30 19 1 23 9
M  V30 20 1 24 6 CFG=3
M  V30 21 1 24 13
M  V30 22 1 24 17
M  V30 23 1 25 9
M  V30 24 1 26 10
M  V30 25 1 26 14
M  V30 26 1 27 5
M  V30 27 1 27 24
M  V30 28 1 28 2
M  V30 29 1 29 7
M  V30 30 1 29 11
M  V30 31 1 5 30 CFG=3
M  V30 32 1 31 15
M  V30 33 1 31 25
M  V30 34 1 32 4
M  V30 35 1 32 28
M  V30 36 2 33 15
M  V30 37 1 34 2
M  V30 38 1 35 20
M  V30 39 1 35 26
M  V30 40 2 36 25
M  V30 41 1 37 3
M  V30 42 1 38 3
M  V30 43 1 4 39 CFG=1
M  V30 44 1 40 7
M  V30 45 1 41 7
M  V30 46 1 42 8
M  V30 47 1 43 8
M  V30 48 1 44 10
M  V30 49 1 45 10
M  V30 50 1 46 12
M  V30 51 1 13 47 CFG=1
M  V30 52 1 48 14
M  V30 53 1 49 14
M  V30 54 1 50 14
M  V30 55 1 51 16
M  V30 56 1 52 16
M  V30 57 1 53 16
M  V30 58 1 17 54 CFG=3
M  V30 59 1 55 18
M  V30 60 1 56 19
M  V30 61 1 57 19
M  V30 62 1 58 19
M  V30 63 1 59 20
M  V30 64 1 60 20
M  V30 65 1 61 22
M  V30 66 1 62 22
M  V30 67 1 63 23
M  V30 68 1 64 23
M  V30 69 1 65 28
M  V30 70 1 66 28
M  V30 71 1 67 29
M  V30 72 1 68 29
M  V30 73 1 69 30
M  V30 74 1 70 31
M  V30 75 1 71 32
M  V30 76 1 72 32
M  V30 77 1 73 34
M  V30 78 1 74 34
M  V30 79 1 75 34
M  V30 80 1 76 35
M  V30 81 1 77 35
M  V30 END BOND
M  V30 END CTAB
M  END
>  <i_epik_Tot_Q>  (1) 
0

>  <i_epik_Tot_abs_Q>  (1) 
0

>  <i_i_glide_confnum>  (1) 
467

>  <i_i_glide_lignum>  (1) 
119

>  <i_i_glide_posenum>  (1) 
119

>  <i_i_glide_rotatable_bonds>  (1) 
9

>  <i_lp_mmshare_version>  (1) 
72125

>  <i_m_source_file_index>  (1) 
44

>  <i_f3d_flags>  (1) 
0

>  <num_sample>  (1) 
50

>  <b_lp_Chiralities_Consistent>  (1) 
1

>  <r_epik_Charging_Adjusted_Penalty>  (1) 
0.81934097425721464

>  <r_epik_Ionization_Penalty>  (1) 
0.82652016500404379

>  <r_epik_Ionization_Penalty_Charging>  (1) 
0

>  <r_epik_Ionization_Penalty_Neutral>  (1) 
0.82652016500404379

>  <r_epik_State_Penalty>  (1) 
0.81934097425721464

>  <r_glide_ring_energy>  (1) 
0

>  <r_i_docking_score>  (1) 
-1.0528177207572258

>  <r_i_glide_ecoul>  (1) 
-8.9539368976653559

>  <r_i_glide_eff_state_penalty>  (1) 
0.81934097425721464

>  <r_i_glide_einternal>  (1) 
22.15997785254855

>  <r_i_glide_emodel>  (1) 
21.244929693485066

>  <r_i_glide_emodel_strain>  (1) 
16.361463043549861

>  <r_i_glide_energy>  (1) 
-2.9328941183203696

>  <r_i_glide_erotb>  (1) 
0.44165943493852455

>  <r_i_glide_esite>  (1) 
-0.13823159587920678

>  <r_i_glide_evdw>  (1) 
6.0210427793449863

>  <r_i_glide_gscore>  (1) 
-1.8721586950144404

>  <r_i_glide_gscore_strain>  (1) 
3.0903657608874653

>  <r_i_glide_hbond>  (1) 
-0.16

>  <r_i_glide_ligand_efficiency>  (1) 
-0.029244936687700715

>  <r_i_glide_ligand_efficiency_ln>  (1) 
-0.22969638282150345

>  <r_i_glide_ligand_efficiency_sa>  (1) 
-0.096564653341317183

>  <r_i_glide_lipo>  (1) 
-2.7745526709308233

>  <r_i_glide_metal>  (1) 
-0

>  <r_i_glide_rewards>  (1) 
-1.2893612283478471

>  <r_lp_Energy>  (1) 
49.803337999999997

>  <r_lp_tautomer_probability>  (1) 
0.99999999996150013

>  <s_epik_Chemistry_Notes>  (1) 
This compound has a N-S or N-O group and may undergo hydrolysis at high or low pH.

>  <s_epik_cmdline>  (1) 
J2VwaWtfcHl0aG9uJywgJy1waHQnLCAnMS4wJywgJy1waCcsICc3LjQnLCAnLXRuJywgJzgnLCAnLW1hJywgJzUwMCcsICctaW1hZScsICc8aW5maWxlLm1hZT4nLCAnLW9tYWUnLCAnPG91dGZpbGUubWFlPic=

>  <s_epik_input>  (1) 
W0NIMl0xW0NIMl1DMTJbQ0BASF0zTihDKD1PKVtOSF1DMj1PKVtDSDJdW0NAQF0oW0NIM10pKFtDSDJdW0NIMl0zKU4oW09IXSlbQ0gyXVtDSDJdTihbQ0gzXSlbQ0gyXVtDQF0oTzQpKFtPSF0pW0NAQF0oW09IXSkoW0NIM10pW0NAQEhdKFtDQF00NUNsKVtDSDJdW0NIMl1bQ0gyXVtDQEhdNVtDSDNd

>  <s_glide_docking_method>  (1) 
confgen

>  <s_i_glide_gridfile>  (1) 
gpcr_drd2_6luq_protein_autoprepared_prepared

>  <s_lp_Force_Field>  (1) 
S-OPLS

>  <s_lp_Variant>  (1) 
DiffSBDD_43-3

>  <s_m_source_file>  (1) 
generated_generic_title2_ligand_DiffSBDD_2026-06-23_prepared.sdf

>  <GenAI_Model>  (1) 
DiffSBDD

>  <Protein>  (1) 
generic_title2

$$$$
DiffSBDD_28
     RDKit          3D

  0  0  0  0  0  0  0  0  0  0999 V3000
M  V30 BEGIN CTAB
M  V30 COUNTS 79 86 0 0 1
M  V30 BEGIN ATOM
M  V30 1 F 20.669527 18.543943 -16.124995 0
M  V30 2 C 18.969968 20.883790 -2.176066 0 CFG=1
M  V30 3 C 18.574030 21.383588 -5.898127 0 CFG=2
M  V30 4 C 17.829100 18.865174 -0.630626 0 CFG=2
M  V30 5 C 19.530361 22.078883 -10.389278 0 CFG=1
M  V30 6 C 20.382194 20.347707 -1.897639 0
M  V30 7 C 18.861578 20.602617 -8.306560 0 CFG=2
M  V30 8 C 19.311027 19.986107 -13.690416 0 CFG=1
M  V30 9 C 17.150989 20.991199 -5.485260 0
M  V30 10 C 19.689700 20.865387 -11.313497 0 CFG=1
M  V30 11 C 17.862906 21.632287 -0.428643 0 CFG=1
M  V30 12 C 20.646837 20.466516 -6.527265 0
M  V30 13 C 18.083735 20.286520 -1.076376 0 CFG=1
M  V30 14 O 18.380277 21.709808 0.882224 0
M  V30 15 C 20.904475 18.301325 -14.783783 0 CFG=1
M  V30 16 C 19.217216 21.955761 -8.908827 0 CFG=1
M  V30 17 O 20.550003 22.132664 -9.373252 0
M  V30 18 N 19.209460 20.450287 -6.860986 0 CFG=1 CHG=1
M  V30 19 O 16.975922 17.169936 0.890281 0
M  V30 20 C 21.846775 17.190552 -14.523129 0
M  V30 21 O 16.880088 19.590467 -1.422653 0
M  V30 22 C 19.070195 19.603552 -10.662181 0
M  V30 23 C 18.694262 22.272625 -1.546573 0
M  V30 24 N 18.566121 20.624842 -3.591425 0
M  V30 25 C 17.396414 18.522366 0.782445 0
M  V30 26 N 18.942568 20.630856 -14.970804 0 CHG=1
M  V30 27 C 19.423681 19.448112 -9.168756 0
M  V30 28 C 19.263836 22.065156 -14.868898 0
M  V30 29 C 19.522758 22.326678 -13.382319 0
M  V30 30 O 22.799929 17.352741 -13.763816 0
M  V30 31 C 20.682588 20.543469 -5.003672 0
M  V30 32 C 20.756838 19.425739 -13.767100 0
M  V30 33 O 20.575450 16.960710 -14.280386 0
M  V30 34 N 19.133485 21.079718 -12.688933 0 CFG=1 CHG=1
M  V30 35 C 17.205487 21.022018 -3.959161 0
M  V30 36 C 15.700553 16.924357 0.325340 0
M  V30 37 C 19.397850 21.291394 -4.600065 0 CFG=1
M  V30 38 H 18.609837 22.412853 -6.254153 0
M  V30 39 H 18.365512 18.084144 -1.165431 0
M  V30 40 H 19.361172 23.047868 -10.850776 0
M  V30 41 H 20.624882 20.380254 -0.834723 0
M  V30 42 H 20.491362 19.309372 -2.213078 0
M  V30 43 H 21.150880 20.940176 -2.390836 0
M  V30 44 H 17.775487 20.535199 -8.356060 0
M  V30 45 H 18.609779 19.179444 -13.478016 0
M  V30 46 H 16.894268 19.990299 -5.820515 0
M  V30 47 H 16.397494 21.672614 -5.881635 0
M  V30 48 H 20.766491 20.720762 -11.405056 0
M  V30 49 H 16.829020 21.979429 -0.449674 0
M  V30 50 H 21.124147 21.350916 -6.951291 0
M  V30 51 H 21.172692 19.585332 -6.895139 0
M  V30 52 H 19.217025 21.271161 0.882293 0
M  V30 53 H 18.781425 22.833529 -8.437013 0
M  V30 54 H 19.399003 18.706268 -11.187047 0
M  V30 55 H 17.987309 19.637110 -10.785025 0
M  V30 56 H 18.118329 22.967679 -2.154436 0
M  V30 57 H 19.595956 22.766809 -1.182151 0
M  V30 58 H 18.257351 18.652599 1.438299 0
M  V30 59 H 16.625442 19.213356 1.127746 0
M  V30 60 H 17.945051 20.541465 -15.116480 0
M  V30 61 H 20.509233 19.396511 -9.081586 0
M  V30 62 H 19.047278 18.494785 -8.795062 0
M  V30 63 H 18.429364 22.657397 -15.247514 0
M  V30 64 H 20.144701 22.302237 -15.467462 0
M  V30 65 H 18.938413 23.173866 -13.027433 0
M  V30 66 H 20.580031 22.540712 -13.214070 0
M  V30 67 H 21.587387 21.038831 -4.650408 0
M  V30 68 H 20.677286 19.530883 -4.598290 0
M  V30 69 H 21.457007 20.217768 -14.036213 0
M  V30 70 H 21.079796 19.050342 -12.796380 0
M  V30 71 H 16.445227 20.364593 -3.543510 0
M  V30 72 H 16.981525 22.034515 -3.629290 0
M  V30 73 H 15.454204 15.866141 0.415081 0
M  V30 74 H 14.934829 17.492633 0.851464 0
M  V30 75 H 15.670347 17.190180 -0.732201 0
M  V30 76 H 19.635499 22.305106 -4.272144 0
M  V30 77 H 18.887858 19.534226 -6.580630 0
M  V30 78 H 19.420716 20.202480 -15.754429 0
M  V30 79 H 18.134262 21.161404 -12.557342 0
M  V30 END ATOM
M  V30 BEGIN BOND
M  V30 1 1 2 6 CFG=3
M  V30 2 1 9 3
M  V30 3 1 10 5
M  V30 4 1 13 2
M  V30 5 1 13 4
M  V30 6 1 13 11
M  V30 7 1 14 11
M  V30 8 1 15 1 CFG=3
M  V30 9 1 16 5
M  V30 10 1 16 7
M  V30 11 1 17 5
M  V30 12 1 17 16
M  V30 13 1 18 3
M  V30 14 1 18 7
M  V30 15 1 18 12
M  V30 16 1 20 15
M  V30 17 1 21 4
M  V30 18 1 13 21 CFG=3
M  V30 19 1 22 10
M  V30 20 1 23 2
M  V30 21 1 23 11
M  V30 22 1 24 2
M  V30 23 1 25 4
M  V30 24 1 25 19
M  V30 25 1 26 8
M  V30 26 1 27 7
M  V30 27 1 27 22
M  V30 28 1 28 26
M  V30 29 1 29 28
M  V30 30 2 30 20
M  V30 31 1 31 12
M  V30 32 1 32 8
M  V30 33 1 32 15
M  V30 34 1 33 15
M  V30 35 1 33 20
M  V30 36 1 34 8
M  V30 37 1 34 10
M  V30 38 1 34 29
M  V30 39 1 35 9
M  V30 40 1 35 24
M  V30 41 1 36 19
M  V30 42 1 37 3
M  V30 43 1 37 24
M  V30 44 1 37 31
M  V30 45 1 3 38 CFG=3
M  V30 46 1 4 39 CFG=3
M  V30 47 1 5 40 CFG=3
M  V30 48 1 41 6
M  V30 49 1 42 6
M  V30 50 1 43 6
M  V30 51 1 7 44 CFG=1
M  V30 52 1 8 45 CFG=1
M  V30 53 1 46 9
M  V30 54 1 47 9
M  V30 55 1 10 48 CFG=3
M  V30 56 1 11 49 CFG=1
M  V30 57 1 50 12
M  V30 58 1 51 12
M  V30 59 1 52 14
M  V30 60 1 16 53 CFG=1
M  V30 61 1 54 22
M  V30 62 1 55 22
M  V30 63 1 56 23
M  V30 64 1 57 23
M  V30 65 1 58 25
M  V30 66 1 59 25
M  V30 67 1 60 26
M  V30 68 1 61 27
M  V30 69 1 62 27
M  V30 70 1 63 28
M  V30 71 1 64 28
M  V30 72 1 65 29
M  V30 73 1 66 29
M  V30 74 1 67 31
M  V30 75 1 68 31
M  V30 76 1 69 32
M  V30 77 1 70 32
M  V30 78 1 71 35
M  V30 79 1 72 35
M  V30 80 1 73 36
M  V30 81 1 74 36
M  V30 82 1 75 36
M  V30 83 1 37 76 CFG=1
M  V30 84 1 18 77 CFG=1
M  V30 85 1 78 26
M  V30 86 1 34 79 CFG=1
M  V30 END BOND
M  V30 END CTAB
M  END
>  <i_epik_Tot_Q>  (1) 
3

>  <i_epik_Tot_abs_Q>  (1) 
3

>  <i_i_glide_confnum>  (1) 
241

>  <i_i_glide_lignum>  (1) 
78

>  <i_i_glide_posenum>  (1) 
322

>  <i_i_glide_rotatable_bonds>  (1) 
8

>  <i_lp_mmshare_version>  (1) 
72125

>  <i_m_source_file_index>  (1) 
29

>  <i_f3d_flags>  (1) 
0

>  <num_sample>  (1) 
50

>  <b_lp_Chiralities_Consistent>  (1) 
1

>  <r_epik_Charging_Adjusted_Penalty>  (1) 
2.5241965566360229

>  <r_epik_Ionization_Penalty>  (1) 
2.0480993089750741

>  <r_epik_Ionization_Penalty_Charging>  (1) 
2.0477503768466887

>  <r_epik_Ionization_Penalty_Neutral>  (1) 
0.00034893212838530931

>  <r_epik_State_Penalty>  (1) 
0.4764461797893344

>  <r_glide_ring_energy>  (1) 
0.81914574756084313

>  <r_i_docking_score>  (1) 
-0.97709300686137723

>  <r_i_glide_ecoul>  (1) 
-0.85665564636877289

>  <r_i_glide_eff_state_penalty>  (1) 
0.4764461797893344

>  <r_i_glide_einternal>  (1) 
3.6255149108909528

>  <r_i_glide_emodel>  (1) 
-19.992706428081831

>  <r_i_glide_emodel_strain>  (1) 
0

>  <r_i_glide_energy>  (1) 
-19.690693424251201

>  <r_i_glide_erotb>  (1) 
0.44698704239028575

>  <r_i_glide_esite>  (1) 
0

>  <r_i_glide_evdw>  (1) 
-18.834037777882429

>  <r_i_glide_gscore>  (1) 
-1.4535391866507117

>  <r_i_glide_gscore_strain>  (1) 
0

>  <r_i_glide_hbond>  (1) 
0

>  <r_i_glide_ligand_efficiency>  (1) 
-0.026407919104361546

>  <r_i_glide_ligand_efficiency_ln>  (1) 
-0.2119085668781823

>  <r_i_glide_ligand_efficiency_sa>  (1) 
-0.08799704509605219

>  <r_i_glide_lipo>  (1) 
-0.64707974498489174

>  <r_i_glide_metal>  (1) 
-0

>  <r_i_glide_rewards>  (1) 
-0.18324624820666804

>  <r_lp_Energy>  (1) 
76.503242

>  <s_epik_Chemistry_Notes>  (1) 
This compound has an ester and may undergo hydrolysis at high or low pH. This compound contains an acetal/aminal-like group ( X-CH(R)-Y where X, Y are N, S, or O) that may be acid/base labile, releasing an aldehyde.

>  <s_epik_cmdline>  (1) 
J2VwaWtfcHl0aG9uJywgJy1waHQnLCAnMS4wJywgJy1waCcsICc3LjQnLCAnLXRuJywgJzgnLCAnLW1hJywgJzUwMCcsICctaW1hZScsICc8aW5maWxlLm1hZT4nLCAnLW9tYWUnLCAnPG91dGZpbGUubWFlPic=

>  <s_epik_input>  (1) 
Tz1DKE8xKUMxKEYpW0NIMl1bQ0BASF0yW05IXVtDSDJdW0NIMl1OMltDQEBIXTNbQ0gyXVtDSDJdW0NASF0oW0NAQEhdKE80KVtDQEhdMzQpTjVbQ0gyXVtDSDJdW0NAQEhdKFtDQEhdNTYpTihbQ0gyXVtDSDJdNilbQ0BAXShbQ0gzXSkoW0NIMl1bQ0BASF03W09IXSlbQ0BAXTc4W0NASF0oTzgpW0NIMl1PW0NIM10=

>  <s_glide_docking_method>  (1) 
confgen

>  <s_i_glide_gridfile>  (1) 
gpcr_drd2_6luq_protein_autoprepared_prepared

>  <s_lp_Force_Field>  (1) 
S-OPLS

>  <s_lp_Variant>  (1) 
DiffSBDD_28-1

>  <s_m_source_file>  (1) 
generated_generic_title2_ligand_DiffSBDD_2026-06-23_prepared.sdf

>  <GenAI_Model>  (1) 
DiffSBDD

>  <Protein>  (1) 
generic_title2

$$$$
DiffSBDD_43
     RDKit          3D

  0  0  0  0  0  0  0  0  0  0999 V3000
M  V30 BEGIN CTAB
M  V30 COUNTS 78 82 0 0 1
M  V30 BEGIN ATOM
M  V30 1 N 9.495648 7.002769 -9.066820 0
M  V30 2 C 9.878736 6.127856 -7.957455 0 CFG=1
M  V30 3 C 6.775531 0.026265 -13.830647 0
M  V30 4 C 11.280550 7.358887 -5.526394 0 CFG=1
M  V30 5 C 8.526225 4.556716 -13.780964 0 CFG=2
M  V30 6 Cl 6.151579 3.031751 -12.679013 0
M  V30 7 C 11.774935 8.505896 -3.138702 0
M  V30 8 C 6.614420 1.758178 -15.610799 0
M  V30 9 N 11.617744 7.503486 -6.911010 0
M  V30 10 C 7.782313 5.506765 -12.805620 0
M  V30 11 C 11.696237 8.510295 -4.664828 0
M  V30 12 O 9.375597 8.390106 -8.691047 0
M  V30 13 C 7.720615 0.955415 -13.013809 0 CFG=1
M  V30 14 C 7.752848 7.915869 -13.261240 0
M  V30 15 C 11.454890 9.790714 -5.371434 0
M  V30 16 C 9.133226 0.542041 -13.185126 0
M  V30 17 C 7.671221 2.627066 -14.938507 0 CFG=1
M  V30 18 O 6.575759 4.797943 -15.307039 0
M  V30 19 C 8.641356 4.512084 -16.388857 0
M  V30 20 C 9.893173 6.920371 -10.469572 0
M  V30 21 C 7.813583 4.150779 -15.131644 0 CFG=1
M  V30 22 C 6.834010 0.267573 -15.359692 0
M  V30 23 C 11.375416 6.316462 -7.719924 0
M  V30 24 C 7.631442 2.442159 -13.426805 0 CFG=1
M  V30 25 C 11.961041 8.697358 -7.486266 0
M  V30 26 N 8.447648 6.813016 -12.574219 0 CFG=1 CHG=1
M  V30 27 O 8.679010 3.342531 -13.072170 0
M  V30 28 C 9.055126 6.458852 -6.677691 0
M  V30 29 C 13.026612 8.514668 -3.933922 0
M  V30 30 O 9.775682 5.146263 -14.028197 0
M  V30 31 N 11.775311 9.804650 -6.691411 0
M  V30 32 C 9.777511 7.145721 -5.508467 0
M  V30 33 O 11.030623 10.789312 -4.788793 0
M  V30 34 C 9.519769 4.697951 -8.454373 0
M  V30 35 C 8.548717 7.107173 -11.140146 0
M  V30 36 O 12.314571 8.788169 -8.664209 0
M  V30 37 H 6.974867 -1.021477 -13.621584 0
M  V30 38 H 5.748865 0.186048 -13.495137 0
M  V30 39 H 11.762987 6.451910 -5.156441 0
M  V30 40 H 11.537364 9.419157 -2.599631 0
M  V30 41 H 11.525764 7.584221 -2.615200 0
M  V30 42 H 6.407960 2.006184 -16.654967 0
M  V30 43 H 5.775429 1.886291 -14.975480 0
M  V30 44 H 7.793354 4.947139 -11.870226 0
M  V30 45 H 6.722391 5.630227 -13.021399 0
M  V30 46 H 8.426846 8.484952 -8.805924 0
M  V30 47 H 7.447338 0.802504 -11.984527 0
M  V30 48 H 6.713664 7.947620 -12.934298 0
M  V30 49 H 8.185130 8.875664 -12.976442 0
M  V30 50 H 7.774497 7.810964 -14.346864 0
M  V30 51 H 9.175029 0.499778 -14.238683 0
M  V30 52 H 9.855665 1.250269 -12.785088 0
M  V30 53 H 9.376275 -0.409735 -12.782787 0
M  V30 54 H 8.577067 2.207821 -15.333935 0
M  V30 55 H 6.739657 5.670148 -15.637633 0
M  V30 56 H 9.633091 4.053261 -16.367554 0
M  V30 57 H 8.153849 4.173937 -17.307322 0
M  V30 58 H 8.778520 5.592677 -16.468214 0
M  V30 59 H 10.628686 7.670286 -10.762052 0
M  V30 60 H 10.281347 5.953035 -10.727592 0
M  V30 61 H 7.765288 -0.064643 -15.820753 0
M  V30 62 H 6.037081 -0.304538 -15.837233 0
M  V30 63 H 11.780842 5.451165 -7.185474 0
M  V30 64 H 11.775547 6.392724 -8.718091 0
M  V30 65 H 8.175612 7.049322 -6.921662 0
M  V30 66 H 8.587950 5.590208 -6.247450 0
M  V30 67 H 13.606511 7.602750 -3.850659 0
M  V30 68 H 13.614817 9.432955 -3.965452 0
M  V30 69 H 10.439783 4.464551 -14.027796 0
M  V30 70 H 11.815398 10.700415 -7.143627 0
M  V30 71 H 9.618112 6.542717 -4.620633 0
M  V30 72 H 9.310341 8.116147 -5.431280 0
M  V30 73 H 10.361199 4.014042 -8.385064 0
M  V30 74 H 8.694762 4.253452 -7.899995 0
M  V30 75 H 9.186862 4.639438 -9.489609 0
M  V30 76 H 7.858128 6.427876 -10.619384 0
M  V30 77 H 8.228900 8.132172 -10.933919 0
M  V30 78 H 9.379877 6.729479 -12.956911 0
M  V30 END ATOM
M  V30 BEGIN BOND
M  V30 1 1 2 1 CFG=3
M  V30 2 1 9 4
M  V30 3 1 10 5
M  V30 4 1 11 4
M  V30 5 1 11 7
M  V30 6 1 12 1
M  V30 7 1 13 3
M  V30 8 1 15 11
M  V30 9 1 16 13
M  V30 10 1 17 8
M  V30 11 1 20 1
M  V30 12 1 21 5
M  V30 13 1 21 17
M  V30 14 1 21 18 CFG=3
M  V30 15 1 21 19
M  V30 16 1 22 3
M  V30 17 1 22 8
M  V30 18 1 23 2
M  V30 19 1 23 9
M  V30 20 1 24 6 CFG=1
M  V30 21 1 24 13
M  V30 22 1 24 17
M  V30 23 1 25 9
M  V30 24 1 26 10
M  V30 25 1 26 14
M  V30 26 1 27 5
M  V30 27 1 27 24
M  V30 28 1 28 2
M  V30 29 1 29 7
M  V30 30 1 29 11
M  V30 31 1 5 30 CFG=3
M  V30 32 1 31 15
M  V30 33 1 31 25
M  V30 34 1 32 4
M  V30 35 1 32 28
M  V30 36 2 33 15
M  V30 37 1 34 2
M  V30 38 1 35 20
M  V30 39 1 35 26
M  V30 40 2 36 25
M  V30 41 1 37 3
M  V30 42 1 38 3
M  V30 43 1 4 39 CFG=1
M  V30 44 1 40 7
M  V30 45 1 41 7
M  V30 46 1 42 8
M  V30 47 1 43 8
M  V30 48 1 44 10
M  V30 49 1 45 10
M  V30 50 1 46 12
M  V30 51 1 13 47 CFG=1
M  V30 52 1 48 14
M  V30 53 1 49 14
M  V30 54 1 50 14
M  V30 55 1 51 16
M  V30 56 1 52 16
M  V30 57 1 53 16
M  V30 58 1 17 54 CFG=3
M  V30 59 1 55 18
M  V30 60 1 56 19
M  V30 61 1 57 19
M  V30 62 1 58 19
M  V30 63 1 59 20
M  V30 64 1 60 20
M  V30 65 1 61 22
M  V30 66 1 62 22
M  V30 67 1 63 23
M  V30 68 1 64 23
M  V30 69 1 65 28
M  V30 70 1 66 28
M  V30 71 1 67 29
M  V30 72 1 68 29
M  V30 73 1 69 30
M  V30 74 1 70 31
M  V30 75 1 71 32
M  V30 76 1 72 32
M  V30 77 1 73 34
M  V30 78 1 74 34
M  V30 79 1 75 34
M  V30 80 1 76 35
M  V30 81 1 77 35
M  V30 82 1 26 78 CFG=3
M  V30 END BOND
M  V30 END CTAB
M  END
>  <i_epik_Tot_Q>  (1) 
1

>  <i_epik_Tot_abs_Q>  (1) 
1

>  <i_i_glide_confnum>  (1) 
398

>  <i_i_glide_lignum>  (1) 
117

>  <i_i_glide_posenum>  (1) 
208

>  <i_i_glide_rotatable_bonds>  (1) 
9

>  <i_lp_mmshare_version>  (1) 
72125

>  <i_m_source_file_index>  (1) 
44

>  <i_f3d_flags>  (1) 
0

>  <num_sample>  (1) 
50

>  <b_lp_Chiralities_Consistent>  (1) 
1

>  <r_epik_Charging_Adjusted_Penalty>  (1) 
0.34224393187987273

>  <r_epik_Ionization_Penalty>  (1) 
0.17191807241559104

>  <r_epik_Ionization_Penalty_Charging>  (1) 
0.17112196593993639

>  <r_epik_Ionization_Penalty_Neutral>  (1) 
0.00079610647565464391

>  <r_epik_State_Penalty>  (1) 
0.17112196593993634

>  <r_glide_ring_energy>  (1) 
0

>  <r_i_docking_score>  (1) 
-0.88064026741669199

>  <r_i_glide_ecoul>  (1) 
-8.6020719658858216

>  <r_i_glide_eff_state_penalty>  (1) 
0.17112196593993634

>  <r_i_glide_einternal>  (1) 
28.608766400325752

>  <r_i_glide_emodel>  (1) 
27.908148689084598

>  <r_i_glide_emodel_strain>  (1) 
21.543953573341639

>  <r_i_glide_energy>  (1) 
-6.2627676788646589

>  <r_i_glide_erotb>  (1) 
0.44011442581216542

>  <r_i_glide_esite>  (1) 
-0.22194040952106775

>  <r_i_glide_evdw>  (1) 
2.3393042870211631

>  <r_i_glide_gscore>  (1) 
-1.0517622333566283

>  <r_i_glide_gscore_strain>  (1) 
4.3859883933354098

>  <r_i_glide_hbond>  (1) 
-0.42311369360683271

>  <r_i_glide_ligand_efficiency>  (1) 
-0.024462229650463668

>  <r_i_glide_ligand_efficiency_ln>  (1) 
-0.1921319141998184

>  <r_i_glide_ligand_efficiency_sa>  (1) 
-0.080772502651584074

>  <r_i_glide_lipo>  (1) 
-2.2168903999721619

>  <r_i_glide_metal>  (1) 
-0

>  <r_i_glide_rewards>  (1) 
-1.8425749688723259

>  <r_lp_Energy>  (1) 
45.907455999999996

>  <r_lp_tautomer_probability>  (1) 
0.99999999996150013

>  <s_epik_Chemistry_Notes>  (1) 
This compound has a N-S or N-O group and may undergo hydrolysis at high or low pH.

>  <s_epik_cmdline>  (1) 
J2VwaWtfcHl0aG9uJywgJy1waHQnLCAnMS4wJywgJy1waCcsICc3LjQnLCAnLXRuJywgJzgnLCAnLW1hJywgJzUwMCcsICctaW1hZScsICc8aW5maWxlLm1hZT4nLCAnLW9tYWUnLCAnPG91dGZpbGUubWFlPic=

>  <s_epik_input>  (1) 
W0NIMl0xW0NIMl1DMTJbQ0BASF0zTihDKD1PKVtOSF1DMj1PKVtDSDJdW0NAQF0oW0NIM10pKFtDSDJdW0NIMl0zKU4oW09IXSlbQ0gyXVtDSDJdTihbQ0gzXSlbQ0gyXVtDQF0oTzQpKFtPSF0pW0NAQF0oW09IXSkoW0NIM10pW0NAQEhdKFtDQF00NUNsKVtDSDJdW0NIMl1bQ0gyXVtDQEhdNVtDSDNd

>  <s_glide_docking_method>  (1) 
confgen

>  <s_i_glide_gridfile>  (1) 
gpcr_drd2_6luq_protein_autoprepared_prepared

>  <s_lp_Force_Field>  (1) 
S-OPLS

>  <s_lp_Variant>  (1) 
DiffSBDD_43-1

>  <s_m_source_file>  (1) 
generated_generic_title2_ligand_DiffSBDD_2026-06-23_prepared.sdf

>  <GenAI_Model>  (1) 
DiffSBDD

>  <Protein>  (1) 
generic_title2

$$$$
DiffSBDD_8
     RDKit          3D

  0  0  0  0  0  0  0  0  0  0999 V3000
M  V30 BEGIN CTAB
M  V30 COUNTS 70 73 0 0 1
M  V30 BEGIN ATOM
M  V30 1 N 8.540945 6.799454 -11.186644 0
M  V30 2 C 12.043502 7.559078 -11.047056 0
M  V30 3 C 8.295440 5.613083 -14.260052 0 CFG=1
M  V30 4 N 11.996955 8.036814 -8.746623 0
M  V30 5 O 6.516939 3.588131 -12.023097 0
M  V30 6 C 7.736875 1.494379 -15.771556 0
M  V30 7 F 9.816220 8.790360 -8.562637 0
M  V30 8 C 8.604926 1.073609 -16.967287 0
M  V30 9 N 8.174973 2.805092 -15.243873 0 CHG=1
M  V30 10 C 7.879131 3.065190 -13.808483 0 CFG=1
M  V30 11 C 10.902321 8.795906 -9.341140 0 CFG=2
M  V30 12 C 12.788512 1.342145 -18.573683 0
M  V30 13 C 8.391939 4.402541 -13.297620 0 CFG=2
M  V30 14 O 5.603551 3.987124 -13.985043 0
M  V30 15 O 12.650369 8.832476 -7.735261 0
M  V30 16 C 8.436918 1.946999 -18.225364 0
M  V30 17 C 8.062532 4.360585 -10.631475 0
M  V30 18 C 8.080474 7.957829 -11.961168 0
M  V30 19 C 7.591184 5.717691 -11.065531 0 CFG=2
M  V30 20 C 10.627132 8.058219 -10.666274 0 CFG=2
M  V30 21 C 9.666545 6.866112 -10.428788 0
M  V30 22 C 7.449377 5.811868 -15.536434 0
M  V30 23 C 6.417591 3.085276 -13.298333 0 CFG=2
M  V30 24 C 7.559935 4.556050 -12.028344 0 CFG=2
M  V30 25 O 14.144149 1.423390 -18.960519 0
M  V30 26 O 9.938523 6.023804 -9.574260 0
M  V30 27 C 12.053506 2.656574 -18.885331 0
M  V30 28 C 11.845510 8.898747 -6.565700 0
M  V30 29 C 12.921570 8.049939 -9.870421 0
M  V30 30 O 10.739753 2.621978 -18.348045 0
M  V30 31 C 9.729908 2.051377 -19.038883 0
M  V30 32 N 6.988804 6.235682 -14.252906 0 CHG=1
M  V30 33 O 9.805121 1.644865 -20.197892 0
M  V30 34 H 12.029609 6.510117 -11.186852 0
M  V30 35 H 12.425837 7.594825 -12.064084 0
M  V30 36 H 8.964193 6.390882 -13.962112 0
M  V30 37 H 6.684669 1.530004 -16.041405 0
M  V30 38 H 7.833851 0.734764 -14.997133 0
M  V30 39 H 8.386691 0.035932 -17.224187 0
M  V30 40 H 9.642960 1.077282 -16.644555 0
M  V30 41 H 9.209074 2.842314 -15.342190 0
M  V30 42 H 8.364818 2.269634 -13.237618 0
M  V30 43 H 11.210785 9.831907 -9.509272 0
M  V30 44 H 12.319329 0.504098 -19.088163 0
M  V30 45 H 12.746689 1.134331 -17.505558 0
M  V30 46 H 9.449179 4.290042 -13.032722 0
M  V30 47 H 4.711509 3.796778 -13.720393 0
M  V30 48 H 8.130229 2.956240 -17.958002 0
M  V30 49 H 7.647802 1.538899 -18.855324 0
M  V30 50 H 7.419843 3.990680 -9.833672 0
M  V30 51 H 9.103809 4.047329 -10.593044 0
M  V30 52 H 8.735962 8.200309 -12.789741 0
M  V30 53 H 7.059178 7.833493 -12.318185 0
M  V30 54 H 8.021726 8.832369 -11.310955 0
M  V30 55 H 6.596742 5.992732 -10.716939 0
M  V30 56 H 10.242660 8.787388 -11.369048 0
M  V30 57 H 7.376984 6.738891 -16.101019 0
M  V30 58 H 6.820518 5.007364 -15.908486 0
M  V30 59 H 5.939574 2.101977 -13.303388 0
M  V30 60 H 14.195207 1.457852 -19.904082 0
M  V30 61 H 12.582963 3.486201 -18.416282 0
M  V30 62 H 12.039623 2.861664 -19.956062 0
M  V30 63 H 12.443115 9.273655 -5.731897 0
M  V30 64 H 11.020717 9.597074 -6.696054 0
M  V30 65 H 11.448098 7.927814 -6.285161 0
M  V30 66 H 13.821510 7.515880 -9.591204 0
M  V30 67 H 13.242816 9.069950 -10.082795 0
M  V30 68 H 6.246701 5.656851 -13.872073 0
M  V30 69 H 7.778397 3.529555 -15.822541 0
M  V30 70 H 6.990059 7.227303 -14.079881 0
M  V30 END ATOM
M  V30 BEGIN BOND
M  V30 1 1 8 6
M  V30 2 1 9 6
M  V30 3 1 10 9
M  V30 4 1 11 4
M  V30 5 1 11 7
M  V30 6 1 13 3
M  V30 7 1 13 10
M  V30 8 1 15 4
M  V30 9 1 16 8
M  V30 10 1 18 1
M  V30 11 1 19 1
M  V30 12 1 19 17
M  V30 13 1 20 2
M  V30 14 1 20 11
M  V30 15 1 21 1
M  V30 16 1 21 20
M  V30 17 1 22 3
M  V30 18 1 23 5
M  V30 19 1 23 10
M  V30 20 1 23 14
M  V30 21 1 24 5 CFG=3
M  V30 22 1 24 13
M  V30 23 1 24 17
M  V30 24 1 24 19
M  V30 25 1 25 12
M  V30 26 2 26 21
M  V30 27 1 27 12
M  V30 28 1 28 15
M  V30 29 1 29 2
M  V30 30 1 29 4
M  V30 31 1 30 27
M  V30 32 1 31 16
M  V30 33 1 31 30
M  V30 34 1 32 3
M  V30 35 1 32 22
M  V30 36 2 33 31
M  V30 37 1 34 2
M  V30 38 1 35 2
M  V30 39 1 3 36 CFG=3
M  V30 40 1 37 6
M  V30 41 1 38 6
M  V30 42 1 39 8
M  V30 43 1 40 8
M  V30 44 1 41 9
M  V30 45 1 10 42 CFG=1
M  V30 46 1 11 43 CFG=3
M  V30 47 1 44 12
M  V30 48 1 45 12
M  V30 49 1 13 46 CFG=1
M  V30 50 1 47 14
M  V30 51 1 48 16
M  V30 52 1 49 16
M  V30 53 1 50 17
M  V30 54 1 51 17
M  V30 55 1 52 18
M  V30 56 1 53 18
M  V30 57 1 54 18
M  V30 58 1 19 55 CFG=1
M  V30 59 1 20 56 CFG=3
M  V30 60 1 57 22
M  V30 61 1 58 22
M  V30 62 1 23 59 CFG=1
M  V30 63 1 60 25
M  V30 64 1 61 27
M  V30 65 1 62 27
M  V30 66 1 63 28
M  V30 67 1 64 28
M  V30 68 1 65 28
M  V30 69 1 66 29
M  V30 70 1 67 29
M  V30 71 1 68 32
M  V30 72 1 69 9
M  V30 73 1 70 32
M  V30 END BOND
M  V30 END CTAB
M  END
>  <i_epik_Tot_Q>  (1) 
2

>  <i_epik_Tot_abs_Q>  (1) 
2

>  <i_i_glide_confnum>  (1) 
1143

>  <i_i_glide_lignum>  (1) 
42

>  <i_i_glide_posenum>  (1) 
93

>  <i_i_glide_rotatable_bonds>  (1) 
15

>  <i_lp_mmshare_version>  (1) 
72125

>  <i_m_source_file_index>  (1) 
9

>  <i_f3d_flags>  (1) 
0

>  <num_sample>  (1) 
50

>  <b_lp_Chiralities_Consistent>  (1) 
1

>  <r_epik_Charging_Adjusted_Penalty>  (1) 
2.8797985042560583

>  <r_epik_Ionization_Penalty>  (1) 
1.6442763990741283

>  <r_epik_Ionization_Penalty_Charging>  (1) 
1.6439676131770962

>  <r_epik_Ionization_Penalty_Neutral>  (1) 
0.00030878589703216643

>  <r_epik_State_Penalty>  (1) 
1.2358308910789622

>  <r_glide_ring_energy>  (1) 
0

>  <r_i_docking_score>  (1) 
-0.80229562151061184

>  <r_i_glide_ecoul>  (1) 
-1.6151047126206364

>  <r_i_glide_eff_state_penalty>  (1) 
1.2358308910789622

>  <r_i_glide_einternal>  (1) 
52.337299046226768

>  <r_i_glide_emodel>  (1) 
17.636120436855705

>  <r_i_glide_emodel_strain>  (1) 
6.4082910604745393

>  <r_i_glide_energy>  (1) 
-9.0726979713135769

>  <r_i_glide_erotb>  (1) 
1.0700444368793263

>  <r_i_glide_esite>  (1) 
-0.25753840214990392

>  <r_i_glide_evdw>  (1) 
-7.4575932586929401

>  <r_i_glide_gscore>  (1) 
-2.038126512589574

>  <r_i_glide_gscore_strain>  (1) 
0.60207276511863483

>  <r_i_glide_hbond>  (1) 
0

>  <r_i_glide_ligand_efficiency>  (1) 
-0.024311988530624603

>  <r_i_glide_ligand_efficiency_ln>  (1) 
-0.17842639215955264

>  <r_i_glide_ligand_efficiency_sa>  (1) 
-0.077981537842443202

>  <r_i_glide_lipo>  (1) 
-1.1652155227594914

>  <r_i_glide_metal>  (1) 
-0

>  <r_i_glide_rewards>  (1) 
-1.6723444198503978

>  <r_lp_Energy>  (1) 
51.627417999999999

>  <s_epik_Chemistry_Notes>  (1) 
This compound has an ester and may undergo hydrolysis at high or low pH. This compound contains an acetal/aminal-like group ( X-CH(R)-Y where X, Y are N, S, or O) that may be acid/base labile, releasing an aldehyde. This compound has a N-S or N-O group and may undergo hydrolysis at high or low pH.

>  <s_epik_cmdline>  (1) 
J2VwaWtfcHl0aG9uJywgJy1waHQnLCAnMS4wJywgJy1waCcsICc3LjQnLCAnLXRuJywgJzgnLCAnLW1hJywgJzUwMCcsICctaW1hZScsICc8aW5maWxlLm1hZT4nLCAnLW9tYWUnLCAnPG91dGZpbGUubWFlPic=

>  <s_epik_input>  (1) 
W0NIM11PTjFbQ0BIXShGKVtDQEBIXShbQ0gyXVtDSDJdMSlDKD1PKU4oW0NIM10pW0NASF0yW0NIMl1DMjNPW0NAQEhdKFtPSF0pW0NASF0oW0NASF0zW0NASF00W0NIMl1bTkhdNClbTkhdW0NIMl1bQ0gyXVtDSDJdQyg9TylPW0NIMl1bQ0gyXVtPSF0=

>  <s_glide_docking_method>  (1) 
confgen

>  <s_i_glide_gridfile>  (1) 
gpcr_drd2_6luq_protein_autoprepared_prepared

>  <s_lp_Force_Field>  (1) 
S-OPLS

>  <s_lp_Variant>  (1) 
DiffSBDD_8-11

>  <s_m_source_file>  (1) 
generated_generic_title2_ligand_DiffSBDD_2026-06-23_prepared.sdf

>  <GenAI_Model>  (1) 
DiffSBDD

>  <Protein>  (1) 
generic_title2

$$$$
DiffSBDD_8
     RDKit          3D

  0  0  0  0  0  0  0  0  0  0999 V3000
M  V30 BEGIN CTAB
M  V30 COUNTS 69 72 0 0 1
M  V30 BEGIN ATOM
M  V30 1 N 12.922964 3.742695 -18.090386 0
M  V30 2 C 15.260164 2.021375 -20.366962 0
M  V30 3 C 10.067139 2.369892 -18.567561 0 CFG=1
M  V30 4 N 14.335646 -0.097467 -20.460177 0
M  V30 5 O 10.201751 6.101955 -18.909373 0
M  V30 6 C 9.904398 2.736884 -21.804960 0
M  V30 7 F 12.966341 -0.009710 -18.612827 0
M  V30 8 C 9.141191 2.818585 -23.140478 0
M  V30 9 N 10.058785 4.040764 -21.118387 0 CHG=1
M  V30 10 C 9.131664 4.317976 -19.992367 0 CFG=1
M  V30 11 C 13.370865 0.667921 -19.686800 0 CFG=1
M  V30 12 C 4.673959 4.738664 -20.388238 0
M  V30 13 C 9.615574 3.821857 -18.633303 0 CFG=2
M  V30 14 O 9.068104 6.588970 -20.892295 0
M  V30 15 O 13.643433 -1.177874 -21.184657 0
M  V30 16 C 7.611331 2.653378 -23.023860 0
M  V30 17 C 11.124970 5.110976 -16.831254 0
M  V30 18 C 13.496581 3.246136 -16.833429 0
M  V30 19 C 12.095363 4.917777 -17.992898 0 CFG=2
M  V30 20 C 14.153050 1.933762 -19.296276 0 CFG=2
M  V30 21 C 13.222385 3.174410 -19.288289 0
M  V30 22 C 9.972730 1.572472 -17.302184 0
M  V30 23 C 9.092773 5.827125 -19.706505 0 CFG=2
M  V30 24 C 10.587202 4.916428 -18.222343 0 CFG=2
M  V30 25 O 5.723769 5.514788 -19.851144 0
M  V30 26 O 12.774261 3.608301 -20.351882 0
M  V30 27 C 4.717495 4.737468 -21.922981 0
M  V30 28 C 12.991612 -0.765366 -22.386669 0
M  V30 29 C 14.975363 0.876697 -21.341289 0
M  V30 30 O 5.553698 3.689595 -22.386525 0
M  V30 31 C 6.843912 3.924099 -22.663364 0
M  V30 32 N 8.956699 1.466760 -18.333537 0
M  V30 33 O 7.386447 5.029937 -22.635327 0
M  V30 34 H 15.299559 2.979893 -20.886642 0
M  V30 35 H 16.235853 1.875068 -19.901128 0
M  V30 36 H 10.799610 2.051377 -19.299482 0
M  V30 37 H 9.463912 1.979518 -21.157604 0
M  V30 38 H 10.916562 2.392384 -22.021236 0
M  V30 39 H 9.493203 1.995354 -23.763267 0
M  V30 40 H 9.409111 3.721039 -23.692265 0
M  V30 41 H 11.010169 4.117125 -20.770843 0
M  V30 42 H 8.127008 3.962676 -20.216082 0
M  V30 43 H 12.487744 0.905600 -20.277390 0
M  V30 44 H 4.699053 3.725465 -19.985221 0
M  V30 45 H 3.741743 5.190153 -20.058975 0
M  V30 46 H 8.772215 3.923826 -17.946062 0
M  V30 47 H 8.220494 6.467635 -21.304096 0
M  V30 48 H 7.369034 1.874311 -22.300518 0
M  V30 49 H 7.215644 2.308136 -23.976718 0
M  V30 50 H 11.044331 6.106424 -16.398858 0
M  V30 51 H 10.971654 4.294217 -16.129991 0
M  V30 52 H 14.586429 3.267031 -16.858307 0
M  V30 53 H 13.229689 3.872541 -15.985025 0
M  V30 54 H 13.157303 2.232246 -16.615085 0
M  V30 55 H 12.603182 5.828503 -18.307446 0
M  V30 56 H 14.663795 1.735949 -18.357590 0
M  V30 57 H 10.649798 0.728977 -17.185041 0
M  V30 58 H 9.676505 2.074637 -16.385452 0
M  V30 59 H 8.210766 6.097131 -19.124072 0
M  V30 60 H 5.580387 5.603468 -18.920058 0
M  V30 61 H 3.720133 4.525488 -22.304789 0
M  V30 62 H 4.995577 5.713976 -22.322920 0
M  V30 63 H 12.375859 -1.592082 -22.741201 0
M  V30 64 H 12.327409 0.088159 -22.255993 0
M  V30 65 H 13.705857 -0.553134 -23.182896 0
M  V30 66 H 14.315411 1.267211 -22.114660 0
M  V30 67 H 15.876764 0.480873 -21.809809 0
M  V30 68 H 8.927100 0.589322 -18.835504 0
M  V30 69 H 9.924367 4.782787 -21.792879 0
M  V30 END ATOM
M  V30 BEGIN BOND
M  V30 1 1 8 6
M  V30 2 1 9 6
M  V30 3 1 10 9
M  V30 4 1 11 4
M  V30 5 1 11 7
M  V30 6 1 13 3
M  V30 7 1 13 10
M  V30 8 1 15 4
M  V30 9 1 16 8
M  V30 10 1 18 1
M  V30 11 1 19 1
M  V30 12 1 19 17
M  V30 13 1 20 2
M  V30 14 1 20 11
M  V30 15 1 21 1
M  V30 16 1 21 20
M  V30 17 1 22 3
M  V30 18 1 23 5
M  V30 19 1 23 10
M  V30 20 1 23 14
M  V30 21 1 24 5 CFG=3
M  V30 22 1 24 13
M  V30 23 1 24 17
M  V30 24 1 24 19
M  V30 25 1 25 12
M  V30 26 2 26 21
M  V30 27 1 27 12
M  V30 28 1 28 15
M  V30 29 1 29 2
M  V30 30 1 29 4
M  V30 31 1 30 27
M  V30 32 1 31 16
M  V30 33 1 31 30
M  V30 34 1 32 3
M  V30 35 1 32 22
M  V30 36 2 33 31
M  V30 37 1 34 2
M  V30 38 1 35 2
M  V30 39 1 3 36 CFG=3
M  V30 40 1 37 6
M  V30 41 1 38 6
M  V30 42 1 39 8
M  V30 43 1 40 8
M  V30 44 1 41 9
M  V30 45 1 10 42 CFG=3
M  V30 46 1 11 43 CFG=3
M  V30 47 1 44 12
M  V30 48 1 45 12
M  V30 49 1 13 46 CFG=1
M  V30 50 1 47 14
M  V30 51 1 48 16
M  V30 52 1 49 16
M  V30 53 1 50 17
M  V30 54 1 51 17
M  V30 55 1 52 18
M  V30 56 1 53 18
M  V30 57 1 54 18
M  V30 58 1 19 55 CFG=3
M  V30 59 1 20 56 CFG=1
M  V30 60 1 57 22
M  V30 61 1 58 22
M  V30 62 1 23 59 CFG=1
M  V30 63 1 60 25
M  V30 64 1 61 27
M  V30 65 1 62 27
M  V30 66 1 63 28
M  V30 67 1 64 28
M  V30 68 1 65 28
M  V30 69 1 66 29
M  V30 70 1 67 29
M  V30 71 1 68 32
M  V30 72 1 69 9
M  V30 END BOND
M  V30 END CTAB
M  END
>  <i_epik_Tot_Q>  (1) 
1

>  <i_epik_Tot_abs_Q>  (1) 
1

>  <i_i_glide_confnum>  (1) 
1571

>  <i_i_glide_lignum>  (1) 
35

>  <i_i_glide_posenum>  (1) 
25

>  <i_i_glide_rotatable_bonds>  (1) 
15

>  <i_lp_mmshare_version>  (1) 
72125

>  <i_m_source_file_index>  (1) 
9

>  <i_f3d_flags>  (1) 
0

>  <num_sample>  (1) 
50

>  <b_lp_Chiralities_Consistent>  (1) 
1

>  <r_epik_Charging_Adjusted_Penalty>  (1) 
0.31458683345696248

>  <r_epik_Ionization_Penalty>  (1) 
0.14300301403106822

>  <r_epik_Ionization_Penalty_Charging>  (1) 
0.065080964065447874

>  <r_epik_Ionization_Penalty_Neutral>  (1) 
0.077922049965620341

>  <r_epik_State_Penalty>  (1) 
0.24950586939151459

>  <r_glide_ring_energy>  (1) 
0

>  <r_i_docking_score>  (1) 
-0.77823448197641198

>  <r_i_glide_ecoul>  (1) 
0.30095432054458249

>  <r_i_glide_eff_state_penalty>  (1) 
0.24950586939151459

>  <r_i_glide_einternal>  (1) 
23.010756368615809

>  <r_i_glide_emodel>  (1) 
-9.9215878615072306

>  <r_i_glide_emodel_strain>  (1) 
0

>  <r_i_glide_energy>  (1) 
-18.672969697286295

>  <r_i_glide_erotb>  (1) 
1.0741905119875848

>  <r_i_glide_esite>  (1) 
0

>  <r_i_glide_evdw>  (1) 
-18.973924017830878

>  <r_i_glide_gscore>  (1) 
-1.0277403513679266

>  <r_i_glide_gscore_strain>  (1) 
0

>  <r_i_glide_hbond>  (1) 
0

>  <r_i_glide_ligand_efficiency>  (1) 
-0.023582863090194302

>  <r_i_glide_ligand_efficiency_ln>  (1) 
-0.17307531930905962

>  <r_i_glide_ligand_efficiency_sa>  (1) 
-0.075642842961389692

>  <r_i_glide_lipo>  (1) 
-0.61310120520360445

>  <r_i_glide_metal>  (1) 
-0

>  <r_i_glide_rewards>  (1) 
-0.58527660534205039

>  <r_lp_Energy>  (1) 
35.996015

>  <s_epik_Chemistry_Notes>  (1) 
This compound has an ester and may undergo hydrolysis at high or low pH. This compound contains an acetal/aminal-like group ( X-CH(R)-Y where X, Y are N, S, or O) that may be acid/base labile, releasing an aldehyde. This compound has a N-S or N-O group and may undergo hydrolysis at high or low pH.

>  <s_epik_cmdline>  (1) 
J2VwaWtfcHl0aG9uJywgJy1waHQnLCAnMS4wJywgJy1waCcsICc3LjQnLCAnLXRuJywgJzgnLCAnLW1hJywgJzUwMCcsICctaW1hZScsICc8aW5maWxlLm1hZT4nLCAnLW9tYWUnLCAnPG91dGZpbGUubWFlPic=

>  <s_epik_input>  (1) 
W0NIM11PTjFbQ0BIXShGKVtDQEBIXShbQ0gyXVtDSDJdMSlDKD1PKU4oW0NIM10pW0NASF0yW0NIMl1DMjNPW0NAQEhdKFtPSF0pW0NASF0oW0NASF0zW0NASF00W0NIMl1bTkhdNClbTkhdW0NIMl1bQ0gyXVtDSDJdQyg9TylPW0NIMl1bQ0gyXVtPSF0=

>  <s_glide_docking_method>  (1) 
confgen

>  <s_i_glide_gridfile>  (1) 
gpcr_drd2_6luq_protein_autoprepared_prepared

>  <s_lp_Force_Field>  (1) 
S-OPLS

>  <s_lp_Variant>  (1) 
DiffSBDD_8-4

>  <s_m_source_file>  (1) 
generated_generic_title2_ligand_DiffSBDD_2026-06-23_prepared.sdf

>  <GenAI_Model>  (1) 
DiffSBDD

>  <Protein>  (1) 
generic_title2

$$$$
DiffSBDD_8
     RDKit          3D

  0  0  0  0  0  0  0  0  0  0999 V3000
M  V30 BEGIN CTAB
M  V30 COUNTS 69 72 0 0 1
M  V30 BEGIN ATOM
M  V30 1 N 14.998010 6.469535 -17.973867 0
M  V30 2 C 17.531709 8.816541 -19.389213 0
M  V30 3 C 12.485348 5.305111 -19.488830 0 CFG=1
M  V30 4 N 16.166777 9.062642 -21.357035 0
M  V30 5 O 14.946846 2.779259 -18.253585 0
M  V30 6 C 10.655802 3.486449 -17.379132 0
M  V30 7 F 17.228713 7.093232 -21.717437 0
M  V30 8 C 9.748266 2.268602 -17.648795 0
M  V30 9 N 12.096424 3.155189 -17.424201 0 CHG=1
M  V30 10 C 12.662149 2.825494 -18.752432 0 CFG=1
M  V30 11 C 16.268381 7.656675 -20.983325 0 CFG=1
M  V30 12 C 8.013556 5.429613 -20.589847 0
M  V30 13 C 13.300030 4.014533 -19.467541 0 CFG=2
M  V30 14 O 13.672397 0.943546 -17.585027 0
M  V30 15 O 14.778562 9.404741 -21.184649 0
M  V30 16 C 8.292681 2.475102 -17.188425 0
M  V30 17 C 15.834800 4.603224 -19.645865 0
M  V30 18 C 13.976409 6.501666 -16.924132 0
M  V30 19 C 15.558683 5.168203 -18.262464 0 CFG=2
M  V30 20 C 16.655260 7.568841 -19.495786 0 CFG=2
M  V30 21 C 15.455524 7.637325 -18.510939 0
M  V30 22 C 12.617971 6.305720 -20.603213 0
M  V30 23 C 13.893147 1.925826 -18.572227 0 CFG=2
M  V30 24 C 14.691033 4.047474 -18.847826 0 CFG=2
M  V30 25 O 8.803293 6.238076 -19.737678 0
M  V30 26 O 14.966003 8.728914 -18.217483 0
M  V30 27 C 6.884095 4.740596 -19.807555 0
M  V30 28 C 14.325798 9.900071 -22.434231 0
M  V30 29 C 16.898370 9.829150 -20.350403 0
M  V30 30 O 7.391430 3.625759 -19.086999 0
M  V30 31 C 7.658178 3.734780 -17.773867 0
M  V30 32 N 11.534533 5.337467 -20.581481 0
M  V30 33 O 7.436041 4.729968 -17.084579 0
M  V30 34 H 17.614366 9.210806 -18.375087 0
M  V30 35 H 18.542869 8.581650 -19.724373 0
M  V30 36 H 12.124825 5.674677 -18.534410 0
M  V30 37 H 10.422669 4.292286 -18.073746 0
M  V30 38 H 10.449603 3.878869 -16.385026 0
M  V30 39 H 10.144683 1.388884 -17.141784 0
M  V30 40 H 9.754932 2.026382 -18.711917 0
M  V30 41 H 12.634506 3.906865 -17.020580 0
M  V30 42 H 11.932903 2.307891 -19.375598 0
M  V30 43 H 15.345152 7.137922 -21.231241 0
M  V30 44 H 7.579865 6.076633 -21.353687 0
M  V30 45 H 8.636381 4.699140 -21.107613 0
M  V30 46 H 13.451102 3.710769 -20.506327 0
M  V30 47 H 14.416943 0.359158 -17.583131 0
M  V30 48 H 8.253285 2.544704 -16.100822 0
M  V30 49 H 7.685737 1.612627 -17.466261 0
M  V30 50 H 16.709697 3.967850 -19.768716 0
M  V30 51 H 15.544303 5.149057 -20.534941 0
M  V30 52 H 13.172747 7.204504 -17.151247 0
M  V30 53 H 13.531321 5.523858 -16.752671 0
M  V30 54 H 14.430744 6.802490 -15.980971 0
M  V30 55 H 16.270351 4.842007 -17.507374 0
M  V30 56 H 17.287145 6.708353 -19.285220 0
M  V30 57 H 12.368729 7.344360 -20.391841 0
M  V30 58 H 13.384282 6.154253 -21.359655 0
M  V30 59 H 14.142330 1.411456 -19.503465 0
M  V30 60 H 8.238898 6.862668 -19.304430 0
M  V30 61 H 6.344604 5.445738 -19.172618 0
M  V30 62 H 6.154960 4.350235 -20.517512 0
M  V30 63 H 13.270016 10.164296 -22.380843 0
M  V30 64 H 14.875152 10.797168 -22.723904 0
M  V30 65 H 14.437726 9.153221 -23.221585 0
M  V30 66 H 16.225084 10.504882 -19.821695 0
M  V30 67 H 17.666449 10.428801 -20.834615 0
M  V30 68 H 10.604523 5.705750 -20.381609 0
M  V30 69 H 12.247329 2.335097 -16.849088 0
M  V30 END ATOM
M  V30 BEGIN BOND
M  V30 1 1 8 6
M  V30 2 1 9 6
M  V30 3 1 10 9
M  V30 4 1 11 4
M  V30 5 1 11 7
M  V30 6 1 13 3
M  V30 7 1 13 10
M  V30 8 1 15 4
M  V30 9 1 16 8
M  V30 10 1 18 1
M  V30 11 1 19 1
M  V30 12 1 19 17
M  V30 13 1 20 2
M  V30 14 1 20 11
M  V30 15 1 21 1
M  V30 16 1 21 20
M  V30 17 1 22 3
M  V30 18 1 23 5
M  V30 19 1 23 10
M  V30 20 1 23 14
M  V30 21 1 24 5 CFG=1
M  V30 22 1 24 13
M  V30 23 1 24 17
M  V30 24 1 24 19
M  V30 25 1 25 12
M  V30 26 2 26 21
M  V30 27 1 27 12
M  V30 28 1 28 15
M  V30 29 1 29 2
M  V30 30 1 29 4
M  V30 31 1 30 27
M  V30 32 1 31 16
M  V30 33 1 31 30
M  V30 34 1 32 3
M  V30 35 1 32 22
M  V30 36 2 33 31
M  V30 37 1 34 2
M  V30 38 1 35 2
M  V30 39 1 3 36 CFG=1
M  V30 40 1 37 6
M  V30 41 1 38 6
M  V30 42 1 39 8
M  V30 43 1 40 8
M  V30 44 1 41 9
M  V30 45 1 10 42 CFG=3
M  V30 46 1 11 43 CFG=1
M  V30 47 1 44 12
M  V30 48 1 45 12
M  V30 49 1 13 46 CFG=3
M  V30 50 1 47 14
M  V30 51 1 48 16
M  V30 52 1 49 16
M  V30 53 1 50 17
M  V30 54 1 51 17
M  V30 55 1 52 18
M  V30 56 1 53 18
M  V30 57 1 54 18
M  V30 58 1 19 55 CFG=1
M  V30 59 1 20 56 CFG=3
M  V30 60 1 57 22
M  V30 61 1 58 22
M  V30 62 1 23 59 CFG=3
M  V30 63 1 60 25
M  V30 64 1 61 27
M  V30 65 1 62 27
M  V30 66 1 63 28
M  V30 67 1 64 28
M  V30 68 1 65 28
M  V30 69 1 66 29
M  V30 70 1 67 29
M  V30 71 1 68 32
M  V30 72 1 69 9
M  V30 END BOND
M  V30 END CTAB
M  END
>  <i_epik_Tot_Q>  (1) 
1

>  <i_epik_Tot_abs_Q>  (1) 
1

>  <i_i_glide_confnum>  (1) 
1438

>  <i_i_glide_lignum>  (1) 
35

>  <i_i_glide_posenum>  (1) 
77

>  <i_i_glide_rotatable_bonds>  (1) 
15

>  <i_lp_mmshare_version>  (1) 
72125

>  <i_m_source_file_index>  (1) 
9

>  <i_f3d_flags>  (1) 
0

>  <num_sample>  (1) 
50

>  <b_lp_Chiralities_Consistent>  (1) 
1

>  <r_epik_Charging_Adjusted_Penalty>  (1) 
0.31458683345696248

>  <r_epik_Ionization_Penalty>  (1) 
0.14300301403106822

>  <r_epik_Ionization_Penalty_Charging>  (1) 
0.065080964065447874

>  <r_epik_Ionization_Penalty_Neutral>  (1) 
0.077922049965620341

>  <r_epik_State_Penalty>  (1) 
0.24950586939151459

>  <r_glide_ring_energy>  (1) 
0

>  <r_i_docking_score>  (1) 
-0.71300929770095967

>  <r_i_glide_ecoul>  (1) 
-0.74805375663851903

>  <r_i_glide_eff_state_penalty>  (1) 
0.24950586939151459

>  <r_i_glide_einternal>  (1) 
117.22859506603268

>  <r_i_glide_emodel>  (1) 
34.322492353141726

>  <r_i_glide_emodel_strain>  (1) 
0

>  <r_i_glide_energy>  (1) 
-21.712590252633387

>  <r_i_glide_erotb>  (1) 
1.0741905119875848

>  <r_i_glide_esite>  (1) 
-0.0088751503646088761

>  <r_i_glide_evdw>  (1) 
-20.964536495994867

>  <r_i_glide_gscore>  (1) 
-0.96251516709247431

>  <r_i_glide_gscore_strain>  (1) 
0

>  <r_i_glide_hbond>  (1) 
0

>  <r_i_glide_ligand_efficiency>  (1) 
-0.021606342354574537

>  <r_i_glide_ligand_efficiency_ln>  (1) 
-0.15856957604412891

>  <r_i_glide_ligand_efficiency_sa>  (1) 
-0.069303084847940691

>  <r_i_glide_lipo>  (1) 
-0.51115204455071084

>  <r_i_glide_metal>  (1) 
-0

>  <r_i_glide_rewards>  (1) 
-0.356243595869218

>  <r_lp_Energy>  (1) 
35.996015

>  <s_epik_Chemistry_Notes>  (1) 
This compound has an ester and may undergo hydrolysis at high or low pH. This compound contains an acetal/aminal-like group ( X-CH(R)-Y where X, Y are N, S, or O) that may be acid/base labile, releasing an aldehyde. This compound has a N-S or N-O group and may undergo hydrolysis at high or low pH.

>  <s_epik_cmdline>  (1) 
J2VwaWtfcHl0aG9uJywgJy1waHQnLCAnMS4wJywgJy1waCcsICc3LjQnLCAnLXRuJywgJzgnLCAnLW1hJywgJzUwMCcsICctaW1hZScsICc8aW5maWxlLm1hZT4nLCAnLW9tYWUnLCAnPG91dGZpbGUubWFlPic=

>  <s_epik_input>  (1) 
W0NIM11PTjFbQ0BIXShGKVtDQEBIXShbQ0gyXVtDSDJdMSlDKD1PKU4oW0NIM10pW0NASF0yW0NIMl1DMjNPW0NAQEhdKFtPSF0pW0NASF0oW0NASF0zW0NASF00W0NIMl1bTkhdNClbTkhdW0NIMl1bQ0gyXVtDSDJdQyg9TylPW0NIMl1bQ0gyXVtPSF0=

>  <s_glide_docking_method>  (1) 
confgen

>  <s_i_glide_gridfile>  (1) 
gpcr_drd2_6luq_protein_autoprepared_prepared

>  <s_lp_Force_Field>  (1) 
S-OPLS

>  <s_lp_Variant>  (1) 
DiffSBDD_8-4

>  <s_m_source_file>  (1) 
generated_generic_title2_ligand_DiffSBDD_2026-06-23_prepared.sdf

>  <GenAI_Model>  (1) 
DiffSBDD

>  <Protein>  (1) 
generic_title2

$$$$
DiffSBDD_28
     RDKit          3D

  0  0  0  0  0  0  0  0  0  0999 V3000
M  V30 BEGIN CTAB
M  V30 COUNTS 78 85 0 0 1
M  V30 BEGIN ATOM
M  V30 1 F 18.320632 21.415790 -14.404383 0
M  V30 2 C 23.163603 15.434485 -19.041017 0 CFG=1
M  V30 3 C 22.347544 16.614865 -15.538534 0 CFG=2
M  V30 4 C 22.529680 12.753138 -18.558306 0 CFG=2
M  V30 5 C 19.633716 18.438224 -12.609099 0 CFG=1
M  V30 6 C 22.289740 15.570332 -20.295729 0
M  V30 7 C 21.990810 18.554390 -13.795733 0 CFG=2
M  V30 8 C 19.332372 21.032352 -10.685772 0 CFG=1
M  V30 9 C 21.006811 16.719030 -16.284991 0
M  V30 10 C 20.229979 18.700612 -11.233410 0 CFG=1
M  V30 11 C 24.876873 14.065194 -19.177058 0 CFG=1
M  V30 12 C 23.513147 18.665554 -15.814910 0
M  V30 13 C 23.422932 13.944589 -18.791116 0 CFG=1
M  V30 14 O 25.200428 13.329015 -20.337285 0
M  V30 15 C 18.142662 21.418822 -13.033224 0 CFG=1
M  V30 16 C 20.487067 18.344562 -13.852078 0 CFG=1
M  V30 17 O 20.000238 17.177043 -13.192587 0
M  V30 18 N 22.813054 17.835988 -14.823201 0 CFG=2 CHG=1
M  V30 19 O 22.084119 10.397720 -18.379805 0
M  V30 20 C 16.700681 20.971574 -12.562577 0
M  V30 21 O 23.193562 13.421783 -17.473102 0
M  V30 22 C 21.745550 19.045447 -11.298603 0
M  V30 23 C 24.677510 15.572756 -19.344006 0
M  V30 24 N 22.583720 16.246154 -17.940893 0
M  V30 25 C 22.999619 11.352562 -18.888374 0
M  V30 26 N 20.388542 21.611271 -9.826364 0 CHG=1
M  V30 27 C 22.517351 18.258093 -12.376145 0
M  V30 28 C 20.587504 20.701896 -8.682724 0
M  V30 29 C 19.679059 19.512886 -8.984544 0
M  V30 30 O 16.566317 20.390442 -11.490370 0
M  V30 31 C 24.240506 17.648939 -16.695945 0
M  V30 32 C 19.389625 21.548701 -12.148636 0
M  V30 33 O 17.198190 22.263913 -12.626504 0
M  V30 34 N 19.375453 19.582434 -10.405451 0
M  V30 35 C 21.237705 15.888668 -17.533331 0
M  V30 36 C 22.430124 9.075817 -18.758911 0
M  V30 37 C 23.349113 16.390595 -16.699167 0 CFG=1
M  V30 38 H 22.337286 15.757392 -14.864157 0
M  V30 39 H 21.457929 12.925588 -18.627249 0
M  V30 40 H 18.567598 18.628385 -12.711059 0
M  V30 41 H 22.768839 15.135483 -21.173625 0
M  V30 42 H 21.328765 15.067125 -20.185133 0
M  V30 43 H 22.089021 16.616524 -20.528971 0
M  V30 44 H 22.142608 19.621994 -13.963366 0
M  V30 45 H 18.417559 21.423798 -10.239019 0
M  V30 46 H 20.797481 17.742234 -16.598051 0
M  V30 47 H 20.175410 16.352424 -15.693185 0
M  V30 48 H 20.186471 17.717709 -10.760615 0
M  V30 49 H 25.578210 13.829844 -18.375518 0
M  V30 50 H 24.201541 19.371123 -15.348386 0
M  V30 51 H 22.786922 19.230155 -16.402069 0
M  V30 52 H 24.488310 13.436849 -20.949099 0
M  V30 53 H 19.976082 18.640161 -14.764408 0
M  V30 54 H 22.203630 18.847715 -10.329350 0
M  V30 55 H 21.898947 20.105186 -11.492718 0
M  V30 56 H 25.260770 16.128285 -18.613827 0
M  V30 57 H 24.896771 15.934929 -20.349498 0
M  V30 58 H 23.062677 11.261933 -19.973865 0
M  V30 59 H 23.999587 11.190178 -18.482691 0
M  V30 60 H 20.127508 22.536568 -9.515159 0
M  V30 61 H 22.450320 17.190244 -12.163052 0
M  V30 62 H 23.575950 18.514531 -12.315248 0
M  V30 63 H 20.316473 21.182914 -7.742084 0
M  V30 64 H 21.635172 20.406301 -8.623972 0
M  V30 65 H 18.752407 19.624062 -8.419066 0
M  V30 66 H 20.115870 18.557527 -8.689238 0
M  V30 67 H 25.208202 17.405012 -16.255847 0
M  V30 68 H 24.427991 18.050976 -17.692344 0
M  V30 69 H 19.642280 22.609734 -12.133798 0
M  V30 70 H 20.218250 21.084171 -12.678197 0
M  V30 71 H 20.500425 16.108242 -18.306001 0
M  V30 72 H 21.165236 14.830917 -17.284171 0
M  V30 73 H 21.682970 8.377574 -18.384823 0
M  V30 74 H 22.464967 8.969368 -19.843957 0
M  V30 75 H 23.400108 8.790569 -18.349082 0
M  V30 76 H 23.948842 15.502581 -16.500664 0
M  V30 77 H 23.581256 17.478775 -14.273582 0
M  V30 78 H 21.250942 21.661197 -10.347975 0
M  V30 END ATOM
M  V30 BEGIN BOND
M  V30 1 1 2 6 CFG=3
M  V30 2 1 9 3
M  V30 3 1 10 5
M  V30 4 1 13 2
M  V30 5 1 13 4
M  V30 6 1 13 11
M  V30 7 1 14 11
M  V30 8 1 15 1 CFG=3
M  V30 9 1 16 5
M  V30 10 1 16 7
M  V30 11 1 17 5
M  V30 12 1 17 16
M  V30 13 1 18 3
M  V30 14 1 18 7
M  V30 15 1 18 12
M  V30 16 1 20 15
M  V30 17 1 21 4
M  V30 18 1 13 21 CFG=1
M  V30 19 1 22 10
M  V30 20 1 23 2
M  V30 21 1 23 11
M  V30 22 1 24 2
M  V30 23 1 25 4
M  V30 24 1 25 19
M  V30 25 1 26 8
M  V30 26 1 27 7
M  V30 27 1 27 22
M  V30 28 1 28 26
M  V30 29 1 29 28
M  V30 30 2 30 20
M  V30 31 1 31 12
M  V30 32 1 32 8
M  V30 33 1 32 15
M  V30 34 1 33 15
M  V30 35 1 33 20
M  V30 36 1 34 8
M  V30 37 1 34 10
M  V30 38 1 34 29
M  V30 39 1 35 9
M  V30 40 1 35 24
M  V30 41 1 36 19
M  V30 42 1 37 3
M  V30 43 1 37 24
M  V30 44 1 37 31
M  V30 45 1 3 38 CFG=1
M  V30 46 1 4 39 CFG=1
M  V30 47 1 5 40 CFG=3
M  V30 48 1 41 6
M  V30 49 1 42 6
M  V30 50 1 43 6
M  V30 51 1 7 44 CFG=3
M  V30 52 1 8 45 CFG=1
M  V30 53 1 46 9
M  V30 54 1 47 9
M  V30 55 1 10 48 CFG=1
M  V30 56 1 11 49 CFG=1
M  V30 57 1 50 12
M  V30 58 1 51 12
M  V30 59 1 52 14
M  V30 60 1 16 53 CFG=3
M  V30 61 1 54 22
M  V30 62 1 55 22
M  V30 63 1 56 23
M  V30 64 1 57 23
M  V30 65 1 58 25
M  V30 66 1 59 25
M  V30 67 1 60 26
M  V30 68 1 61 27
M  V30 69 1 62 27
M  V30 70 1 63 28
M  V30 71 1 64 28
M  V30 72 1 65 29
M  V30 73 1 66 29
M  V30 74 1 67 31
M  V30 75 1 68 31
M  V30 76 1 69 32
M  V30 77 1 70 32
M  V30 78 1 71 35
M  V30 79 1 72 35
M  V30 80 1 73 36
M  V30 81 1 74 36
M  V30 82 1 75 36
M  V30 83 1 37 76 CFG=1
M  V30 84 1 18 77 CFG=1
M  V30 85 1 78 26
M  V30 END BOND
M  V30 END CTAB
M  END
>  <i_epik_Tot_Q>  (1) 
2

>  <i_epik_Tot_abs_Q>  (1) 
2

>  <i_i_glide_confnum>  (1) 
338

>  <i_i_glide_lignum>  (1) 
87

>  <i_i_glide_posenum>  (1) 
197

>  <i_i_glide_rotatable_bonds>  (1) 
8

>  <i_lp_mmshare_version>  (1) 
72125

>  <i_m_source_file_index>  (1) 
29

>  <i_f3d_flags>  (1) 
0

>  <num_sample>  (1) 
50

>  <b_lp_Chiralities_Consistent>  (1) 
1

>  <r_epik_Charging_Adjusted_Penalty>  (1) 
1.0492181154286748

>  <r_epik_Ionization_Penalty>  (1) 
0.8301501805432685

>  <r_epik_Ionization_Penalty_Charging>  (1) 
0.211122083805314

>  <r_epik_Ionization_Penalty_Neutral>  (1) 
0.61902809673795445

>  <r_epik_State_Penalty>  (1) 
0.83809603162336077

>  <r_glide_ring_energy>  (1) 
0.81914574756082947

>  <r_i_docking_score>  (1) 
-0.64515666275703643

>  <r_i_glide_ecoul>  (1) 
-0.50369220548346716

>  <r_i_glide_eff_state_penalty>  (1) 
0.83809603162336077

>  <r_i_glide_einternal>  (1) 
4.2908165349167504

>  <r_i_glide_emodel>  (1) 
-18.367623483704396

>  <r_i_glide_emodel_strain>  (1) 
0.0099584619737242974

>  <r_i_glide_energy>  (1) 
-19.43264538412658

>  <r_i_glide_erotb>  (1) 
0.44856850619138583

>  <r_i_glide_esite>  (1) 
0

>  <r_i_glide_evdw>  (1) 
-18.928953178643113

>  <r_i_glide_gscore>  (1) 
-1.4832526943803972

>  <r_i_glide_gscore_strain>  (1) 
0

>  <r_i_glide_hbond>  (1) 
0

>  <r_i_glide_ligand_efficiency>  (1) 
-0.017436666561000985

>  <r_i_glide_ligand_efficiency_ln>  (1) 
-0.13991935553393062

>  <r_i_glide_ligand_efficiency_sa>  (1) 
-0.058102841334431783

>  <r_i_glide_lipo>  (1) 
-0.90981971081710733

>  <r_i_glide_metal>  (1) 
-0

>  <r_i_glide_rewards>  (1) 
0

>  <r_lp_Energy>  (1) 
63.554969999999997

>  <s_epik_Chemistry_Notes>  (1) 
This compound has an ester and may undergo hydrolysis at high or low pH. This compound contains an acetal/aminal-like group ( X-CH(R)-Y where X, Y are N, S, or O) that may be acid/base labile, releasing an aldehyde.

>  <s_epik_cmdline>  (1) 
J2VwaWtfcHl0aG9uJywgJy1waHQnLCAnMS4wJywgJy1waCcsICc3LjQnLCAnLXRuJywgJzgnLCAnLW1hJywgJzUwMCcsICctaW1hZScsICc8aW5maWxlLm1hZT4nLCAnLW9tYWUnLCAnPG91dGZpbGUubWFlPic=

>  <s_epik_input>  (1) 
Tz1DKE8xKUMxKEYpW0NIMl1bQ0BASF0yW05IXVtDSDJdW0NIMl1OMltDQEBIXTNbQ0gyXVtDSDJdW0NASF0oW0NAQEhdKE80KVtDQEhdMzQpTjVbQ0gyXVtDSDJdW0NAQEhdKFtDQEhdNTYpTihbQ0gyXVtDSDJdNilbQ0BAXShbQ0gzXSkoW0NIMl1bQ0BASF03W09IXSlbQ0BAXTc4W0NASF0oTzgpW0NIMl1PW0NIM10=

>  <s_glide_docking_method>  (1) 
confgen

>  <s_i_glide_gridfile>  (1) 
gpcr_drd2_6luq_protein_autoprepared_prepared

>  <s_lp_Force_Field>  (1) 
S-OPLS

>  <s_lp_Variant>  (1) 
DiffSBDD_28-10

>  <s_m_source_file>  (1) 
generated_generic_title2_ligand_DiffSBDD_2026-06-23_prepared.sdf

>  <GenAI_Model>  (1) 
DiffSBDD

>  <Protein>  (1) 
generic_title2

$$$$
DiffSBDD_34
     RDKit          3D

  0  0  0  0  0  0  0  0  0  0999 V3000
M  V30 BEGIN CTAB
M  V30 COUNTS 46 46 0 0 1
M  V30 BEGIN ATOM
M  V30 1 C 11.004160 7.393939 -5.095485 0
M  V30 2 C 9.845158 5.933210 -8.785116 0
M  V30 3 C 5.752929 5.530453 -14.489652 0
M  V30 4 C 7.879437 5.634008 -12.177330 0
M  V30 5 C 11.712031 8.536458 -4.344528 0
M  V30 6 C 12.685757 8.731218 -1.893810 0
M  V30 7 C 10.005393 7.868728 -6.171670 0
M  V30 8 C 8.265546 5.396113 -10.705896 0
M  V30 9 C 10.610617 8.093652 -7.566546 0
M  V30 10 C 6.765826 6.678071 -12.404547 0 CFG=2
M  V30 11 C 6.347580 6.807533 -13.882804 0
M  V30 12 C 11.016709 6.790248 -8.272681 0
M  V30 13 C 12.052044 7.364985 -1.985052 0
M  V30 14 C 9.351385 6.347780 -10.177879 0
M  V30 15 O 7.207989 7.951174 -11.985026 0
M  V30 16 C 12.608152 8.023761 -3.227495 0
M  V30 17 H 10.449218 6.790189 -4.379921 0
M  V30 18 H 11.746314 6.712145 -5.506539 0
M  V30 19 H 9.012953 5.939767 -8.081903 0
M  V30 20 H 10.175412 4.895244 -8.830143 0
M  V30 21 H 5.375350 5.724194 -15.493440 0
M  V30 22 H 6.493825 4.735975 -14.573263 0
M  V30 23 H 4.924811 5.157726 -13.887734 0
M  V30 24 H 7.529882 4.676702 -12.562042 0
M  V30 25 H 8.762856 5.880986 -12.767521 0
M  V30 26 H 12.317991 9.124333 -5.034834 0
M  V30 27 H 10.975437 9.224272 -3.929190 0
M  V30 28 H 13.656988 8.790221 -1.407297 0
M  V30 29 H 12.027171 9.581092 -1.723201 0
M  V30 30 H 9.527446 8.790524 -5.851165 0
M  V30 31 H 9.192360 7.146577 -6.242264 0
M  V30 32 H 7.381150 5.439701 -10.068357 0
M  V30 33 H 8.643331 4.376604 -10.621773 0
M  V30 34 H 11.479801 8.745885 -7.476521 0
M  V30 35 H 9.895215 8.631446 -8.190386 0
M  V30 36 H 5.890122 6.417119 -11.808223 0
M  V30 37 H 5.593928 7.590229 -13.965355 0
M  V30 38 H 7.196348 7.134881 -14.485279 0
M  V30 39 H 11.607561 6.188558 -7.585035 0
M  V30 40 H 11.682606 7.026513 -9.103371 0
M  V30 41 H 10.975412 7.302553 -1.861486 0
M  V30 42 H 12.608426 6.519738 -1.585042 0
M  V30 43 H 10.186519 6.357996 -10.876890 0
M  V30 44 H 8.975453 7.368640 -10.140313 0
M  V30 45 H 7.135512 7.988832 -11.022186 0
M  V30 46 H 13.536347 7.590210 -3.585021 0
M  V30 END ATOM
M  V30 BEGIN BOND
M  V30 1 1 5 1
M  V30 2 1 7 1
M  V30 3 1 8 4
M  V30 4 1 9 7
M  V30 5 1 10 4
M  V30 6 1 11 3
M  V30 7 1 11 10
M  V30 8 1 12 2
M  V30 9 1 12 9
M  V30 10 1 13 6
M  V30 11 1 14 2
M  V30 12 1 14 8
M  V30 13 1 15 10
M  V30 14 1 16 5
M  V30 15 1 16 6
M  V30 16 1 16 13
M  V30 17 1 17 1
M  V30 18 1 18 1
M  V30 19 1 19 2
M  V30 20 1 20 2
M  V30 21 1 21 3
M  V30 22 1 22 3
M  V30 23 1 23 3
M  V30 24 1 24 4
M  V30 25 1 25 4
M  V30 26 1 26 5
M  V30 27 1 27 5
M  V30 28 1 28 6
M  V30 29 1 29 6
M  V30 30 1 30 7
M  V30 31 1 31 7
M  V30 32 1 32 8
M  V30 33 1 33 8
M  V30 34 1 34 9
M  V30 35 1 35 9
M  V30 36 1 10 36 CFG=1
M  V30 37 1 37 11
M  V30 38 1 38 11
M  V30 39 1 39 12
M  V30 40 1 40 12
M  V30 41 1 41 13
M  V30 42 1 42 13
M  V30 43 1 43 14
M  V30 44 1 44 14
M  V30 45 1 45 15
M  V30 46 1 46 16
M  V30 END BOND
M  V30 END CTAB
M  END
>  <i_epik_Tot_Q>  (1) 
0

>  <i_epik_Tot_abs_Q>  (1) 
0

>  <i_i_glide_confnum>  (1) 
127

>  <i_i_glide_lignum>  (1) 
97

>  <i_i_glide_posenum>  (1) 
134

>  <i_i_glide_rotatable_bonds>  (1) 
12

>  <i_lp_mmshare_version>  (1) 
72125

>  <i_m_source_file_index>  (1) 
35

>  <i_f3d_flags>  (1) 
0

>  <num_sample>  (1) 
50

>  <b_lp_Chiralities_Consistent>  (1) 
1

>  <r_epik_Charging_Adjusted_Penalty>  (1) 
0

>  <r_epik_Ionization_Penalty>  (1) 
4.3564456379130965e-07

>  <r_epik_Ionization_Penalty_Charging>  (1) 
0

>  <r_epik_Ionization_Penalty_Neutral>  (1) 
4.3564456379130965e-07

>  <r_epik_State_Penalty>  (1) 
-0

>  <r_glide_ring_energy>  (1) 
0

>  <r_i_docking_score>  (1) 
-0.6094758391072248

>  <r_i_glide_ecoul>  (1) 
-5.6793986684987399

>  <r_i_glide_eff_state_penalty>  (1) 
-0

>  <r_i_glide_einternal>  (1) 
9.5568804783347154

>  <r_i_glide_emodel>  (1) 
-26.010497970764742

>  <r_i_glide_emodel_strain>  (1) 
0.56746406634857394

>  <r_i_glide_energy>  (1) 
-30.272173698367887

>  <r_i_glide_erotb>  (1) 
5.9675124858656083

>  <r_i_glide_esite>  (1) 
0

>  <r_i_glide_evdw>  (1) 
-24.592775029869145

>  <r_i_glide_gscore>  (1) 
-0.6094758391072248

>  <r_i_glide_gscore_strain>  (1) 
0

>  <r_i_glide_hbond>  (1) 
-0.16

>  <r_i_glide_ligand_efficiency>  (1) 
-0.03809223994420155

>  <r_i_glide_ligand_efficiency_ln>  (1) 
-0.16155374571161304

>  <r_i_glide_ligand_efficiency_sa>  (1) 
-0.09598642988669169

>  <r_i_glide_lipo>  (1) 
-1.8334707852248338

>  <r_i_glide_metal>  (1) 
-0

>  <r_i_glide_rewards>  (1) 
-2.5019689879797316

>  <r_lp_Energy>  (1) 
11.951996999999999

>  <r_lp_tautomer_probability>  (1) 
1

>  <s_epik_cmdline>  (1) 
J2VwaWtfcHl0aG9uJywgJy1waHQnLCAnMS4wJywgJy1waCcsICc3LjQnLCAnLXRuJywgJzgnLCAnLW1hJywgJzUwMCcsICctaW1hZScsICc8aW5maWxlLm1hZT4nLCAnLW9tYWUnLCAnPG91dGZpbGUubWFlPic=

>  <s_epik_input>  (1) 
W0NIMl0xW0NIMl1bQ0hdMVtDSDJdW0NIMl1bQ0gyXVtDSDJdW0NIMl1bQ0gyXVtDSDJdW0NIMl1bQ0gyXVtDQEBIXShbT0hdKVtDSDJdW0NIM10=

>  <s_glide_docking_method>  (1) 
confgen

>  <s_i_glide_gridfile>  (1) 
gpcr_drd2_6luq_protein_autoprepared_prepared

>  <s_lp_Force_Field>  (1) 
S-OPLS

>  <s_lp_Variant>  (1) 
DiffSBDD_34-1

>  <s_m_source_file>  (1) 
generated_generic_title2_ligand_DiffSBDD_2026-06-23_prepared.sdf

>  <GenAI_Model>  (1) 
DiffSBDD

>  <Protein>  (1) 
generic_title2

$$$$
DiffSBDD_34
     RDKit          3D

  0  0  0  0  0  0  0  0  0  0999 V3000
M  V30 BEGIN CTAB
M  V30 COUNTS 46 46 0 0 1
M  V30 BEGIN ATOM
M  V30 1 C 10.975523 7.122133 -5.043834 0
M  V30 2 C 9.659293 5.669443 -8.810891 0
M  V30 3 C 6.861996 7.118735 -14.840688 0
M  V30 4 C 7.624003 5.536756 -12.193412 0
M  V30 5 C 11.694072 8.326402 -4.401701 0
M  V30 6 C 12.629303 8.670636 -1.951216 0
M  V30 7 C 9.888926 7.509069 -6.070263 0
M  V30 8 C 8.084846 5.206234 -10.759556 0
M  V30 9 C 10.398365 7.783922 -7.495185 0
M  V30 10 C 6.608102 6.693384 -12.294343 0 CFG=2
M  V30 11 C 5.920009 6.805550 -13.668843 0
M  V30 12 C 10.819065 6.512314 -8.251294 0
M  V30 13 C 12.052387 7.277597 -2.002704 0
M  V30 14 C 9.241800 6.076086 -10.232323 0
M  V30 15 O 7.225942 7.921592 -11.985027 0
M  V30 16 C 12.603672 7.911169 -3.258402 0
M  V30 17 H 10.493632 6.539854 -4.258627 0
M  V30 18 H 11.707081 6.442390 -5.479181 0
M  V30 19 H 8.797738 5.713759 -8.143671 0
M  V30 20 H 9.965742 4.622813 -8.828115 0
M  V30 21 H 6.303587 7.195179 -15.773504 0
M  V30 22 H 7.375194 8.068134 -14.689586 0
M  V30 23 H 7.616832 6.343458 -14.969995 0
M  V30 24 H 7.144807 4.642497 -12.593627 0
M  V30 25 H 8.488427 5.719358 -12.832362 0
M  V30 26 H 12.286533 8.852959 -5.149226 0
M  V30 27 H 10.975664 9.057758 -4.033384 0
M  V30 28 H 13.590134 8.790220 -1.455290 0
M  V30 29 H 11.933417 9.497948 -1.823037 0
M  V30 30 H 9.357290 8.390128 -5.716915 0
M  V30 31 H 9.139451 6.718191 -6.107718 0
M  V30 32 H 7.236209 5.257800 -10.075519 0
M  V30 33 H 8.415833 4.167267 -10.745438 0
M  V30 34 H 11.239949 8.475080 -7.444394 0
M  V30 35 H 9.622827 8.297714 -8.065829 0
M  V30 36 H 5.824693 6.535030 -11.551732 0
M  V30 37 H 5.379098 5.882231 -13.878964 0
M  V30 38 H 5.162400 7.587237 -13.616163 0
M  V30 39 H 11.396277 5.879031 -7.583291 0
M  V30 40 H 11.491270 6.789969 -9.063416 0
M  V30 41 H 10.975430 7.178956 -1.898547 0
M  V30 42 H 12.632831 6.458275 -1.584793 0
M  V30 43 H 10.092416 5.990268 -10.908407 0
M  V30 44 H 8.975413 7.131052 -10.231206 0
M  V30 45 H 7.223705 7.990199 -11.022412 0
M  V30 46 H 13.556684 7.509178 -3.584989 0
M  V30 END ATOM
M  V30 BEGIN BOND
M  V30 1 1 5 1
M  V30 2 1 7 1
M  V30 3 1 8 4
M  V30 4 1 9 7
M  V30 5 1 10 4
M  V30 6 1 11 3
M  V30 7 1 11 10
M  V30 8 1 12 2
M  V30 9 1 12 9
M  V30 10 1 13 6
M  V30 11 1 14 2
M  V30 12 1 14 8
M  V30 13 1 15 10
M  V30 14 1 16 5
M  V30 15 1 16 6
M  V30 16 1 16 13
M  V30 17 1 17 1
M  V30 18 1 18 1
M  V30 19 1 19 2
M  V30 20 1 20 2
M  V30 21 1 21 3
M  V30 22 1 22 3
M  V30 23 1 23 3
M  V30 24 1 24 4
M  V30 25 1 25 4
M  V30 26 1 26 5
M  V30 27 1 27 5
M  V30 28 1 28 6
M  V30 29 1 29 6
M  V30 30 1 30 7
M  V30 31 1 31 7
M  V30 32 1 32 8
M  V30 33 1 33 8
M  V30 34 1 34 9
M  V30 35 1 35 9
M  V30 36 1 10 36 CFG=1
M  V30 37 1 37 11
M  V30 38 1 38 11
M  V30 39 1 39 12
M  V30 40 1 40 12
M  V30 41 1 41 13
M  V30 42 1 42 13
M  V30 43 1 43 14
M  V30 44 1 44 14
M  V30 45 1 45 15
M  V30 46 1 46 16
M  V30 END BOND
M  V30 END CTAB
M  END
>  <i_epik_Tot_Q>  (1) 
0

>  <i_epik_Tot_abs_Q>  (1) 
0

>  <i_i_glide_confnum>  (1) 
127

>  <i_i_glide_lignum>  (1) 
97

>  <i_i_glide_posenum>  (1) 
134

>  <i_i_glide_rotatable_bonds>  (1) 
12

>  <i_lp_mmshare_version>  (1) 
72125

>  <i_m_source_file_index>  (1) 
35

>  <i_f3d_flags>  (1) 
0

>  <num_sample>  (1) 
50

>  <b_lp_Chiralities_Consistent>  (1) 
1

>  <r_epik_Charging_Adjusted_Penalty>  (1) 
0

>  <r_epik_Ionization_Penalty>  (1) 
4.3564456379130965e-07

>  <r_epik_Ionization_Penalty_Charging>  (1) 
0

>  <r_epik_Ionization_Penalty_Neutral>  (1) 
4.3564456379130965e-07

>  <r_epik_State_Penalty>  (1) 
-0

>  <r_glide_ring_energy>  (1) 
0

>  <r_i_docking_score>  (1) 
-0.46109277681908845

>  <r_i_glide_ecoul>  (1) 
-5.6584785478909296

>  <r_i_glide_eff_state_penalty>  (1) 
-0

>  <r_i_glide_einternal>  (1) 
11.638841509994233

>  <r_i_glide_emodel>  (1) 
-24.949521725216822

>  <r_i_glide_emodel_strain>  (1) 
0.75528645968890018

>  <r_i_glide_energy>  (1) 
-30.703966784099045

>  <r_i_glide_erotb>  (1) 
5.9675124858656083

>  <r_i_glide_esite>  (1) 
0

>  <r_i_glide_evdw>  (1) 
-25.045488236208115

>  <r_i_glide_gscore>  (1) 
-0.46109277681908845

>  <r_i_glide_gscore_strain>  (1) 
0

>  <r_i_glide_hbond>  (1) 
-0.16

>  <r_i_glide_ligand_efficiency>  (1) 
-0.028818298551193028

>  <r_i_glide_ligand_efficiency_ln>  (1) 
-0.1222218510331914

>  <r_i_glide_ligand_efficiency_sa>  (1) 
-0.072617561933606051

>  <r_i_glide_lipo>  (1) 
-1.6829495045549479

>  <r_i_glide_metal>  (1) 
-0

>  <r_i_glide_rewards>  (1) 
-2.4846095641357042

>  <r_lp_Energy>  (1) 
11.951996999999999

>  <r_lp_tautomer_probability>  (1) 
1

>  <s_epik_cmdline>  (1) 
J2VwaWtfcHl0aG9uJywgJy1waHQnLCAnMS4wJywgJy1waCcsICc3LjQnLCAnLXRuJywgJzgnLCAnLW1hJywgJzUwMCcsICctaW1hZScsICc8aW5maWxlLm1hZT4nLCAnLW9tYWUnLCAnPG91dGZpbGUubWFlPic=

>  <s_epik_input>  (1) 
W0NIMl0xW0NIMl1bQ0hdMVtDSDJdW0NIMl1bQ0gyXVtDSDJdW0NIMl1bQ0gyXVtDSDJdW0NIMl1bQ0gyXVtDQEBIXShbT0hdKVtDSDJdW0NIM10=

>  <s_glide_docking_method>  (1) 
confgen

>  <s_i_glide_gridfile>  (1) 
gpcr_drd2_6luq_protein_autoprepared_prepared

>  <s_lp_Force_Field>  (1) 
S-OPLS

>  <s_lp_Variant>  (1) 
DiffSBDD_34-1

>  <s_m_source_file>  (1) 
generated_generic_title2_ligand_DiffSBDD_2026-06-23_prepared.sdf

>  <GenAI_Model>  (1) 
DiffSBDD

>  <Protein>  (1) 
generic_title2

$$$$
DiffSBDD_34
     RDKit          3D

  0  0  0  0  0  0  0  0  0  0999 V3000
M  V30 BEGIN CTAB
M  V30 COUNTS 46 46 0 0 1
M  V30 BEGIN ATOM
M  V30 1 C 12.005570 9.258253 -5.292024 0
M  V30 2 C 9.938470 6.776833 -9.211309 0
M  V30 3 C 6.043619 2.609202 -13.172687 0
M  V30 4 C 8.379568 4.287366 -11.803346 0
M  V30 5 C 12.749588 9.114515 -3.954783 0
M  V30 6 C 11.775410 7.627311 -2.017152 0
M  V30 7 C 11.214362 8.008405 -5.720062 0
M  V30 8 C 8.957186 5.596037 -11.239757 0
M  V30 9 C 10.891653 8.022539 -7.218833 0
M  V30 10 C 7.894883 4.400552 -13.262839 0 CFG=2
M  V30 11 C 7.350174 3.074718 -13.827180 0
M  V30 12 C 10.156964 6.761815 -7.692688 0
M  V30 13 C 12.450322 8.808260 -1.378245 0
M  V30 14 C 9.202315 5.532368 -9.725522 0
M  V30 15 O 8.975408 4.790221 -14.084255 0
M  V30 16 C 11.852899 8.953465 -2.753759 0
M  V30 17 H 12.751469 9.485165 -6.055207 0
M  V30 18 H 11.341584 10.123490 -5.263200 0
M  V30 19 H 10.902373 6.859648 -9.713870 0
M  V30 20 H 9.375406 7.670026 -9.484455 0
M  V30 21 H 5.682164 1.692458 -13.638511 0
M  V30 22 H 6.175406 2.397589 -12.112471 0
M  V30 23 H 5.264166 3.365367 -13.268203 0
M  V30 24 H 7.539870 3.990454 -11.175562 0
M  V30 25 H 9.121924 3.492215 -11.714982 0
M  V30 26 H 13.409078 8.253272 -3.985025 0
M  V30 27 H 13.377266 9.990225 -3.796707 0
M  V30 28 H 10.825707 7.319449 -1.584984 0
M  V30 29 H 12.411289 6.812583 -2.358776 0
M  V30 30 H 10.284173 7.941618 -5.158888 0
M  V30 31 H 11.775407 7.104231 -5.483849 0
M  V30 32 H 9.893192 5.827296 -11.748965 0
M  V30 33 H 8.275423 6.421859 -11.449728 0
M  V30 34 H 11.818472 8.127311 -7.784380 0
M  V30 35 H 10.286548 8.898746 -7.450704 0
M  V30 36 H 7.125843 5.171396 -13.333315 0
M  V30 37 H 7.170067 3.188689 -14.896992 0
M  V30 38 H 8.104495 2.292286 -13.729487 0
M  V30 39 H 9.194124 6.685078 -7.184355 0
M  V30 40 H 10.728587 5.874926 -7.416164 0
M  V30 41 H 13.534653 8.790210 -1.291561 0
M  V30 42 H 11.919995 9.333016 -0.587987 0
M  V30 43 H 8.244835 5.437599 -9.210166 0
M  V30 44 H 9.775401 4.638052 -9.479278 0
M  V30 45 H 9.421781 5.513696 -13.671587 0
M  V30 46 H 10.975411 9.590229 -2.785009 0
M  V30 END ATOM
M  V30 BEGIN BOND
M  V30 1 1 5 1
M  V30 2 1 7 1
M  V30 3 1 8 4
M  V30 4 1 9 7
M  V30 5 1 10 4
M  V30 6 1 11 3
M  V30 7 1 11 10
M  V30 8 1 12 2
M  V30 9 1 12 9
M  V30 10 1 13 6
M  V30 11 1 14 2
M  V30 12 1 14 8
M  V30 13 1 15 10
M  V30 14 1 16 5
M  V30 15 1 16 6
M  V30 16 1 16 13
M  V30 17 1 17 1
M  V30 18 1 18 1
M  V30 19 1 19 2
M  V30 20 1 20 2
M  V30 21 1 21 3
M  V30 22 1 22 3
M  V30 23 1 23 3
M  V30 24 1 24 4
M  V30 25 1 25 4
M  V30 26 1 26 5
M  V30 27 1 27 5
M  V30 28 1 28 6
M  V30 29 1 29 6
M  V30 30 1 30 7
M  V30 31 1 31 7
M  V30 32 1 32 8
M  V30 33 1 33 8
M  V30 34 1 34 9
M  V30 35 1 35 9
M  V30 36 1 10 36 CFG=1
M  V30 37 1 37 11
M  V30 38 1 38 11
M  V30 39 1 39 12
M  V30 40 1 40 12
M  V30 41 1 41 13
M  V30 42 1 42 13
M  V30 43 1 43 14
M  V30 44 1 44 14
M  V30 45 1 45 15
M  V30 46 1 46 16
M  V30 END BOND
M  V30 END CTAB
M  END
>  <i_epik_Tot_Q>  (1) 
0

>  <i_epik_Tot_abs_Q>  (1) 
0

>  <i_i_glide_confnum>  (1) 
38

>  <i_i_glide_lignum>  (1) 
97

>  <i_i_glide_posenum>  (1) 
340

>  <i_i_glide_rotatable_bonds>  (1) 
12

>  <i_lp_mmshare_version>  (1) 
72125

>  <i_m_source_file_index>  (1) 
35

>  <i_f3d_flags>  (1) 
0

>  <num_sample>  (1) 
50

>  <b_lp_Chiralities_Consistent>  (1) 
1

>  <r_epik_Charging_Adjusted_Penalty>  (1) 
0

>  <r_epik_Ionization_Penalty>  (1) 
4.3564456379130965e-07

>  <r_epik_Ionization_Penalty_Charging>  (1) 
0

>  <r_epik_Ionization_Penalty_Neutral>  (1) 
4.3564456379130965e-07

>  <r_epik_State_Penalty>  (1) 
-0

>  <r_glide_ring_energy>  (1) 
0

>  <r_i_docking_score>  (1) 
-0.34829095727810722

>  <r_i_glide_ecoul>  (1) 
-0.026194614391614135

>  <r_i_glide_eff_state_penalty>  (1) 
-0

>  <r_i_glide_einternal>  (1) 
3.8215270936505759

>  <r_i_glide_emodel>  (1) 
-24.790127930336674

>  <r_i_glide_emodel_strain>  (1) 
0.17348510811006612

>  <r_i_glide_energy>  (1) 
-26.254783510241055

>  <r_i_glide_erotb>  (1) 
5.9675124858656083

>  <r_i_glide_esite>  (1) 
0

>  <r_i_glide_evdw>  (1) 
-26.228588895849441

>  <r_i_glide_gscore>  (1) 
-0.34829095727810722

>  <r_i_glide_gscore_strain>  (1) 
0

>  <r_i_glide_hbond>  (1) 
0

>  <r_i_glide_ligand_efficiency>  (1) 
-0.021768184829881701

>  <r_i_glide_ligand_efficiency_ln>  (1) 
-0.092321475496360841

>  <r_i_glide_ligand_efficiency_sa>  (1) 
-0.054852388570340409

>  <r_i_glide_lipo>  (1) 
-2.6012092455560012

>  <r_i_glide_metal>  (1) 
-0

>  <r_i_glide_rewards>  (1) 
-2.3992355606365003

>  <r_lp_Energy>  (1) 
11.951996999999999

>  <r_lp_tautomer_probability>  (1) 
1

>  <s_epik_cmdline>  (1) 
J2VwaWtfcHl0aG9uJywgJy1waHQnLCAnMS4wJywgJy1waCcsICc3LjQnLCAnLXRuJywgJzgnLCAnLW1hJywgJzUwMCcsICctaW1hZScsICc8aW5maWxlLm1hZT4nLCAnLW9tYWUnLCAnPG91dGZpbGUubWFlPic=

>  <s_epik_input>  (1) 
W0NIMl0xW0NIMl1bQ0hdMVtDSDJdW0NIMl1bQ0gyXVtDSDJdW0NIMl1bQ0gyXVtDSDJdW0NIMl1bQ0gyXVtDQEBIXShbT0hdKVtDSDJdW0NIM10=

>  <s_glide_docking_method>  (1) 
confgen

>  <s_i_glide_gridfile>  (1) 
gpcr_drd2_6luq_protein_autoprepared_prepared

>  <s_lp_Force_Field>  (1) 
S-OPLS

>  <s_lp_Variant>  (1) 
DiffSBDD_34-1

>  <s_m_source_file>  (1) 
generated_generic_title2_ligand_DiffSBDD_2026-06-23_prepared.sdf

>  <GenAI_Model>  (1) 
DiffSBDD

>  <Protein>  (1) 
generic_title2

$$$$
DiffSBDD_34
     RDKit          3D

  0  0  0  0  0  0  0  0  0  0999 V3000
M  V30 BEGIN CTAB
M  V30 COUNTS 46 46 0 0 1
M  V30 BEGIN ATOM
M  V30 1 C 11.603078 8.585873 -4.799310 0
M  V30 2 C 9.046790 6.249816 -7.695884 0
M  V30 3 C 8.064496 4.230364 -13.806712 0
M  V30 4 C 9.251175 6.236128 -11.650898 0
M  V30 5 C 11.776819 7.206444 -4.138320 0
M  V30 6 C 12.370355 7.884162 -1.653437 0
M  V30 7 C 10.648519 8.604553 -6.007551 0
M  V30 8 C 9.466269 6.704559 -10.199784 0
M  V30 9 C 11.095530 7.724862 -7.191190 0
M  V30 10 C 7.775395 6.139536 -12.102020 0 CFG=2
M  V30 11 C 7.622070 5.680761 -13.564265 0
M  V30 12 C 10.485424 6.311258 -7.164485 0
M  V30 13 C 12.501369 6.378894 -1.766622 0
M  V30 14 C 8.922849 5.731269 -9.138081 0
M  V30 15 O 7.158942 7.406423 -11.985025 0
M  V30 16 C 12.737974 7.251323 -2.970058 0
M  V30 17 H 12.575386 8.973865 -5.103865 0
M  V30 18 H 11.232969 9.291058 -4.054476 0
M  V30 19 H 8.575412 7.227130 -7.603132 0
M  V30 20 H 8.464896 5.590227 -7.052559 0
M  V30 21 H 7.866394 3.932236 -14.836285 0
M  V30 22 H 9.132032 4.101685 -13.629494 0
M  V30 23 H 7.530626 3.540057 -13.152908 0
M  V30 24 H 9.736609 5.267327 -11.767044 0
M  V30 25 H 9.780606 6.916535 -12.319268 0
M  V30 26 H 10.822868 6.790179 -3.818791 0
M  V30 27 H 12.175407 6.486944 -4.850511 0
M  V30 28 H 13.153405 8.425816 -1.126527 0
M  V30 29 H 11.372199 8.302515 -1.556789 0
M  V30 30 H 10.578904 9.634543 -6.356561 0
M  V30 31 H 9.639997 8.332580 -5.696938 0
M  V30 32 H 10.535816 6.837319 -10.040656 0
M  V30 33 H 9.022302 7.690708 -10.064119 0
M  V30 34 H 12.182076 7.656624 -7.204807 0
M  V30 35 H 10.824161 8.215970 -8.125813 0
M  V30 36 H 7.228306 5.445040 -11.464543 0
M  V30 37 H 6.574424 5.768953 -13.855057 0
M  V30 38 H 8.175347 6.348758 -14.225428 0
M  V30 39 H 10.480486 5.943215 -6.142105 0
M  V30 40 H 11.111837 5.616287 -7.720674 0
M  V30 41 H 11.580936 5.800174 -1.728651 0
M  V30 42 H 13.365148 5.899575 -1.310315 0
M  V30 43 H 7.863272 5.555423 -9.321482 0
M  V30 44 H 9.411592 4.761067 -9.232404 0
M  V30 45 H 7.036085 7.590228 -11.044579 0
M  V30 46 H 13.775410 7.387171 -3.261769 0
M  V30 END ATOM
M  V30 BEGIN BOND
M  V30 1 1 5 1
M  V30 2 1 7 1
M  V30 3 1 8 4
M  V30 4 1 9 7
M  V30 5 1 10 4
M  V30 6 1 11 3
M  V30 7 1 11 10
M  V30 8 1 12 2
M  V30 9 1 12 9
M  V30 10 1 13 6
M  V30 11 1 14 2
M  V30 12 1 14 8
M  V30 13 1 15 10
M  V30 14 1 16 5
M  V30 15 1 16 6
M  V30 16 1 16 13
M  V30 17 1 17 1
M  V30 18 1 18 1
M  V30 19 1 19 2
M  V30 20 1 20 2
M  V30 21 1 21 3
M  V30 22 1 22 3
M  V30 23 1 23 3
M  V30 24 1 24 4
M  V30 25 1 25 4
M  V30 26 1 26 5
M  V30 27 1 27 5
M  V30 28 1 28 6
M  V30 29 1 29 6
M  V30 30 1 30 7
M  V30 31 1 31 7
M  V30 32 1 32 8
M  V30 33 1 33 8
M  V30 34 1 34 9
M  V30 35 1 35 9
M  V30 36 1 10 36 CFG=1
M  V30 37 1 37 11
M  V30 38 1 38 11
M  V30 39 1 39 12
M  V30 40 1 40 12
M  V30 41 1 41 13
M  V30 42 1 42 13
M  V30 43 1 43 14
M  V30 44 1 44 14
M  V30 45 1 45 15
M  V30 46 1 46 16
M  V30 END BOND
M  V30 END CTAB
M  END
>  <i_epik_Tot_Q>  (1) 
0

>  <i_epik_Tot_abs_Q>  (1) 
0

>  <i_i_glide_confnum>  (1) 
136

>  <i_i_glide_lignum>  (1) 
97

>  <i_i_glide_posenum>  (1) 
216

>  <i_i_glide_rotatable_bonds>  (1) 
12

>  <i_lp_mmshare_version>  (1) 
72125

>  <i_m_source_file_index>  (1) 
35

>  <i_f3d_flags>  (1) 
0

>  <num_sample>  (1) 
50

>  <b_lp_Chiralities_Consistent>  (1) 
1

>  <r_epik_Charging_Adjusted_Penalty>  (1) 
0

>  <r_epik_Ionization_Penalty>  (1) 
4.3564456379130965e-07

>  <r_epik_Ionization_Penalty_Charging>  (1) 
0

>  <r_epik_Ionization_Penalty_Neutral>  (1) 
4.3564456379130965e-07

>  <r_epik_State_Penalty>  (1) 
-0

>  <r_glide_ring_energy>  (1) 
0

>  <r_i_docking_score>  (1) 
-0.27201159749242687

>  <r_i_glide_ecoul>  (1) 
-5.6829587007574869

>  <r_i_glide_eff_state_penalty>  (1) 
-0

>  <r_i_glide_einternal>  (1) 
9.4783753614680748

>  <r_i_glide_emodel>  (1) 
-25.019092996346597

>  <r_i_glide_emodel_strain>  (1) 
0.026368030056129754

>  <r_i_glide_energy>  (1) 
-29.30075299117695

>  <r_i_glide_erotb>  (1) 
5.9675124858656083

>  <r_i_glide_esite>  (1) 
0

>  <r_i_glide_evdw>  (1) 
-23.617794290419461

>  <r_i_glide_gscore>  (1) 
-0.27201159749242687

>  <r_i_glide_gscore_strain>  (1) 
0

>  <r_i_glide_hbond>  (1) 
-0.16

>  <r_i_glide_ligand_efficiency>  (1) 
-0.017000724843276679

>  <r_i_glide_ligand_efficiency_ln>  (1) 
-0.072102107470366911

>  <r_i_glide_ligand_efficiency_sa>  (1) 
-0.04283914218703002

>  <r_i_glide_lipo>  (1) 
-1.7274852922116113

>  <r_i_glide_metal>  (1) 
-0

>  <r_i_glide_rewards>  (1) 
-2.3187052715118277

>  <r_lp_Energy>  (1) 
11.951996999999999

>  <r_lp_tautomer_probability>  (1) 
1

>  <s_epik_cmdline>  (1) 
J2VwaWtfcHl0aG9uJywgJy1waHQnLCAnMS4wJywgJy1waCcsICc3LjQnLCAnLXRuJywgJzgnLCAnLW1hJywgJzUwMCcsICctaW1hZScsICc8aW5maWxlLm1hZT4nLCAnLW9tYWUnLCAnPG91dGZpbGUubWFlPic=

>  <s_epik_input>  (1) 
W0NIMl0xW0NIMl1bQ0hdMVtDSDJdW0NIMl1bQ0gyXVtDSDJdW0NIMl1bQ0gyXVtDSDJdW0NIMl1bQ0gyXVtDQEBIXShbT0hdKVtDSDJdW0NIM10=

>  <s_glide_docking_method>  (1) 
confgen

>  <s_i_glide_gridfile>  (1) 
gpcr_drd2_6luq_protein_autoprepared_prepared

>  <s_lp_Force_Field>  (1) 
S-OPLS

>  <s_lp_Variant>  (1) 
DiffSBDD_34-1

>  <s_m_source_file>  (1) 
generated_generic_title2_ligand_DiffSBDD_2026-06-23_prepared.sdf

>  <GenAI_Model>  (1) 
DiffSBDD

>  <Protein>  (1) 
generic_title2

$$$$
DiffSBDD_28
     RDKit          3D

  0  0  0  0  0  0  0  0  0  0999 V3000
M  V30 BEGIN CTAB
M  V30 COUNTS 78 85 0 0 1
M  V30 BEGIN ATOM
M  V30 1 F 19.220119 22.699201 -10.034579 0
M  V30 2 C 22.740007 17.071710 -20.195205 0 CFG=1
M  V30 3 C 22.529889 18.063420 -16.627024 0 CFG=2
M  V30 4 C 21.006146 15.538816 -21.747742 0 CFG=2
M  V30 5 C 19.910639 17.989574 -12.894561 0 CFG=1
M  V30 6 C 22.605062 18.303224 -21.104137 0
M  V30 7 C 21.526131 19.238374 -14.543554 0 CFG=2
M  V30 8 C 19.796850 19.627603 -10.094936 0 CFG=1
M  V30 9 C 21.653114 16.804737 -16.613332 0
M  V30 10 C 20.920945 18.055451 -11.752955 0 CFG=1
M  V30 11 C 23.727870 15.354720 -21.136116 0 CFG=1
M  V30 12 C 21.104442 19.937556 -16.946951 0
M  V30 13 C 22.308642 15.875883 -21.052122 0 CFG=1
M  V30 14 O 24.258869 15.432143 -22.441495 0
M  V30 15 C 18.442286 21.718746 -10.624301 0 CFG=1
M  V30 16 C 20.221833 18.507509 -14.283943 0 CFG=1
M  V30 17 O 20.312400 17.121244 -13.966227 0
M  V30 18 N 21.976699 19.271920 -15.965519 0 CFG=2 CHG=1
M  V30 19 O 21.971886 13.815757 -23.246433 0
M  V30 20 C 17.164907 22.284651 -11.340060 0
M  V30 21 O 21.372815 14.939825 -20.497754 0
M  V30 22 C 22.161808 18.925913 -12.105017 0
M  V30 23 C 24.162234 16.464585 -20.174497 0
M  V30 24 N 22.030263 17.306409 -18.906242 0
M  V30 25 C 20.817408 14.567171 -22.906693 0
M  V30 26 N 20.932895 20.304536 -9.430932 0 CHG=1
M  V30 27 C 22.626205 18.778111 -13.567007 0
M  V30 28 C 21.786537 19.258104 -8.840071 0
M  V30 29 C 21.158557 17.947760 -9.312437 0
M  V30 30 O 16.796772 21.776682 -12.397566 0
M  V30 31 C 21.828981 19.731315 -18.278568 0
M  V30 32 C 19.106458 20.470450 -11.186758 0
M  V30 33 O 17.216092 21.545301 -10.150467 0
M  V30 34 N 20.290459 18.281644 -10.431677 0
M  V30 35 C 21.955415 16.185144 -17.972494 0
M  V30 36 C 22.058139 12.571503 -22.571384 0
M  V30 37 C 22.606115 18.406467 -18.127520 0 CFG=1
M  V30 38 H 23.522005 17.830704 -16.238106 0
M  V30 39 H 20.204906 16.267903 -21.648816 0
M  V30 40 H 18.874065 17.818391 -12.609114 0
M  V30 41 H 23.043824 18.127460 -22.087758 0
M  V30 42 H 21.560038 18.569820 -21.265749 0
M  V30 43 H 23.114359 19.176082 -20.697618 0
M  V30 44 H 21.322202 20.283145 -14.303141 0
M  V30 45 H 19.057683 19.488294 -9.303481 0
M  V30 46 H 20.591433 17.051012 -16.576164 0
M  V30 47 H 21.883969 16.130763 -15.788215 0
M  V30 48 H 21.308596 17.038140 -11.718300 0
M  V30 49 H 23.867947 14.353116 -20.727881 0
M  V30 50 H 20.950712 20.992655 -16.718017 0
M  V30 51 H 20.129406 19.449751 -16.979945 0
M  V30 52 H 25.106847 15.016025 -22.424910 0
M  V30 53 H 19.375245 18.790098 -14.903073 0
M  V30 54 H 22.991636 18.662566 -11.449323 0
M  V30 55 H 21.960033 19.980187 -11.928107 0
M  V30 56 H 24.493083 16.077921 -19.212044 0
M  V30 57 H 24.921819 17.128720 -20.588961 0
M  V30 58 H 19.953432 13.923870 -22.735884 0
M  V30 59 H 20.573760 15.168398 -23.782892 0
M  V30 60 H 20.607173 20.954483 -8.728478 0
M  V30 61 H 22.899731 17.739443 -13.758760 0
M  V30 62 H 23.530920 19.368009 -13.718931 0
M  V30 63 H 21.795501 19.324704 -7.751571 0
M  V30 64 H 22.810777 19.370828 -9.195546 0
M  V30 65 H 20.548910 17.536967 -8.506091 0
M  V30 66 H 21.902519 17.191471 -9.566107 0
M  V30 67 H 22.533777 20.546962 -18.445864 0
M  V30 68 H 21.129735 19.730921 -19.116035 0
M  V30 69 H 19.817706 20.778513 -11.951326 0
M  V30 70 H 18.349293 19.866280 -11.685851 0
M  V30 71 H 21.175699 15.475543 -18.244066 0
M  V30 72 H 22.896239 15.641614 -17.916130 0
M  V30 73 H 22.980875 12.067607 -22.857493 0
M  V30 74 H 22.067064 12.694701 -21.488699 0
M  V30 75 H 21.224523 11.922020 -22.841052 0
M  V30 76 H 23.651822 18.558423 -18.400020 0
M  V30 77 H 22.778082 19.886100 -15.933520 0
M  V30 78 H 21.470885 20.803859 -10.123786 0
M  V30 END ATOM
M  V30 BEGIN BOND
M  V30 1 1 2 6 CFG=3
M  V30 2 1 9 3
M  V30 3 1 10 5
M  V30 4 1 13 2
M  V30 5 1 13 4
M  V30 6 1 13 11
M  V30 7 1 14 11
M  V30 8 1 15 1 CFG=1
M  V30 9 1 16 5
M  V30 10 1 16 7
M  V30 11 1 17 5
M  V30 12 1 17 16
M  V30 13 1 18 3
M  V30 14 1 18 7
M  V30 15 1 18 12
M  V30 16 1 20 15
M  V30 17 1 21 4
M  V30 18 1 13 21 CFG=1
M  V30 19 1 22 10
M  V30 20 1 23 2
M  V30 21 1 23 11
M  V30 22 1 24 2
M  V30 23 1 25 4
M  V30 24 1 25 19
M  V30 25 1 26 8
M  V30 26 1 27 7
M  V30 27 1 27 22
M  V30 28 1 28 26
M  V30 29 1 29 28
M  V30 30 2 30 20
M  V30 31 1 31 12
M  V30 32 1 32 8
M  V30 33 1 32 15
M  V30 34 1 33 15
M  V30 35 1 33 20
M  V30 36 1 34 8
M  V30 37 1 34 10
M  V30 38 1 34 29
M  V30 39 1 35 9
M  V30 40 1 35 24
M  V30 41 1 36 19
M  V30 42 1 37 3
M  V30 43 1 37 24
M  V30 44 1 37 31
M  V30 45 1 3 38 CFG=1
M  V30 46 1 4 39 CFG=1
M  V30 47 1 5 40 CFG=1
M  V30 48 1 41 6
M  V30 49 1 42 6
M  V30 50 1 43 6
M  V30 51 1 7 44 CFG=1
M  V30 52 1 8 45 CFG=1
M  V30 53 1 46 9
M  V30 54 1 47 9
M  V30 55 1 10 48 CFG=1
M  V30 56 1 11 49 CFG=1
M  V30 57 1 50 12
M  V30 58 1 51 12
M  V30 59 1 52 14
M  V30 60 1 16 53 CFG=3
M  V30 61 1 54 22
M  V30 62 1 55 22
M  V30 63 1 56 23
M  V30 64 1 57 23
M  V30 65 1 58 25
M  V30 66 1 59 25
M  V30 67 1 60 26
M  V30 68 1 61 27
M  V30 69 1 62 27
M  V30 70 1 63 28
M  V30 71 1 64 28
M  V30 72 1 65 29
M  V30 73 1 66 29
M  V30 74 1 67 31
M  V30 75 1 68 31
M  V30 76 1 69 32
M  V30 77 1 70 32
M  V30 78 1 71 35
M  V30 79 1 72 35
M  V30 80 1 73 36
M  V30 81 1 74 36
M  V30 82 1 75 36
M  V30 83 1 37 76 CFG=3
M  V30 84 1 18 77 CFG=1
M  V30 85 1 78 26
M  V30 END BOND
M  V30 END CTAB
M  END
>  <i_epik_Tot_Q>  (1) 
2

>  <i_epik_Tot_abs_Q>  (1) 
2

>  <i_i_glide_confnum>  (1) 
338

>  <i_i_glide_lignum>  (1) 
87

>  <i_i_glide_posenum>  (1) 
197

>  <i_i_glide_rotatable_bonds>  (1) 
8

>  <i_lp_mmshare_version>  (1) 
72125

>  <i_m_source_file_index>  (1) 
29

>  <i_f3d_flags>  (1) 
0

>  <num_sample>  (1) 
50

>  <b_lp_Chiralities_Consistent>  (1) 
1

>  <r_epik_Charging_Adjusted_Penalty>  (1) 
1.0492181154286748

>  <r_epik_Ionization_Penalty>  (1) 
0.8301501805432685

>  <r_epik_Ionization_Penalty_Charging>  (1) 
0.211122083805314

>  <r_epik_Ionization_Penalty_Neutral>  (1) 
0.61902809673795445

>  <r_epik_State_Penalty>  (1) 
0.83809603162336077

>  <r_glide_ring_energy>  (1) 
0.81914574756082947

>  <r_i_docking_score>  (1) 
-0.18232974990766904

>  <r_i_glide_ecoul>  (1) 
0.1502447231344638

>  <r_i_glide_eff_state_penalty>  (1) 
0.83809603162336077

>  <r_i_glide_einternal>  (1) 
13.752463733476475

>  <r_i_glide_emodel>  (1) 
-8.9303543516241177

>  <r_i_glide_emodel_strain>  (1) 
0

>  <r_i_glide_energy>  (1) 
-15.056467254482412

>  <r_i_glide_erotb>  (1) 
0.44856850619138583

>  <r_i_glide_esite>  (1) 
0

>  <r_i_glide_evdw>  (1) 
-15.206711977616875

>  <r_i_glide_gscore>  (1) 
-1.0204257815310298

>  <r_i_glide_gscore_strain>  (1) 
0

>  <r_i_glide_hbond>  (1) 
0

>  <r_i_glide_ligand_efficiency>  (1) 
-0.0049278310785856498

>  <r_i_glide_ligand_efficiency_ln>  (1) 
-0.039543048339177302

>  <r_i_glide_ligand_efficiency_sa>  (1) 
-0.01642062640128315

>  <r_i_glide_lipo>  (1) 
-0.68555669405429909

>  <r_i_glide_metal>  (1) 
-0

>  <r_i_glide_rewards>  (1) 
-0.045638703257442431

>  <r_lp_Energy>  (1) 
63.554969999999997

>  <s_epik_Chemistry_Notes>  (1) 
This compound has an ester and may undergo hydrolysis at high or low pH. This compound contains an acetal/aminal-like group ( X-CH(R)-Y where X, Y are N, S, or O) that may be acid/base labile, releasing an aldehyde.

>  <s_epik_cmdline>  (1) 
J2VwaWtfcHl0aG9uJywgJy1waHQnLCAnMS4wJywgJy1waCcsICc3LjQnLCAnLXRuJywgJzgnLCAnLW1hJywgJzUwMCcsICctaW1hZScsICc8aW5maWxlLm1hZT4nLCAnLW9tYWUnLCAnPG91dGZpbGUubWFlPic=

>  <s_epik_input>  (1) 
Tz1DKE8xKUMxKEYpW0NIMl1bQ0BASF0yW05IXVtDSDJdW0NIMl1OMltDQEBIXTNbQ0gyXVtDSDJdW0NASF0oW0NAQEhdKE80KVtDQEhdMzQpTjVbQ0gyXVtDSDJdW0NAQEhdKFtDQEhdNTYpTihbQ0gyXVtDSDJdNilbQ0BAXShbQ0gzXSkoW0NIMl1bQ0BASF03W09IXSlbQ0BAXTc4W0NASF0oTzgpW0NIMl1PW0NIM10=

>  <s_glide_docking_method>  (1) 
confgen

>  <s_i_glide_gridfile>  (1) 
gpcr_drd2_6luq_protein_autoprepared_prepared

>  <s_lp_Force_Field>  (1) 
S-OPLS

>  <s_lp_Variant>  (1) 
DiffSBDD_28-10

>  <s_m_source_file>  (1) 
generated_generic_title2_ligand_DiffSBDD_2026-06-23_prepared.sdf

>  <GenAI_Model>  (1) 
DiffSBDD

>  <Protein>  (1) 
generic_title2

$$$$
DiffSBDD_34
     RDKit          3D

  0  0  0  0  0  0  0  0  0  0999 V3000
M  V30 BEGIN CTAB
M  V30 COUNTS 46 46 0 0 1
M  V30 BEGIN ATOM
M  V30 1 C 11.578167 8.398008 -5.258128 0
M  V30 2 C 9.076261 5.867143 -8.389360 0
M  V30 3 C 5.811928 6.285199 -14.572755 0
M  V30 4 C 8.478876 4.757239 -12.109137 0
M  V30 5 C 12.529682 8.773588 -4.105436 0
M  V30 6 C 11.719438 7.723982 -1.836695 0
M  V30 7 C 11.018918 6.964307 -5.166908 0
M  V30 8 C 8.155034 5.296167 -10.703763 0
M  V30 9 C 9.872854 6.697281 -6.151811 0
M  V30 10 C 7.304147 4.798574 -13.108430 0 CFG=2
M  V30 11 C 6.747132 6.213898 -13.359343 0
M  V30 12 C 10.307112 6.129993 -7.512638 0
M  V30 13 C 12.575408 8.912820 -1.489979 0
M  V30 14 C 9.382769 5.308329 -9.782561 0
M  V30 15 O 6.265158 3.949822 -12.660816 0
M  V30 16 C 11.814256 8.902093 -2.783339 0
M  V30 17 H 12.090855 8.521668 -6.212827 0
M  V30 18 H 10.755076 9.113582 -5.273084 0
M  V30 19 H 8.575410 6.820062 -8.502452 0
M  V30 20 H 8.374208 5.208324 -7.876679 0
M  V30 21 H 5.407004 7.290229 -14.693700 0
M  V30 22 H 6.336286 6.022779 -15.491652 0
M  V30 23 H 4.974500 5.598066 -14.458834 0
M  V30 24 H 8.847366 3.733635 -12.024892 0
M  V30 25 H 9.306153 5.334018 -12.524896 0
M  V30 26 H 13.326796 8.040674 -3.985024 0
M  V30 27 H 13.011832 9.725786 -4.326036 0
M  V30 28 H 10.801420 7.590232 -1.267261 0
M  V30 29 H 12.231453 6.803860 -2.112689 0
M  V30 30 H 10.626710 6.790223 -4.167118 0
M  V30 31 H 11.810424 6.225955 -5.294615 0
M  V30 32 H 7.775418 6.314144 -10.785026 0
M  V30 33 H 7.359116 4.705303 -10.249196 0
M  V30 34 H 9.282126 7.603380 -6.295191 0
M  V30 35 H 9.186905 5.990227 -5.689856 0
M  V30 36 H 7.665445 4.397084 -14.056209 0
M  V30 37 H 6.215651 6.570957 -12.475940 0
M  V30 38 H 7.573822 6.907304 -13.519667 0
M  V30 39 H 10.874614 5.209101 -7.382212 0
M  V30 40 H 10.971448 6.837057 -8.010614 0
M  V30 41 H 13.655657 8.790227 -1.531566 0
M  V30 42 H 12.207887 9.626533 -0.760685 0
M  V30 43 H 9.775409 4.296561 -9.689329 0
M  V30 44 H 10.158774 5.921462 -10.241694 0
M  V30 45 H 6.622256 3.085546 -12.525308 0
M  V30 46 H 10.975411 9.591570 -2.812402 0
M  V30 END ATOM
M  V30 BEGIN BOND
M  V30 1 1 5 1
M  V30 2 1 7 1
M  V30 3 1 8 4
M  V30 4 1 9 7
M  V30 5 1 10 4
M  V30 6 1 11 3
M  V30 7 1 11 10
M  V30 8 1 12 2
M  V30 9 1 12 9
M  V30 10 1 13 6
M  V30 11 1 14 2
M  V30 12 1 14 8
M  V30 13 1 15 10
M  V30 14 1 16 5
M  V30 15 1 16 6
M  V30 16 1 16 13
M  V30 17 1 17 1
M  V30 18 1 18 1
M  V30 19 1 19 2
M  V30 20 1 20 2
M  V30 21 1 21 3
M  V30 22 1 22 3
M  V30 23 1 23 3
M  V30 24 1 24 4
M  V30 25 1 25 4
M  V30 26 1 26 5
M  V30 27 1 27 5
M  V30 28 1 28 6
M  V30 29 1 29 6
M  V30 30 1 30 7
M  V30 31 1 31 7
M  V30 32 1 32 8
M  V30 33 1 33 8
M  V30 34 1 34 9
M  V30 35 1 35 9
M  V30 36 1 10 36 CFG=3
M  V30 37 1 37 11
M  V30 38 1 38 11
M  V30 39 1 39 12
M  V30 40 1 40 12
M  V30 41 1 41 13
M  V30 42 1 42 13
M  V30 43 1 43 14
M  V30 44 1 44 14
M  V30 45 1 45 15
M  V30 46 1 46 16
M  V30 END BOND
M  V30 END CTAB
M  END
>  <i_epik_Tot_Q>  (1) 
0

>  <i_epik_Tot_abs_Q>  (1) 
0

>  <i_i_glide_confnum>  (1) 
318

>  <i_i_glide_lignum>  (1) 
97

>  <i_i_glide_posenum>  (1) 
39

>  <i_i_glide_rotatable_bonds>  (1) 
12

>  <i_lp_mmshare_version>  (1) 
72125

>  <i_m_source_file_index>  (1) 
35

>  <i_f3d_flags>  (1) 
0

>  <num_sample>  (1) 
50

>  <b_lp_Chiralities_Consistent>  (1) 
1

>  <r_epik_Charging_Adjusted_Penalty>  (1) 
0

>  <r_epik_Ionization_Penalty>  (1) 
4.3564456379130965e-07

>  <r_epik_Ionization_Penalty_Charging>  (1) 
0

>  <r_epik_Ionization_Penalty_Neutral>  (1) 
4.3564456379130965e-07

>  <r_epik_State_Penalty>  (1) 
-0

>  <r_glide_ring_energy>  (1) 
0

>  <r_i_docking_score>  (1) 
-0.15787850617665233

>  <r_i_glide_ecoul>  (1) 
-0.65386362872884396

>  <r_i_glide_eff_state_penalty>  (1) 
-0

>  <r_i_glide_einternal>  (1) 
5.5270942266695426

>  <r_i_glide_emodel>  (1) 
-23.362674747801705

>  <r_i_glide_emodel_strain>  (1) 
0.17833856956820959

>  <r_i_glide_energy>  (1) 
-26.023702064792015

>  <r_i_glide_erotb>  (1) 
5.9675124858656083

>  <r_i_glide_esite>  (1) 
0

>  <r_i_glide_evdw>  (1) 
-25.369838436063173

>  <r_i_glide_gscore>  (1) 
-0.15787850617665233

>  <r_i_glide_gscore_strain>  (1) 
0

>  <r_i_glide_hbond>  (1) 
0

>  <r_i_glide_ligand_efficiency>  (1) 
-0.0098674066360407708

>  <r_i_glide_ligand_efficiency_ln>  (1) 
-0.041848851756870031

>  <r_i_glide_ligand_efficiency_sa>  (1) 
-0.024864306657240254

>  <r_i_glide_lipo>  (1) 
-2.2834040675936764

>  <r_i_glide_metal>  (1) 
-0

>  <r_i_glide_rewards>  (1) 
-2.4754154583360988

>  <r_lp_Energy>  (1) 
11.951996999999999

>  <r_lp_tautomer_probability>  (1) 
1

>  <s_epik_cmdline>  (1) 
J2VwaWtfcHl0aG9uJywgJy1waHQnLCAnMS4wJywgJy1waCcsICc3LjQnLCAnLXRuJywgJzgnLCAnLW1hJywgJzUwMCcsICctaW1hZScsICc8aW5maWxlLm1hZT4nLCAnLW9tYWUnLCAnPG91dGZpbGUubWFlPic=

>  <s_epik_input>  (1) 
W0NIMl0xW0NIMl1bQ0hdMVtDSDJdW0NIMl1bQ0gyXVtDSDJdW0NIMl1bQ0gyXVtDSDJdW0NIMl1bQ0gyXVtDQEBIXShbT0hdKVtDSDJdW0NIM10=

>  <s_glide_docking_method>  (1) 
confgen

>  <s_i_glide_gridfile>  (1) 
gpcr_drd2_6luq_protein_autoprepared_prepared

>  <s_lp_Force_Field>  (1) 
S-OPLS

>  <s_lp_Variant>  (1) 
DiffSBDD_34-1

>  <s_m_source_file>  (1) 
generated_generic_title2_ligand_DiffSBDD_2026-06-23_prepared.sdf

>  <GenAI_Model>  (1) 
DiffSBDD

>  <Protein>  (1) 
generic_title2

$$$$
DiffSBDD_8
     RDKit          3D

  0  0  0  0  0  0  0  0  0  0999 V3000
M  V30 BEGIN CTAB
M  V30 COUNTS 70 73 0 0 1
M  V30 BEGIN ATOM
M  V30 1 N 5.956675 5.556707 -14.397892 0
M  V30 2 C 6.089615 7.957151 -17.185018 0
M  V30 3 C 8.232637 7.054272 -12.511934 0 CFG=1
M  V30 4 N 5.329417 6.443753 -18.892630 0
M  V30 5 O 9.374051 4.580175 -13.453156 0
M  V30 6 C 9.462542 5.288171 -8.709676 0
M  V30 7 F 4.379407 5.590952 -17.165930 0
M  V30 8 C 10.321361 6.107871 -7.727813 0
M  V30 9 N 9.375239 5.939617 -10.034363 0 CHG=1
M  V30 10 C 8.958441 5.075748 -11.173695 0 CFG=1
M  V30 11 C 5.587106 5.735444 -17.651322 0 CFG=2
M  V30 12 C 12.470541 9.479264 -4.228773 0
M  V30 13 C 7.880355 5.658336 -12.049477 0 CFG=2
M  V30 14 O 10.888168 5.988827 -12.383483 0
M  V30 15 O 6.183684 5.850191 -19.891950 0
M  V30 16 C 9.788298 7.523313 -7.448039 0
M  V30 17 C 7.292348 3.458335 -13.527177 0
M  V30 18 C 4.997248 5.309049 -13.352728 0
M  V30 19 C 7.064355 4.643910 -14.498944 0 CFG=2
M  V30 20 C 6.372076 6.585893 -16.625683 0 CFG=2
M  V30 21 C 5.739404 6.604024 -15.229901 0
M  V30 22 C 7.178303 7.990187 -12.804431 0
M  V30 23 C 10.032267 4.858910 -12.247355 0 CFG=2
M  V30 24 C 7.988312 4.759065 -13.280167 0 CFG=2
M  V30 25 O 12.040128 8.913841 -3.014723 0
M  V30 26 O 4.976951 7.522908 -14.927376 0
M  V30 27 C 11.292611 9.997445 -5.063342 0
M  V30 28 C 5.594589 6.085504 -21.168903 0
M  V30 29 C 5.775379 7.800892 -18.696249 0
M  V30 30 O 10.551543 8.939263 -5.663243 0
M  V30 31 C 10.874035 8.436136 -6.869130 0
M  V30 32 N 8.027661 8.196855 -11.640723 0 CHG=1
M  V30 33 O 11.919019 8.668523 -7.477233 0
M  V30 34 H 5.221534 8.526732 -16.853738 0
M  V30 35 H 6.951366 8.476807 -16.785020 0
M  V30 36 H 9.069590 7.191487 -13.175654 0
M  V30 37 H 9.899693 4.295311 -8.821577 0
M  V30 38 H 8.454685 5.156434 -8.314494 0
M  V30 39 H 11.351594 6.141094 -8.086926 0
M  V30 40 H 10.360025 5.590464 -6.772416 0
M  V30 41 H 8.701736 6.685633 -9.924088 0
M  V30 42 H 8.623513 4.100577 -10.811905 0
M  V30 43 H 6.029518 4.755389 -17.824592 0
M  V30 44 H 13.162105 10.270875 -3.977941 0
M  V30 45 H 13.072542 8.789519 -4.783447 0
M  V30 46 H 6.908065 5.634196 -11.565003 0
M  V30 47 H 11.559948 5.722156 -13.002878 0
M  V30 48 H 8.920873 7.479659 -6.784955 0
M  V30 49 H 9.446485 7.987960 -8.373690 0
M  V30 50 H 7.900680 2.638636 -13.898472 0
M  V30 51 H 6.576203 3.138655 -12.777453 0
M  V30 52 H 4.102089 5.189177 -13.983561 0
M  V30 53 H 5.054228 4.417364 -12.747848 0
M  V30 54 H 4.975406 6.155132 -12.672864 0
M  V30 55 H 7.557541 4.548365 -15.462717 0
M  V30 56 H 7.435715 6.368054 -16.648837 0
M  V30 57 H 7.424982 8.571448 -13.690680 0
M  V30 58 H 6.158717 7.917629 -12.439657 0
M  V30 59 H 10.608831 3.992042 -11.987220 0
M  V30 60 H 11.539714 8.136620 -3.212318 0
M  V30 61 H 10.620916 10.589656 -4.438579 0
M  V30 62 H 11.666948 10.661650 -5.845561 0
M  V30 63 H 5.733396 5.211305 -21.808449 0
M  V30 64 H 4.522379 6.295321 -21.123775 0
M  V30 65 H 6.070839 6.932903 -21.661562 0
M  V30 66 H 5.006897 8.497557 -19.041245 0
M  V30 67 H 6.657320 7.957758 -19.314094 0
M  V30 68 H 7.471825 8.082226 -10.785030 0
M  V30 69 H 10.273821 6.335269 -10.273999 0
M  V30 70 H 8.557002 9.045846 -11.769660 0
M  V30 END ATOM
M  V30 BEGIN BOND
M  V30 1 1 8 6
M  V30 2 1 9 6
M  V30 3 1 10 9
M  V30 4 1 11 4
M  V30 5 1 11 7
M  V30 6 1 13 3
M  V30 7 1 13 10
M  V30 8 1 15 4
M  V30 9 1 16 8
M  V30 10 1 18 1
M  V30 11 1 19 1
M  V30 12 1 19 17
M  V30 13 1 20 2
M  V30 14 1 20 11
M  V30 15 1 21 1
M  V30 16 1 21 20
M  V30 17 1 22 3
M  V30 18 1 23 5
M  V30 19 1 23 10
M  V30 20 1 23 14
M  V30 21 1 24 5 CFG=3
M  V30 22 1 24 13
M  V30 23 1 24 17
M  V30 24 1 24 19
M  V30 25 1 25 12
M  V30 26 2 26 21
M  V30 27 1 27 12
M  V30 28 1 28 15
M  V30 29 1 29 2
M  V30 30 1 29 4
M  V30 31 1 30 27
M  V30 32 1 31 16
M  V30 33 1 31 30
M  V30 34 1 32 3
M  V30 35 1 32 22
M  V30 36 2 33 31
M  V30 37 1 34 2
M  V30 38 1 35 2
M  V30 39 1 3 36 CFG=3
M  V30 40 1 37 6
M  V30 41 1 38 6
M  V30 42 1 39 8
M  V30 43 1 40 8
M  V30 44 1 41 9
M  V30 45 1 10 42 CFG=1
M  V30 46 1 11 43 CFG=3
M  V30 47 1 44 12
M  V30 48 1 45 12
M  V30 49 1 13 46 CFG=1
M  V30 50 1 47 14
M  V30 51 1 48 16
M  V30 52 1 49 16
M  V30 53 1 50 17
M  V30 54 1 51 17
M  V30 55 1 52 18
M  V30 56 1 53 18
M  V30 57 1 54 18
M  V30 58 1 19 55 CFG=3
M  V30 59 1 20 56 CFG=1
M  V30 60 1 57 22
M  V30 61 1 58 22
M  V30 62 1 23 59 CFG=1
M  V30 63 1 60 25
M  V30 64 1 61 27
M  V30 65 1 62 27
M  V30 66 1 63 28
M  V30 67 1 64 28
M  V30 68 1 65 28
M  V30 69 1 66 29
M  V30 70 1 67 29
M  V30 71 1 68 32
M  V30 72 1 69 9
M  V30 73 1 70 32
M  V30 END BOND
M  V30 END CTAB
M  END
>  <i_epik_Tot_Q>  (1) 
2

>  <i_epik_Tot_abs_Q>  (1) 
2

>  <i_i_glide_confnum>  (1) 
3750

>  <i_i_glide_lignum>  (1) 
42

>  <i_i_glide_posenum>  (1) 
102

>  <i_i_glide_rotatable_bonds>  (1) 
15

>  <i_lp_mmshare_version>  (1) 
72125

>  <i_m_source_file_index>  (1) 
9

>  <i_f3d_flags>  (1) 
0

>  <num_sample>  (1) 
50

>  <b_lp_Chiralities_Consistent>  (1) 
1

>  <r_epik_Charging_Adjusted_Penalty>  (1) 
2.8797985042560583

>  <r_epik_Ionization_Penalty>  (1) 
1.6442763990741283

>  <r_epik_Ionization_Penalty_Charging>  (1) 
1.6439676131770962

>  <r_epik_Ionization_Penalty_Neutral>  (1) 
0.00030878589703216643

>  <r_epik_State_Penalty>  (1) 
1.2358308910789622

>  <r_glide_ring_energy>  (1) 
0

>  <r_i_docking_score>  (1) 
1.1763855027727366

>  <r_i_glide_ecoul>  (1) 
-12.732673817636302

>  <r_i_glide_eff_state_penalty>  (1) 
1.2358308910789622

>  <r_i_glide_einternal>  (1) 
95.506516987032995

>  <r_i_glide_emodel>  (1) 
68.204346929120703

>  <r_i_glide_emodel_strain>  (1) 
21.278164486507933

>  <r_i_glide_energy>  (1) 
-0.65592239621577519

>  <r_i_glide_erotb>  (1) 
1.0700444368793263

>  <r_i_glide_esite>  (1) 
-0.17121068290476488

>  <r_i_glide_evdw>  (1) 
12.076751421420527

>  <r_i_glide_gscore>  (1) 
-0.059445388306225588

>  <r_i_glide_gscore_strain>  (1) 
4.3195411216269832

>  <r_i_glide_hbond>  (1) 
-0.52410317440437204

>  <r_i_glide_ligand_efficiency>  (1) 
0.035648045538567777

>  <r_i_glide_ligand_efficiency_ln>  (1) 
0.26162204481850648

>  <r_i_glide_ligand_efficiency_sa>  (1) 
0.11434232986221071

>  <r_i_glide_lipo>  (1) 
-1.7678353165127247

>  <r_i_glide_metal>  (1) 
-0

>  <r_i_glide_rewards>  (1) 
-1.6798182714162539

>  <r_lp_Energy>  (1) 
51.627417999999999

>  <s_epik_Chemistry_Notes>  (1) 
This compound has an ester and may undergo hydrolysis at high or low pH. This compound contains an acetal/aminal-like group ( X-CH(R)-Y where X, Y are N, S, or O) that may be acid/base labile, releasing an aldehyde. This compound has a N-S or N-O group and may undergo hydrolysis at high or low pH.

>  <s_epik_cmdline>  (1) 
J2VwaWtfcHl0aG9uJywgJy1waHQnLCAnMS4wJywgJy1waCcsICc3LjQnLCAnLXRuJywgJzgnLCAnLW1hJywgJzUwMCcsICctaW1hZScsICc8aW5maWxlLm1hZT4nLCAnLW9tYWUnLCAnPG91dGZpbGUubWFlPic=

>  <s_epik_input>  (1) 
W0NIM11PTjFbQ0BIXShGKVtDQEBIXShbQ0gyXVtDSDJdMSlDKD1PKU4oW0NIM10pW0NASF0yW0NIMl1DMjNPW0NAQEhdKFtPSF0pW0NASF0oW0NASF0zW0NASF00W0NIMl1bTkhdNClbTkhdW0NIMl1bQ0gyXVtDSDJdQyg9TylPW0NIMl1bQ0gyXVtPSF0=

>  <s_glide_docking_method>  (1) 
confgen

>  <s_i_glide_gridfile>  (1) 
gpcr_drd2_6luq_protein_autoprepared_prepared

>  <s_lp_Force_Field>  (1) 
S-OPLS

>  <s_lp_Variant>  (1) 
DiffSBDD_8-11

>  <s_m_source_file>  (1) 
generated_generic_title2_ligand_DiffSBDD_2026-06-23_prepared.sdf

>  <GenAI_Model>  (1) 
DiffSBDD

>  <Protein>  (1) 
generic_title2

$$$$
