Pocket2Mol_0_num_sample_100
     RDKit          3D

 19 19  0  0  0  0  0  0  0  0999 V2000
   38.1420   33.0610   56.2850 N   0  0  0  0  0  0  0  0  0  0  0  0
   38.9440   32.1330   55.9890 C   0  0  0  0  0  0  0  0  0  0  0  0
   38.6240   31.2930   54.7660 C   0  0  0  0  0  0  0  0  0  0  0  0
   39.6790   30.6320   54.1100 C   0  0  0  0  0  0  0  0  0  0  0  0
   39.4340   30.0850   52.9220 C   0  0  0  0  0  0  0  0  0  0  0  0
   39.9970   30.5290   51.7780 C   0  0  0  0  0  0  0  0  0  0  0  0
   40.3400   29.6580   50.7240 C   0  0  0  0  0  0  0  0  0  0  0  0
   39.7940   28.3890   50.6710 C   0  0  0  0  0  0  0  0  0  0  0  0
   39.2060   27.8790   51.8700 C   0  0  0  0  0  0  0  0  0  0  0  0
   39.0450   28.7660   52.9090 C   0  0  0  0  0  0  0  0  0  0  0  0
   38.3230   33.6550   57.1070 H   0  0  0  0  0  0  0  0  0  0  0  0
   39.8417   31.9399   56.5947 H   0  0  0  0  0  0  0  0  0  0  0  0
   37.5904   31.2029   54.4006 H   0  0  0  0  0  0  0  0  0  0  0  0
   40.6779   30.5693   54.5664 H   0  0  0  0  0  0  0  0  0  0  0  0
   40.1944   31.6052   51.6647 H   0  0  0  0  0  0  0  0  0  0  0  0
   41.0419   29.9879   49.9439 H   0  0  0  0  0  0  0  0  0  0  0  0
   39.8113   27.7963   49.7445 H   0  0  0  0  0  0  0  0  0  0  0  0
   38.8969   26.8270   51.9576 H   0  0  0  0  0  0  0  0  0  0  0  0
   38.5577   28.3830   53.8178 H   0  0  0  0  0  0  0  0  0  0  0  0
  1  2  2  3
  2  3  1  0
  3  4  2  3
  4  5  1  0
  5  6  2  0
  6  7  1  0
  7  8  2  0
  8  9  1  0
  9 10  2  0
 10  5  1  0
  1 11  1  0
  2 12  1  0
  3 13  1  0
  4 14  1  0
  6 15  1  0
  7 16  1  0
  8 17  1  0
  9 18  1  0
 10 19  1  0
M  END

>  <ID>
Pocket2Mol_0_num_sample_100

>  <docking_score>
-6.592

$$$$
Pocket2Mol_10_num_sample_100
     RDKit          3D

 12 12  0  0  0  0  0  0  0  0999 V2000
   38.9480   29.1480   53.6190 C   0  0  0  0  0  0  0  0  0  0  0  0
   39.4450   29.2390   52.1820 C   0  0  0  0  0  0  0  0  0  0  0  0
   40.0990   30.4080   51.8430 C   0  0  0  0  0  0  0  0  0  0  0  0
   40.5430   30.4280   50.6450 C   0  0  0  0  0  0  0  0  0  0  0  0
   40.2030   29.3960   49.8670 C   0  0  0  0  0  0  0  0  0  0  0  0
   39.3160   28.1260   51.2380 S   0  0  0  0  0  0  0  0  0  0  0  0
   39.7907   29.3023   54.3089 H   0  0  0  0  0  0  0  0  0  0  0  0
   38.1854   29.9214   53.7929 H   0  0  0  0  0  0  0  0  0  0  0  0
   38.5089   28.1545   53.7929 H   0  0  0  0  0  0  0  0  0  0  0  0
   40.2262   31.2473   52.5426 H   0  0  0  0  0  0  0  0  0  0  0  0
   41.1716   31.2509   50.2738 H   0  0  0  0  0  0  0  0  0  0  0  0
   40.3544   29.2586   48.7862 H   0  0  0  0  0  0  0  0  0  0  0  0
  1  2  1  0
  2  3  2  0
  3  4  1  0
  4  5  2  0
  5  6  1  0
  6  2  1  0
  1  7  1  0
  1  8  1  0
  1  9  1  0
  3 10  1  0
  4 11  1  0
  5 12  1  0
M  END

>  <ID>
Pocket2Mol_10_num_sample_100

>  <docking_score>
-4.491

$$$$
Pocket2Mol_11_num_sample_100
     RDKit          3D

  7  6  0  0  0  0  0  0  0  0999 V2000
   37.2280   34.6510   49.4460 C   0  0  0  0  0  0  0  0  0  0  0  0
   37.9670   34.3970   48.6020 C   0  0  0  0  0  0  0  0  0  0  0  0
   38.1900   34.9970   47.5300 O   0  0  0  0  0  0  0  0  0  0  0  0
   38.5800   33.1560   48.7520 O   0  0  0  0  0  0  0  0  0  0  0  0
   37.7121   34.4846   50.4196 H   0  0  0  0  0  0  0  0  0  0  0  0
   36.9245   35.7050   49.3628 H   0  0  0  0  0  0  0  0  0  0  0  0
   36.3406   34.0063   49.3628 H   0  0  0  0  0  0  0  0  0  0  0  0
  1  2  1  0
  2  3  2  0
  2  4  1  0
  1  5  1  0
  1  6  1  0
  1  7  1  0
M  CHG  1   4  -1
M  END

>  <ID>
Pocket2Mol_11_num_sample_100

>  <docking_score>
-3.231

$$$$
Pocket2Mol_12_num_sample_100
     RDKit          3D

 14 14  0  0  0  0  0  0  0  0999 V2000
   37.1740   28.2390   53.5890 C   0  0  0  0  0  0  0  0  0  0  0  0
   37.7400   26.9870   54.2980 C   0  0  0  0  0  0  0  0  0  0  0  0
   39.2270   26.9490   53.9030 O   0  0  0  0  0  0  0  0  0  0  0  0
   39.5290   27.1040   52.4760 C   0  0  0  0  0  0  0  0  0  0  0  0
   38.7060   28.3030   51.7620 C   0  0  0  0  0  0  0  0  0  0  0  0
   37.5370   28.0590   52.2020 O   0  0  0  0  0  0  0  0  0  0  0  0
   36.0810   28.2901   53.7022 H   0  0  0  0  0  0  0  0  0  0  0  0
   37.5707   29.1750   54.0090 H   0  0  0  0  0  0  0  0  0  0  0  0
   37.6312   27.0772   55.3889 H   0  0  0  0  0  0  0  0  0  0  0  0
   37.2094   26.0690   54.0053 H   0  0  0  0  0  0  0  0  0  0  0  0
   40.6044   27.3093   52.3690 H   0  0  0  0  0  0  0  0  0  0  0  0
   39.2286   26.1689   51.9807 H   0  0  0  0  0  0  0  0  0  0  0  0
   39.0649   29.2922   52.0824 H   0  0  0  0  0  0  0  0  0  0  0  0
   38.7917   28.3361   50.6658 H   0  0  0  0  0  0  0  0  0  0  0  0
  1  2  1  0
  2  3  1  0
  3  4  1  0
  4  5  1  0
  5  6  1  0
  6  1  1  0
  1  7  1  0
  1  8  1  0
  2  9  1  0
  2 10  1  0
  4 11  1  0
  4 12  1  0
  5 13  1  0
  5 14  1  0
M  END

>  <ID>
Pocket2Mol_12_num_sample_100

>  <docking_score>
-3.458

$$$$
Pocket2Mol_13_num_sample_100
     RDKit          3D

 11 11  0  0  0  0  0  0  0  0999 V2000
   38.4590   27.4450   51.1850 O   0  0  0  0  0  0  0  0  0  0  0  0
   39.1940   28.4610   51.2430 C   0  0  0  0  0  0  0  0  0  0  0  0
   39.9440   29.1600   50.3950 C   0  0  0  0  0  0  0  0  0  0  0  0
   40.4050   30.1830   50.6510 C   0  0  0  0  0  0  0  0  0  0  0  0
   40.1020   30.5000   51.9230 C   0  0  0  0  0  0  0  0  0  0  0  0
   39.2090   29.2410   52.3120 N   0  0  0  0  0  0  0  0  0  0  0  0
   40.7888   28.5067   50.1316 H   0  0  0  0  0  0  0  0  0  0  0  0
   39.2018   29.4427   49.6339 H   0  0  0  0  0  0  0  0  0  0  0  0
   40.9994   30.8035   49.9643 H   0  0  0  0  0  0  0  0  0  0  0  0
   40.3889   31.3770   52.5219 H   0  0  0  0  0  0  0  0  0  0  0  0
   38.7380   29.0690   53.2120 H   0  0  0  0  0  0  0  0  0  0  0  0
  1  2  2  0
  2  3  1  0
  3  4  1  0
  4  5  2  0
  5  6  1  0
  6  2  1  0
  3  7  1  0
  3  8  1  0
  4  9  1  0
  5 10  1  0
  6 11  1  0
M  END

>  <ID>
Pocket2Mol_13_num_sample_100

>  <docking_score>
-4.486

$$$$
Pocket2Mol_14_num_sample_100
     RDKit          3D

 10 10  0  0  0  0  0  0  0  0999 V2000
   38.4070   27.4550   51.3330 O   0  0  0  0  0  0  0  0  0  0  0  0
   39.1050   28.4410   51.3390 C   0  0  0  0  0  0  0  0  0  0  0  0
   39.1600   29.3140   52.3920 O   0  0  0  0  0  0  0  0  0  0  0  0
   39.9940   30.4140   51.9890 C   0  0  0  0  0  0  0  0  0  0  0  0
   40.2670   30.0790   50.6090 C   0  0  0  0  0  0  0  0  0  0  0  0
   39.7850   28.9130   50.2390 O   0  0  0  0  0  0  0  0  0  0  0  0
   39.4618   31.3731   52.0719 H   0  0  0  0  0  0  0  0  0  0  0  0
   40.8956   30.5425   52.6059 H   0  0  0  0  0  0  0  0  0  0  0  0
   39.8231   30.8561   49.9695 H   0  0  0  0  0  0  0  0  0  0  0  0
   41.3605   30.0205   50.5047 H   0  0  0  0  0  0  0  0  0  0  0  0
  1  2  2  0
  2  3  1  0
  3  4  1  0
  4  5  1  0
  5  6  1  0
  6  2  1  0
  4  7  1  0
  4  8  1  0
  5  9  1  0
  5 10  1  0
M  END

>  <ID>
Pocket2Mol_14_num_sample_100

>  <docking_score>
-3.69

$$$$
Pocket2Mol_15_num_sample_100
     RDKit          3D

 12 12  0  0  0  0  0  0  0  0999 V2000
   38.3210   27.5740   51.4780 O   0  0  0  0  0  0  0  0  0  0  0  0
   39.0660   28.5590   51.4700 C   0  0  0  0  0  0  0  0  0  0  0  0
   39.8440   29.0110   50.3480 C   0  0  0  0  0  0  0  0  0  0  0  0
   40.6050   30.2520   50.8490 C   0  0  0  0  0  0  0  0  0  0  0  0
   39.8810   30.4700   52.0660 C   0  0  0  0  0  0  0  0  0  0  0  0
   39.2750   29.3740   52.4540 O   0  0  0  0  0  0  0  0  0  0  0  0
   40.5498   28.2296   50.0298 H   0  0  0  0  0  0  0  0  0  0  0  0
   39.2107   29.2436   49.4792 H   0  0  0  0  0  0  0  0  0  0  0  0
   41.6687   30.0397   51.0322 H   0  0  0  0  0  0  0  0  0  0  0  0
   40.6379   31.1042   50.1542 H   0  0  0  0  0  0  0  0  0  0  0  0
   40.5831   30.7899   52.8501 H   0  0  0  0  0  0  0  0  0  0  0  0
   39.1223   31.2464   51.8886 H   0  0  0  0  0  0  0  0  0  0  0  0
  1  2  2  0
  2  3  1  0
  3  4  1  0
  4  5  1  0
  5  6  1  0
  6  2  1  0
  3  7  1  0
  3  8  1  0
  4  9  1  0
  4 10  1  0
  5 11  1  0
  5 12  1  0
M  END

>  <ID>
Pocket2Mol_15_num_sample_100

>  <docking_score>
-4.404

$$$$
Pocket2Mol_16_num_sample_100
     RDKit          3D

 18 18  0  0  0  0  0  0  0  0999 V2000
   39.9650   27.6720   51.5950 C   0  0  0  0  0  0  0  0  0  0  0  0
   39.2290   28.4990   51.0260 C   0  0  0  0  0  0  0  0  0  0  0  0
   39.8930   29.2810   50.1530 C   0  0  0  0  0  0  0  0  0  0  0  0
   40.6460   30.1870   50.7290 C   0  0  0  0  0  0  0  0  0  0  0  0
   40.2440   30.3990   51.8140 C   0  0  0  0  0  0  0  0  0  0  0  0
   39.3920   29.7790   51.9130 C   0  0  0  0  0  0  0  0  0  0  0  0
   39.8666   27.7825   52.6850 H   0  0  0  0  0  0  0  0  0  0  0  0
   39.6685   26.6542   51.3014 H   0  0  0  0  0  0  0  0  0  0  0  0
   41.0103   27.8484   51.3014 H   0  0  0  0  0  0  0  0  0  0  0  0
   38.3251   27.9410   50.7404 H   0  0  0  0  0  0  0  0  0  0  0  0
   40.5344   28.6403   49.5300 H   0  0  0  0  0  0  0  0  0  0  0  0
   39.1375   29.8178   49.5606 H   0  0  0  0  0  0  0  0  0  0  0  0
   41.6815   29.8203   50.7868 H   0  0  0  0  0  0  0  0  0  0  0  0
   40.6181   31.1155   50.1398 H   0  0  0  0  0  0  0  0  0  0  0  0
   41.0028   30.1376   52.5662 H   0  0  0  0  0  0  0  0  0  0  0  0
   40.0042   31.4615   51.9675 H   0  0  0  0  0  0  0  0  0  0  0  0
   39.3687   29.4413   52.9596 H   0  0  0  0  0  0  0  0  0  0  0  0
   38.5748   30.4266   51.5626 H   0  0  0  0  0  0  0  0  0  0  0  0
  1  2  1  0
  2  3  1  0
  3  4  1  0
  4  5  1  0
  5  6  1  0
  6  2  1  0
  1  7  1  0
  1  8  1  0
  1  9  1  0
  2 10  1  0
  3 11  1  0
  3 12  1  0
  4 13  1  0
  4 14  1  0
  5 15  1  0
  5 16  1  0
  6 17  1  0
  6 18  1  0
M  END

>  <ID>
Pocket2Mol_16_num_sample_100

>  <docking_score>
-4.727

$$$$
Pocket2Mol_17_num_sample_100
     RDKit          3D

 16 16  0  0  0  0  0  0  0  0999 V2000
   39.5720   31.1570   49.7680 O   0  0  0  0  0  0  0  0  0  0  0  0
   40.5810   30.3600   50.4380 C   0  0  0  0  0  0  0  0  0  0  0  0
   40.2180   30.4670   51.7130 C   0  0  0  0  0  0  0  0  0  0  0  0
   39.5360   29.7070   52.2440 C   0  0  0  0  0  0  0  0  0  0  0  0
   39.2310   28.7130   51.3910 C   0  0  0  0  0  0  0  0  0  0  0  0
   40.0370   28.9640   50.1960 C   0  0  0  0  0  0  0  0  0  0  0  0
   39.9350   31.4970   48.9120 H   0  0  0  0  0  0  0  0  0  0  0  0
   41.6241   30.5877   50.1731 H   0  0  0  0  0  0  0  0  0  0  0  0
   41.1534   30.4876   52.2915 H   0  0  0  0  0  0  0  0  0  0  0  0
   39.5669   31.3529   51.6779 H   0  0  0  0  0  0  0  0  0  0  0  0
   40.0582   29.2931   53.1192 H   0  0  0  0  0  0  0  0  0  0  0  0
   38.6131   30.2067   52.5734 H   0  0  0  0  0  0  0  0  0  0  0  0
   39.4872   27.7374   51.8298 H   0  0  0  0  0  0  0  0  0  0  0  0
   38.1557   28.6877   51.1607 H   0  0  0  0  0  0  0  0  0  0  0  0
   40.8529   28.2315   50.1084 H   0  0  0  0  0  0  0  0  0  0  0  0
   39.4641   28.8781   49.2609 H   0  0  0  0  0  0  0  0  0  0  0  0
  1  2  1  0
  2  3  1  0
  3  4  1  0
  4  5  1  0
  5  6  1  0
  6  2  1  0
  1  7  1  0
  2  8  1  0
  3  9  1  0
  3 10  1  0
  4 11  1  0
  4 12  1  0
  5 13  1  0
  5 14  1  0
  6 15  1  0
  6 16  1  0
M  END

>  <ID>
Pocket2Mol_17_num_sample_100

>  <docking_score>
-4.466

$$$$
Pocket2Mol_18_num_sample_100
     RDKit          3D

 18 18  0  0  0  0  0  0  0  0999 V2000
   40.3360   29.1310   50.2490 C   0  0  0  0  0  0  0  0  0  0  0  0
   39.3670   28.2160   50.5970 C   0  0  0  0  0  0  0  0  0  0  0  0
   39.5490   27.8070   52.0410 C   0  0  0  0  0  0  0  0  0  0  0  0
   39.2500   29.2410   52.7970 C   0  0  0  0  0  0  0  0  0  0  0  0
   39.9980   30.4910   52.1280 C   0  0  0  0  0  0  0  0  0  0  0  0
   39.9930   30.4220   50.5420 C   0  0  0  0  0  0  0  0  0  0  0  0
   41.2602   28.8838   50.7918 H   0  0  0  0  0  0  0  0  0  0  0  0
   40.4655   29.0685   49.1584 H   0  0  0  0  0  0  0  0  0  0  0  0
   38.3729   28.6688   50.4675 H   0  0  0  0  0  0  0  0  0  0  0  0
   39.4550   27.3288   49.9527 H   0  0  0  0  0  0  0  0  0  0  0  0
   38.8266   27.0325   52.3382 H   0  0  0  0  0  0  0  0  0  0  0  0
   40.5278   27.3614   52.2722 H   0  0  0  0  0  0  0  0  0  0  0  0
   38.1666   29.4290   52.7688 H   0  0  0  0  0  0  0  0  0  0  0  0
   39.6337   29.1490   53.8238 H   0  0  0  0  0  0  0  0  0  0  0  0
   39.4917   31.4154   52.4429 H   0  0  0  0  0  0  0  0  0  0  0  0
   41.0462   30.4717   52.4610 H   0  0  0  0  0  0  0  0  0  0  0  0
   38.9937   30.6570   50.1468 H   0  0  0  0  0  0  0  0  0  0  0  0
   40.6853   31.1487   50.0919 H   0  0  0  0  0  0  0  0  0  0  0  0
  1  2  1  0
  2  3  1  0
  3  4  1  0
  4  5  1  0
  5  6  1  0
  6  1  1  0
  1  7  1  0
  1  8  1  0
  2  9  1  0
  2 10  1  0
  3 11  1  0
  3 12  1  0
  4 13  1  0
  4 14  1  0
  5 15  1  0
  5 16  1  0
  6 17  1  0
  6 18  1  0
M  END

>  <ID>
Pocket2Mol_18_num_sample_100

>  <docking_score>
-4.748

$$$$
Pocket2Mol_19_num_sample_100
     RDKit          3D

 10 10  0  0  0  0  0  0  0  0999 V2000
   38.3360   27.5340   51.4870 O   0  0  0  0  0  0  0  0  0  0  0  0
   39.0740   28.5500   51.5580 C   0  0  0  0  0  0  0  0  0  0  0  0
   39.8520   28.9310   50.3150 C   0  0  0  0  0  0  0  0  0  0  0  0
   40.5920   30.2580   50.7050 C   0  0  0  0  0  0  0  0  0  0  0  0
   40.0140   30.4850   51.9720 C   0  0  0  0  0  0  0  0  0  0  0  0
   39.2060   29.4200   52.2890 O   0  0  0  0  0  0  0  0  0  0  0  0
   40.5756   28.1450   50.0533 H   0  0  0  0  0  0  0  0  0  0  0  0
   39.2013   29.0578   49.4372 H   0  0  0  0  0  0  0  0  0  0  0  0
   41.3427   30.8415   50.1519 H   0  0  0  0  0  0  0  0  0  0  0  0
   40.1828   31.3701   52.6029 H   0  0  0  0  0  0  0  0  0  0  0  0
  1  2  2  0
  2  3  1  0
  3  4  1  0
  4  5  2  0
  5  6  1  0
  6  2  1  0
  3  7  1  0
  3  8  1  0
  4  9  1  0
  5 10  1  0
M  END

>  <ID>
Pocket2Mol_19_num_sample_100

>  <docking_score>
-4.411

$$$$
Pocket2Mol_1_num_sample_100
     RDKit          3D

 20 21  0  0  0  0  0  0  0  0999 V2000
   39.0540   27.3510   50.6370 O   0  0  0  0  0  0  0  0  0  0  0  0
   39.1560   28.3110   51.7000 C   0  0  0  0  0  0  0  0  0  0  0  0
   38.7190   27.9510   52.9190 C   0  0  0  0  0  0  0  0  0  0  0  0
   38.9070   28.9190   53.8060 C   0  0  0  0  0  0  0  0  0  0  0  0
   38.5680   29.0480   55.2970 N   0  0  0  0  0  0  0  0  0  0  0  0
   38.9160   30.3900   55.8680 C   0  0  0  0  0  0  0  0  0  0  0  0
   39.4290   30.9040   54.7300 C   0  0  0  0  0  0  0  0  0  0  0  0
   39.4500   30.1480   53.6170 C   0  0  0  0  0  0  0  0  0  0  0  0
   39.8620   30.4750   52.4830 C   0  0  0  0  0  0  0  0  0  0  0  0
   39.7280   29.4870   51.3830 C   0  0  0  0  0  0  0  0  0  0  0  0
   38.4730   26.5560   50.7420 H   0  0  0  0  0  0  0  0  0  0  0  0
   38.2633   26.9772   53.1515 H   0  0  0  0  0  0  0  0  0  0  0  0
   37.9276   29.3472   53.5463 H   0  0  0  0  0  0  0  0  0  0  0  0
   37.5570   28.8930   55.4180 H   0  0  0  0  0  0  0  0  0  0  0  0
   39.1310   28.3470   55.8010 H   0  0  0  0  0  0  0  0  0  0  0  0
   38.0330   30.9420   56.2224 H   0  0  0  0  0  0  0  0  0  0  0  0
   39.5624   30.4023   56.7580 H   0  0  0  0  0  0  0  0  0  0  0  0
   39.8256   31.9299   54.7127 H   0  0  0  0  0  0  0  0  0  0  0  0
   40.3099   31.4639   52.3057 H   0  0  0  0  0  0  0  0  0  0  0  0
   40.0777   29.7047   50.3631 H   0  0  0  0  0  0  0  0  0  0  0  0
  1  2  1  0
  2  3  2  0
  3  4  1  0
  4  5  1  0
  5  6  1  0
  6  7  1  0
  7  8  2  0
  8  9  1  0
  9 10  2  0
 10  2  1  0
  8  4  1  0
  1 11  1  0
  3 12  1  0
  4 13  1  0
  5 14  1  0
  5 15  1  0
  6 16  1  0
  6 17  1  0
  7 18  1  0
  9 19  1  0
 10 20  1  0
M  CHG  1   5   1
M  END

>  <ID>
Pocket2Mol_1_num_sample_100

>  <docking_score>
-6.03

$$$$
Pocket2Mol_20_num_sample_100
     RDKit          3D

 11 11  0  0  0  0  0  0  0  0999 V2000
   38.9580   27.4470   50.6760 O   0  0  0  0  0  0  0  0  0  0  0  0
   39.4290   28.4530   50.7540 N   0  0  0  0  0  0  0  0  0  0  0  0
   39.5000   29.2920   51.9610 C   0  0  0  0  0  0  0  0  0  0  0  0
   40.0790   30.4690   51.8670 C   0  0  0  0  0  0  0  0  0  0  0  0
   40.5040   30.3590   50.5970 C   0  0  0  0  0  0  0  0  0  0  0  0
   40.1430   29.3600   49.9200 C   0  0  0  0  0  0  0  0  0  0  0  0
   38.0320   27.3080   50.9970 H   0  0  0  0  0  0  0  0  0  0  0  0
   39.0800   28.9439   52.9162 H   0  0  0  0  0  0  0  0  0  0  0  0
   40.1826   31.2853   52.5970 H   0  0  0  0  0  0  0  0  0  0  0  0
   41.1557   31.1278   50.1563 H   0  0  0  0  0  0  0  0  0  0  0  0
   40.3477   29.2111   48.8495 H   0  0  0  0  0  0  0  0  0  0  0  0
  1  2  1  0
  2  3  1  0
  3  4  2  0
  4  5  1  0
  5  6  2  0
  6  2  1  0
  1  7  1  0
  3  8  1  0
  4  9  1  0
  5 10  1  0
  6 11  1  0
M  END

>  <ID>
Pocket2Mol_20_num_sample_100

>  <docking_score>
-4.324

$$$$
Pocket2Mol_21_num_sample_100
     RDKit          3D

 13 13  0  0  0  0  0  0  0  0999 V2000
   38.8380   28.8680   53.3320 C   0  0  0  0  0  0  0  0  0  0  0  0
   39.3430   29.2600   52.2260 N   0  0  0  0  0  0  0  0  0  0  0  0
   40.0690   30.4370   51.7250 C   0  0  0  0  0  0  0  0  0  0  0  0
   40.4840   30.4280   50.4770 C   0  0  0  0  0  0  0  0  0  0  0  0
   40.1260   29.1680   50.1790 C   0  0  0  0  0  0  0  0  0  0  0  0
   39.4580   28.5100   51.0210 C   0  0  0  0  0  0  0  0  0  0  0  0
   39.4023   29.3061   54.1684 H   0  0  0  0  0  0  0  0  0  0  0  0
   37.7877   29.1897   53.3900 H   0  0  0  0  0  0  0  0  0  0  0  0
   38.8891   27.7707   53.3900 H   0  0  0  0  0  0  0  0  0  0  0  0
   40.2599   31.3021   52.3770 H   0  0  0  0  0  0  0  0  0  0  0  0
   40.9702   31.2057   49.8697 H   0  0  0  0  0  0  0  0  0  0  0  0
   40.4111   28.7183   49.2165 H   0  0  0  0  0  0  0  0  0  0  0  0
   39.0300   27.5110   50.8514 H   0  0  0  0  0  0  0  0  0  0  0  0
  1  2  1  0
  2  3  1  0
  3  4  2  0
  4  5  1  0
  5  6  2  0
  6  2  1  0
  1  7  1  0
  1  8  1  0
  1  9  1  0
  3 10  1  0
  4 11  1  0
  5 12  1  0
  6 13  1  0
M  END

>  <ID>
Pocket2Mol_21_num_sample_100

>  <docking_score>
-4.042

$$$$
Pocket2Mol_22_num_sample_100
     RDKit          3D

 10  9  0  0  0  0  0  0  0  0999 V2000
   39.5600   28.5810   51.2880 C   0  0  0  0  0  0  0  0  0  0  0  0
   40.0740   29.9080   51.1570 C   0  0  0  0  0  0  0  0  0  0  0  0
   40.5200   30.4000   50.0990 C   0  0  0  0  0  0  0  0  0  0  0  0
   39.9440   30.6200   52.3240 O   0  0  0  0  0  0  0  0  0  0  0  0
   39.4625   28.3292   52.3543 H   0  0  0  0  0  0  0  0  0  0  0  0
   38.5734   28.5206   50.8052 H   0  0  0  0  0  0  0  0  0  0  0  0
   40.2485   27.8718   50.8052 H   0  0  0  0  0  0  0  0  0  0  0  0
   41.2409   31.1952   50.3398 H   0  0  0  0  0  0  0  0  0  0  0  0
   41.0214   29.6158   49.5128 H   0  0  0  0  0  0  0  0  0  0  0  0
   39.6905   30.8222   49.5128 H   0  0  0  0  0  0  0  0  0  0  0  0
  1  2  1  0
  2  3  1  0
  2  4  2  0
  1  5  1  0
  1  6  1  0
  1  7  1  0
  3  8  1  0
  3  9  1  0
  3 10  1  0
M  END

>  <ID>
Pocket2Mol_22_num_sample_100

>  <docking_score>
-3.201

$$$$
Pocket2Mol_23_num_sample_100
     RDKit          3D

 14 14  0  0  0  0  0  0  0  0999 V2000
   39.6550   28.2380   50.7500 C   0  0  0  0  0  0  0  0  0  0  0  0
   38.8620   27.5370   51.7090 C   0  0  0  0  0  0  0  0  0  0  0  0
   37.7570   28.1400   52.0730 O   0  0  0  0  0  0  0  0  0  0  0  0
   37.4860   27.8130   53.4470 C   0  0  0  0  0  0  0  0  0  0  0  0
   38.7140   27.1570   53.8350 C   0  0  0  0  0  0  0  0  0  0  0  0
   39.4410   27.3260   52.7020 O   0  0  0  0  0  0  0  0  0  0  0  0
   40.3803   28.8792   51.2723 H   0  0  0  0  0  0  0  0  0  0  0  0
   40.1926   27.5144   50.1195 H   0  0  0  0  0  0  0  0  0  0  0  0
   39.0029   28.8603   50.1195 H   0  0  0  0  0  0  0  0  0  0  0  0
   38.6138   26.6148   51.1632 H   0  0  0  0  0  0  0  0  0  0  0  0
   37.3065   28.7171   54.0473 H   0  0  0  0  0  0  0  0  0  0  0  0
   36.5846   27.1995   53.5925 H   0  0  0  0  0  0  0  0  0  0  0  0
   39.1843   27.6495   54.6988 H   0  0  0  0  0  0  0  0  0  0  0  0
   38.5982   26.1122   54.1590 H   0  0  0  0  0  0  0  0  0  0  0  0
  1  2  1  0
  2  3  1  0
  3  4  1  0
  4  5  1  0
  5  6  1  0
  6  2  1  0
  1  7  1  0
  1  8  1  0
  1  9  1  0
  2 10  1  0
  4 11  1  0
  4 12  1  0
  5 13  1  0
  5 14  1  0
M  END

>  <ID>
Pocket2Mol_23_num_sample_100

>  <docking_score>
-3.87

$$$$
Pocket2Mol_24_num_sample_100
     RDKit          3D

 11 11  0  0  0  0  0  0  0  0999 V2000
   39.6170   30.4510   53.5710 C   0  0  0  0  0  0  0  0  0  0  0  0
   39.1740   29.3510   52.6560 C   0  0  0  0  0  0  0  0  0  0  0  0
   39.8510   29.1510   51.4730 C   0  0  0  0  0  0  0  0  0  0  0  0
   39.4230   28.2190   50.8010 C   0  0  0  0  0  0  0  0  0  0  0  0
   38.4530   27.4930   51.4280 N   0  0  0  0  0  0  0  0  0  0  0  0
   38.2090   28.2250   52.8950 S   0  0  0  0  0  0  0  0  0  0  0  0
   39.4888   30.1326   54.6161 H   0  0  0  0  0  0  0  0  0  0  0  0
   40.6769   30.6786   53.3845 H   0  0  0  0  0  0  0  0  0  0  0  0
   39.0107   31.3496   53.3845 H   0  0  0  0  0  0  0  0  0  0  0  0
   40.7017   29.7734   51.1586 H   0  0  0  0  0  0  0  0  0  0  0  0
   39.7867   27.9900   49.7885 H   0  0  0  0  0  0  0  0  0  0  0  0
  1  2  1  0
  2  3  2  0
  3  4  1  0
  4  5  2  0
  5  6  1  0
  6  2  1  0
  1  7  1  0
  1  8  1  0
  1  9  1  0
  3 10  1  0
  4 11  1  0
M  END

>  <ID>
Pocket2Mol_24_num_sample_100

>  <docking_score>
-4.094

$$$$
Pocket2Mol_25_num_sample_100
     RDKit          3D

 16 15  0  0  0  0  0  0  0  0999 V2000
   37.2570   28.2900   53.3870 C   0  0  0  0  0  0  0  0  0  0  0  0
   37.6360   28.0250   52.1090 O   0  0  0  0  0  0  0  0  0  0  0  0
   38.9110   27.5140   51.9450 C   0  0  0  0  0  0  0  0  0  0  0  0
   39.4370   28.2460   50.7140 C   0  0  0  0  0  0  0  0  0  0  0  0
   40.1690   29.2950   51.1180 O   0  0  0  0  0  0  0  0  0  0  0  0
   40.4380   30.3000   50.4560 C   0  0  0  0  0  0  0  0  0  0  0  0
   37.9540   27.8027   54.0847 H   0  0  0  0  0  0  0  0  0  0  0  0
   37.2698   29.3770   53.5553 H   0  0  0  0  0  0  0  0  0  0  0  0
   36.2405   27.9048   53.5553 H   0  0  0  0  0  0  0  0  0  0  0  0
   39.5355   27.7272   52.8251 H   0  0  0  0  0  0  0  0  0  0  0  0
   38.9207   26.4203   51.8278 H   0  0  0  0  0  0  0  0  0  0  0  0
   40.0627   27.5655   50.1179 H   0  0  0  0  0  0  0  0  0  0  0  0
   38.5957   28.5918   50.0954 H   0  0  0  0  0  0  0  0  0  0  0  0
   40.6619   31.1366   51.1341 H   0  0  0  0  0  0  0  0  0  0  0  0
   41.3136   30.0977   49.8217 H   0  0  0  0  0  0  0  0  0  0  0  0
   39.5784   30.5621   49.8217 H   0  0  0  0  0  0  0  0  0  0  0  0
  1  2  1  0
  2  3  1  0
  3  4  1  0
  4  5  1  0
  5  6  1  0
  1  7  1  0
  1  8  1  0
  1  9  1  0
  3 10  1  0
  3 11  1  0
  4 12  1  0
  4 13  1  0
  6 14  1  0
  6 15  1  0
  6 16  1  0
M  END

>  <ID>
Pocket2Mol_25_num_sample_100

>  <docking_score>
-3.336

$$$$
Pocket2Mol_26_num_sample_100
     RDKit          3D

 15 15  0  0  0  0  0  0  0  0999 V2000
   38.9750   28.5890   53.4480 C   0  0  0  0  0  0  0  0  0  0  0  0
   39.2570   29.1050   52.2880 N   0  0  0  0  0  0  0  0  0  0  0  0
   39.3260   28.4800   51.0610 C   0  0  0  0  0  0  0  0  0  0  0  0
   40.0940   29.1510   50.2170 C   0  0  0  0  0  0  0  0  0  0  0  0
   40.4740   30.3650   50.7240 C   0  0  0  0  0  0  0  0  0  0  0  0
   39.9530   30.5180   52.1160 C   0  0  0  0  0  0  0  0  0  0  0  0
   39.3391   29.2552   54.2440 H   0  0  0  0  0  0  0  0  0  0  0  0
   37.8856   28.4684   53.5406 H   0  0  0  0  0  0  0  0  0  0  0  0
   39.4618   27.6069   53.5406 H   0  0  0  0  0  0  0  0  0  0  0  0
   39.7414   27.4705   51.1970 H   0  0  0  0  0  0  0  0  0  0  0  0
   38.3107   28.4324   50.6404 H   0  0  0  0  0  0  0  0  0  0  0  0
   40.3916   28.7777   49.2260 H   0  0  0  0  0  0  0  0  0  0  0  0
   41.0730   31.1151   50.1869 H   0  0  0  0  0  0  0  0  0  0  0  0
   40.7639   30.6679   52.8440 H   0  0  0  0  0  0  0  0  0  0  0  0
   39.2983   31.3867   52.2793 H   0  0  0  0  0  0  0  0  0  0  0  0
  1  2  1  0
  2  3  1  0
  3  4  1  0
  4  5  2  0
  5  6  1  0
  6  2  1  0
  1  7  1  0
  1  8  1  0
  1  9  1  0
  3 10  1  0
  3 11  1  0
  4 12  1  0
  5 13  1  0
  6 14  1  0
  6 15  1  0
M  END

>  <ID>
Pocket2Mol_26_num_sample_100

>  <docking_score>
-3.986

$$$$
Pocket2Mol_27_num_sample_100
     RDKit          3D

 15 15  0  0  0  0  0  0  0  0999 V2000
   39.4590   30.6250   54.0600 C   0  0  0  0  0  0  0  0  0  0  0  0
   39.6310   29.9830   52.6840 C   0  0  0  0  0  0  0  0  0  0  0  0
   39.1570   28.6290   52.6110 C   0  0  0  0  0  0  0  0  0  0  0  0
   39.1180   28.0640   51.3910 C   0  0  0  0  0  0  0  0  0  0  0  0
   39.7800   28.6200   50.3410 C   0  0  0  0  0  0  0  0  0  0  0  0
   40.3010   30.0010   50.6140 C   0  0  0  0  0  0  0  0  0  0  0  0
   40.1620   30.5980   51.7040 C   0  0  0  0  0  0  0  0  0  0  0  0
   39.6594   29.8770   54.8412 H   0  0  0  0  0  0  0  0  0  0  0  0
   40.1644   31.4625   54.1646 H   0  0  0  0  0  0  0  0  0  0  0  0
   38.4293   30.9976   54.1646 H   0  0  0  0  0  0  0  0  0  0  0  0
   38.8409   28.0801   53.5103 H   0  0  0  0  0  0  0  0  0  0  0  0
   38.5424   27.1388   51.2403 H   0  0  0  0  0  0  0  0  0  0  0  0
   39.9208   28.1046   49.3794 H   0  0  0  0  0  0  0  0  0  0  0  0
   40.8378   30.5195   49.8060 H   0  0  0  0  0  0  0  0  0  0  0  0
   40.4942   31.6408   51.8145 H   0  0  0  0  0  0  0  0  0  0  0  0
  1  2  1  0
  2  3  2  0
  3  4  1  0
  4  5  2  0
  5  6  1  0
  6  7  2  0
  7  2  1  0
  1  8  1  0
  1  9  1  0
  1 10  1  0
  3 11  1  0
  4 12  1  0
  5 13  1  0
  6 14  1  0
  7 15  1  0
M  END

>  <ID>
Pocket2Mol_27_num_sample_100

>  <docking_score>
-5.662

$$$$
Pocket2Mol_28_num_sample_100
     RDKit          3D

 13 13  0  0  0  0  0  0  0  0999 V2000
   37.6780   27.7720   52.2320 O   0  0  0  0  0  0  0  0  0  0  0  0
   38.7270   28.5100   51.8610 C   0  0  0  0  0  0  0  0  0  0  0  0
   39.4500   28.0620   50.6920 C   0  0  0  0  0  0  0  0  0  0  0  0
   39.9850   29.3020   50.0150 O   0  0  0  0  0  0  0  0  0  0  0  0
   40.6940   30.2160   50.9310 C   0  0  0  0  0  0  0  0  0  0  0  0
   39.8540   30.5470   52.1750 C   0  0  0  0  0  0  0  0  0  0  0  0
   39.2910   29.2980   52.6370 O   0  0  0  0  0  0  0  0  0  0  0  0
   40.2796   27.4031   50.9880 H   0  0  0  0  0  0  0  0  0  0  0  0
   38.7968   27.4909   50.0158 H   0  0  0  0  0  0  0  0  0  0  0  0
   41.6325   29.7403   51.2520 H   0  0  0  0  0  0  0  0  0  0  0  0
   40.8891   31.1548   50.3920 H   0  0  0  0  0  0  0  0  0  0  0  0
   40.4902   30.9886   52.9562 H   0  0  0  0  0  0  0  0  0  0  0  0
   39.0640   31.2750   51.9383 H   0  0  0  0  0  0  0  0  0  0  0  0
  1  2  2  0
  2  3  1  0
  3  4  1  0
  4  5  1  0
  5  6  1  0
  6  7  1  0
  7  2  1  0
  3  8  1  0
  3  9  1  0
  5 10  1  0
  5 11  1  0
  6 12  1  0
  6 13  1  0
M  END

>  <ID>
Pocket2Mol_28_num_sample_100

>  <docking_score>
-4.163

$$$$
Pocket2Mol_29_num_sample_100
     RDKit          3D

 13 13  0  0  0  0  0  0  0  0999 V2000
   38.6790   27.0850   50.6900 O   0  0  0  0  0  0  0  0  0  0  0  0
   39.1480   28.3650   51.3890 C   0  0  0  0  0  0  0  0  0  0  0  0
   39.7890   29.3780   50.8680 C   0  0  0  0  0  0  0  0  0  0  0  0
   40.1250   30.3660   51.5110 C   0  0  0  0  0  0  0  0  0  0  0  0
   39.7990   30.5150   52.8460 C   0  0  0  0  0  0  0  0  0  0  0  0
   39.0090   29.3070   53.3600 C   0  0  0  0  0  0  0  0  0  0  0  0
   38.7170   28.3810   52.6730 C   0  0  0  0  0  0  0  0  0  0  0  0
   39.0540   26.8360   49.8100 H   0  0  0  0  0  0  0  0  0  0  0  0
   40.0398   29.3420   49.7976 H   0  0  0  0  0  0  0  0  0  0  0  0
   40.7029   31.1572   51.0110 H   0  0  0  0  0  0  0  0  0  0  0  0
   40.0711   31.3868   53.4591 H   0  0  0  0  0  0  0  0  0  0  0  0
   38.6970   29.2956   54.4148 H   0  0  0  0  0  0  0  0  0  0  0  0
   38.1098   27.5551   53.0719 H   0  0  0  0  0  0  0  0  0  0  0  0
  1  2  1  0
  2  3  2  0
  3  4  1  0
  4  5  2  0
  5  6  1  0
  6  7  2  0
  7  2  1  0
  1  8  1  0
  3  9  1  0
  4 10  1  0
  5 11  1  0
  6 12  1  0
  7 13  1  0
M  END

>  <ID>
Pocket2Mol_29_num_sample_100

>  <docking_score>
-5.135

$$$$
Pocket2Mol_2_num_sample_100
     RDKit          3D

 15 14  0  0  0  0  0  0  0  0999 V2000
   40.5360   30.3350   50.0900 C   0  0  0  0  0  0  0  0  0  0  0  0
   40.1310   30.3970   51.4150 C   0  0  0  0  0  0  0  0  0  0  0  0
   39.6390   29.2290   51.8220 C   0  0  0  0  0  0  0  0  0  0  0  0
   39.5330   28.1780   50.7340 C   0  0  0  0  0  0  0  0  0  0  0  0
   38.6230   27.1550   51.1120 O   0  0  0  0  0  0  0  0  0  0  0  0
   41.6225   30.1687   50.0461 H   0  0  0  0  0  0  0  0  0  0  0  0
   40.0175   29.5058   49.5865 H   0  0  0  0  0  0  0  0  0  0  0  0
   40.2893   31.2814   49.5865 H   0  0  0  0  0  0  0  0  0  0  0  0
   40.9950   30.6609   52.0426 H   0  0  0  0  0  0  0  0  0  0  0  0
   39.3415   31.1579   51.5032 H   0  0  0  0  0  0  0  0  0  0  0  0
   40.2936   28.8380   52.6149 H   0  0  0  0  0  0  0  0  0  0  0  0
   38.6136   29.4251   52.1686 H   0  0  0  0  0  0  0  0  0  0  0  0
   39.1786   28.6523   49.8069 H   0  0  0  0  0  0  0  0  0  0  0  0
   40.5250   27.7292   50.5776 H   0  0  0  0  0  0  0  0  0  0  0  0
   37.8560   27.1490   50.4870 H   0  0  0  0  0  0  0  0  0  0  0  0
  1  2  1  0
  2  3  1  0
  3  4  1  0
  4  5  1  0
  1  6  1  0
  1  7  1  0
  1  8  1  0
  2  9  1  0
  2 10  1  0
  3 11  1  0
  3 12  1  0
  4 13  1  0
  4 14  1  0
  5 15  1  0
M  END

>  <ID>
Pocket2Mol_2_num_sample_100

>  <docking_score>
-3.968

$$$$
Pocket2Mol_30_num_sample_100
     RDKit          3D

 14 14  0  0  0  0  0  0  0  0999 V2000
   38.1270   27.5430   52.7020 N   0  0  0  0  0  0  0  0  0  0  0  0
   39.0560   28.4170   51.9350 C   0  0  0  0  0  0  0  0  0  0  0  0
   39.4480   28.2570   50.6810 C   0  0  0  0  0  0  0  0  0  0  0  0
   40.0210   29.1290   50.1970 C   0  0  0  0  0  0  0  0  0  0  0  0
   40.5230   30.2410   50.7040 C   0  0  0  0  0  0  0  0  0  0  0  0
   40.0970   30.5210   52.0010 C   0  0  0  0  0  0  0  0  0  0  0  0
   39.3280   29.6140   52.6570 C   0  0  0  0  0  0  0  0  0  0  0  0
   38.3360   27.3050   53.6820 H   0  0  0  0  0  0  0  0  0  0  0  0
   37.2760   27.1760   52.2530 H   0  0  0  0  0  0  0  0  0  0  0  0
   39.2353   27.3312   50.1263 H   0  0  0  0  0  0  0  0  0  0  0  0
   40.1801   29.0166   49.1144 H   0  0  0  0  0  0  0  0  0  0  0  0
   41.2174   30.8899   50.1501 H   0  0  0  0  0  0  0  0  0  0  0  0
   40.3804   31.4658   52.4878 H   0  0  0  0  0  0  0  0  0  0  0  0
   38.9432   29.7911   53.6722 H   0  0  0  0  0  0  0  0  0  0  0  0
  1  2  1  0
  2  3  2  0
  3  4  1  0
  4  5  2  0
  5  6  1  0
  6  7  2  0
  7  2  1  0
  1  8  1  0
  1  9  1  0
  3 10  1  0
  4 11  1  0
  5 12  1  0
  6 13  1  0
  7 14  1  0
M  END

>  <ID>
Pocket2Mol_30_num_sample_100

>  <docking_score>
-5.288

$$$$
Pocket2Mol_31_num_sample_100
     RDKit          3D

 17 17  0  0  0  0  0  0  0  0999 V2000
   37.8480   27.8360   51.9590 O   0  0  0  0  0  0  0  0  0  0  0  0
   38.9890   28.5390   51.8390 C   0  0  0  0  0  0  0  0  0  0  0  0
   39.4500   29.3860   52.6350 C   0  0  0  0  0  0  0  0  0  0  0  0
   39.8320   30.4850   52.0490 C   0  0  0  0  0  0  0  0  0  0  0  0
   40.7910   30.2540   50.9430 C   0  0  0  0  0  0  0  0  0  0  0  0
   40.0520   29.5390   50.0310 C   0  0  0  0  0  0  0  0  0  0  0  0
   39.6430   28.2850   50.6770 C   0  0  0  0  0  0  0  0  0  0  0  0
   38.6713   29.6345   53.3711 H   0  0  0  0  0  0  0  0  0  0  0  0
   40.3381   28.9414   53.1080 H   0  0  0  0  0  0  0  0  0  0  0  0
   38.9441   30.9910   51.6419 H   0  0  0  0  0  0  0  0  0  0  0  0
   40.3460   31.0969   52.8049 H   0  0  0  0  0  0  0  0  0  0  0  0
   41.1339   31.2065   50.5128 H   0  0  0  0  0  0  0  0  0  0  0  0
   41.7030   29.7300   51.2651 H   0  0  0  0  0  0  0  0  0  0  0  0
   39.1633   30.1152   49.7339 H   0  0  0  0  0  0  0  0  0  0  0  0
   40.6462   29.3330   49.1285 H   0  0  0  0  0  0  0  0  0  0  0  0
   38.9763   27.7302   50.0004 H   0  0  0  0  0  0  0  0  0  0  0  0
   40.5412   27.6896   50.8976 H   0  0  0  0  0  0  0  0  0  0  0  0
  1  2  2  0
  2  3  1  0
  3  4  1  0
  4  5  1  0
  5  6  1  0
  6  7  1  0
  7  2  1  0
  3  8  1  0
  3  9  1  0
  4 10  1  0
  4 11  1  0
  5 12  1  0
  5 13  1  0
  6 14  1  0
  6 15  1  0
  7 16  1  0
  7 17  1  0
M  END

>  <ID>
Pocket2Mol_31_num_sample_100

>  <docking_score>
-5.614

$$$$
Pocket2Mol_32_num_sample_100
     RDKit          3D

 15 15  0  0  0  0  0  0  0  0999 V2000
   38.6150   27.2320   50.6490 O   0  0  0  0  0  0  0  0  0  0  0  0
   39.3610   27.4390   51.7680 C   0  0  0  0  0  0  0  0  0  0  0  0
   38.5860   28.5320   52.4830 C   0  0  0  0  0  0  0  0  0  0  0  0
   39.0160   28.7520   53.6420 O   0  0  0  0  0  0  0  0  0  0  0  0
   38.2460   28.2670   54.5850 C   0  0  0  0  0  0  0  0  0  0  0  0
   37.3830   27.4940   53.8300 C   0  0  0  0  0  0  0  0  0  0  0  0
   37.0820   28.1620   52.6040 O   0  0  0  0  0  0  0  0  0  0  0  0
   37.9460   27.9550   50.5590 H   0  0  0  0  0  0  0  0  0  0  0  0
   39.4195   26.5274   52.3809 H   0  0  0  0  0  0  0  0  0  0  0  0
   40.4054   27.7103   51.5545 H   0  0  0  0  0  0  0  0  0  0  0  0
   38.7192   29.4360   51.8706 H   0  0  0  0  0  0  0  0  0  0  0  0
   38.8159   27.6577   55.3019 H   0  0  0  0  0  0  0  0  0  0  0  0
   37.7542   29.0255   55.2118 H   0  0  0  0  0  0  0  0  0  0  0  0
   37.8565   26.5255   53.6115 H   0  0  0  0  0  0  0  0  0  0  0  0
   36.4523   27.3327   54.3937 H   0  0  0  0  0  0  0  0  0  0  0  0
  1  2  1  0
  2  3  1  0
  3  4  1  0
  4  5  1  0
  5  6  1  0
  6  7  1  0
  7  3  1  0
  1  8  1  0
  2  9  1  0
  2 10  1  0
  3 11  1  0
  5 12  1  0
  5 13  1  0
  6 14  1  0
  6 15  1  0
M  END

>  <ID>
Pocket2Mol_32_num_sample_100

>  <docking_score>
-3.89

$$$$
Pocket2Mol_33_num_sample_100
     RDKit          3D

 10  9  0  0  0  0  0  0  0  0999 V2000
   37.2360   34.9380   48.0000 O   0  0  0  0  0  0  0  0  0  0  0  0
   38.4100   34.6520   48.0680 C   0  0  0  0  0  0  0  0  0  0  0  0
   39.2000   35.5930   47.3770 C   0  0  0  0  0  0  0  0  0  0  0  0
   38.7670   35.8970   46.2880 O   0  0  0  0  0  0  0  0  0  0  0  0
   37.0970   35.5990   47.2760 H   0  0  0  0  0  0  0  0  0  0  0  0
   38.7150   34.6330   49.1247 H   0  0  0  0  0  0  0  0  0  0  0  0
   38.5574   33.6644   47.6066 H   0  0  0  0  0  0  0  0  0  0  0  0
   39.2663   36.5045   47.9892 H   0  0  0  0  0  0  0  0  0  0  0  0
   40.1798   35.1222   47.2088 H   0  0  0  0  0  0  0  0  0  0  0  0
   38.1820   36.6910   46.3750 H   0  0  0  0  0  0  0  0  0  0  0  0
  1  2  1  0
  2  3  1  0
  3  4  1  0
  1  5  1  0
  2  6  1  0
  2  7  1  0
  3  8  1  0
  3  9  1  0
  4 10  1  0
M  END

>  <ID>
Pocket2Mol_33_num_sample_100

>  <docking_score>
-3.467

$$$$
Pocket2Mol_34_num_sample_100
     RDKit          3D

 12 12  0  0  0  0  0  0  0  0999 V2000
   41.1110   30.6190   49.8080 F   0  0  0  0  0  0  0  0  0  0  0  0
   40.3120   29.9010   50.7780 C   0  0  0  0  0  0  0  0  0  0  0  0
   39.7830   28.6710   50.6300 C   0  0  0  0  0  0  0  0  0  0  0  0
   39.2150   27.9990   51.3720 C   0  0  0  0  0  0  0  0  0  0  0  0
   38.9840   28.4950   52.5770 C   0  0  0  0  0  0  0  0  0  0  0  0
   39.3890   29.8370   52.9400 C   0  0  0  0  0  0  0  0  0  0  0  0
   40.0800   30.5130   52.0110 C   0  0  0  0  0  0  0  0  0  0  0  0
   39.9167   28.2343   49.6293 H   0  0  0  0  0  0  0  0  0  0  0  0
   38.8792   26.9896   51.0921 H   0  0  0  0  0  0  0  0  0  0  0  0
   38.4704   27.8709   53.3231 H   0  0  0  0  0  0  0  0  0  0  0  0
   39.1445   30.2753   53.9188 H   0  0  0  0  0  0  0  0  0  0  0  0
   40.4555   31.5265   52.2157 H   0  0  0  0  0  0  0  0  0  0  0  0
  1  2  1  0
  2  3  2  0
  3  4  1  0
  4  5  2  0
  5  6  1  0
  6  7  2  0
  7  2  1  0
  3  8  1  0
  4  9  1  0
  5 10  1  0
  6 11  1  0
  7 12  1  0
M  END

>  <ID>
Pocket2Mol_34_num_sample_100

>  <docking_score>
-5.441

$$$$
Pocket2Mol_35_num_sample_100
     RDKit          3D

 17 17  0  0  0  0  0  0  0  0999 V2000
   40.2680   30.3860   50.7910 C   0  0  0  0  0  0  0  0  0  0  0  0
   40.1690   29.1670   50.2220 C   0  0  0  0  0  0  0  0  0  0  0  0
   39.9150   28.2170   51.1610 O   0  0  0  0  0  0  0  0  0  0  0  0
   38.6780   28.2850   51.7760 C   0  0  0  0  0  0  0  0  0  0  0  0
   39.0120   28.6840   53.2120 C   0  0  0  0  0  0  0  0  0  0  0  0
   39.5520   29.9110   53.2020 O   0  0  0  0  0  0  0  0  0  0  0  0
   39.8890   30.4990   52.1140 C   0  0  0  0  0  0  0  0  0  0  0  0
   41.3201   30.6993   50.7206 H   0  0  0  0  0  0  0  0  0  0  0  0
   39.5551   31.0151   50.2378 H   0  0  0  0  0  0  0  0  0  0  0  0
   39.3500   29.1768   49.4877 H   0  0  0  0  0  0  0  0  0  0  0  0
   41.1224   28.9292   49.7276 H   0  0  0  0  0  0  0  0  0  0  0  0
   38.0418   29.0430   51.2957 H   0  0  0  0  0  0  0  0  0  0  0  0
   38.1176   27.3405   51.7143 H   0  0  0  0  0  0  0  0  0  0  0  0
   38.0941   28.6884   53.8181 H   0  0  0  0  0  0  0  0  0  0  0  0
   39.7227   27.9650   53.6454 H   0  0  0  0  0  0  0  0  0  0  0  0
   39.0136   31.1534   51.9901 H   0  0  0  0  0  0  0  0  0  0  0  0
   40.9451   30.4258   52.4128 H   0  0  0  0  0  0  0  0  0  0  0  0
  1  2  1  0
  2  3  1  0
  3  4  1  0
  4  5  1  0
  5  6  1  0
  6  7  1  0
  7  1  1  0
  1  8  1  0
  1  9  1  0
  2 10  1  0
  2 11  1  0
  4 12  1  0
  4 13  1  0
  5 14  1  0
  5 15  1  0
  7 16  1  0
  7 17  1  0
M  END

>  <ID>
Pocket2Mol_35_num_sample_100

>  <docking_score>
-4.112

$$$$
Pocket2Mol_36_num_sample_100
     RDKit          3D

 19 19  0  0  0  0  0  0  0  0999 V2000
   38.6790   27.1380   51.0220 O   0  0  0  0  0  0  0  0  0  0  0  0
   39.2060   28.1660   51.1780 C   0  0  0  0  0  0  0  0  0  0  0  0
   39.9200   28.8320   50.2110 C   0  0  0  0  0  0  0  0  0  0  0  0
   40.0880   30.2600   50.5170 C   0  0  0  0  0  0  0  0  0  0  0  0
   40.3610   30.4510   51.7780 C   0  0  0  0  0  0  0  0  0  0  0  0
   39.3790   29.8540   52.6200 C   0  0  0  0  0  0  0  0  0  0  0  0
   39.2660   28.5990   52.3920 C   0  0  0  0  0  0  0  0  0  0  0  0
   39.2760   26.5350   50.5110 H   0  0  0  0  0  0  0  0  0  0  0  0
   38.4496   28.5751   50.4921 H   0  0  0  0  0  0  0  0  0  0  0  0
   40.9148   28.3702   50.1264 H   0  0  0  0  0  0  0  0  0  0  0  0
   39.3570   28.7565   49.2690 H   0  0  0  0  0  0  0  0  0  0  0  0
   40.9119   30.6612   49.9084 H   0  0  0  0  0  0  0  0  0  0  0  0
   39.1436   30.7750   50.2871 H   0  0  0  0  0  0  0  0  0  0  0  0
   41.3422   30.0074   52.0027 H   0  0  0  0  0  0  0  0  0  0  0  0
   40.3684   31.5341   51.9698 H   0  0  0  0  0  0  0  0  0  0  0  0
   39.6710   30.0017   53.6702 H   0  0  0  0  0  0  0  0  0  0  0  0
   38.4099   30.3313   52.4124 H   0  0  0  0  0  0  0  0  0  0  0  0
   40.1341   28.1119   52.8601 H   0  0  0  0  0  0  0  0  0  0  0  0
   38.2716   28.3576   52.7956 H   0  0  0  0  0  0  0  0  0  0  0  0
  1  2  1  0
  2  3  1  0
  3  4  1  0
  4  5  1  0
  5  6  1  0
  6  7  1  0
  7  2  1  0
  1  8  1  0
  2  9  1  0
  3 10  1  0
  3 11  1  0
  4 12  1  0
  4 13  1  0
  5 14  1  0
  5 15  1  0
  6 16  1  0
  6 17  1  0
  7 18  1  0
  7 19  1  0
M  END

>  <ID>
Pocket2Mol_36_num_sample_100

>  <docking_score>
-5.282

$$$$
Pocket2Mol_37_num_sample_100
     RDKit          3D

 11 11  0  0  0  0  0  0  0  0999 V2000
   37.8590   27.6110   51.8910 O   0  0  0  0  0  0  0  0  0  0  0  0
   38.9300   28.4060   51.8590 C   0  0  0  0  0  0  0  0  0  0  0  0
   39.6450   28.4370   50.5940 C   0  0  0  0  0  0  0  0  0  0  0  0
   40.1600   29.5160   50.2790 C   0  0  0  0  0  0  0  0  0  0  0  0
   40.2580   30.4800   51.1550 C   0  0  0  0  0  0  0  0  0  0  0  0
   39.8070   30.4810   52.5260 C   0  0  0  0  0  0  0  0  0  0  0  0
   39.1980   29.1950   52.7800 O   0  0  0  0  0  0  0  0  0  0  0  0
   39.7238   27.5479   49.9511 H   0  0  0  0  0  0  0  0  0  0  0  0
   40.5373   29.6648   49.2565 H   0  0  0  0  0  0  0  0  0  0  0  0
   40.7432   31.4032   50.8053 H   0  0  0  0  0  0  0  0  0  0  0  0
   39.9080   31.3076   53.2447 H   0  0  0  0  0  0  0  0  0  0  0  0
  1  2  2  0
  2  3  1  0
  3  4  2  0
  4  5  1  0
  5  6  2  0
  6  7  1  0
  7  2  1  0
  3  8  1  0
  4  9  1  0
  5 10  1  0
  6 11  1  0
M  END

>  <ID>
Pocket2Mol_37_num_sample_100

>  <docking_score>
-5.254

$$$$
Pocket2Mol_38_num_sample_100
     RDKit          3D

 17 17  0  0  0  0  0  0  0  0999 V2000
   38.1370   27.5370   52.1300 O   0  0  0  0  0  0  0  0  0  0  0  0
   39.0610   28.3720   51.5980 C   0  0  0  0  0  0  0  0  0  0  0  0
   39.3640   29.3850   52.4200 C   0  0  0  0  0  0  0  0  0  0  0  0
   40.0460   30.5760   51.9500 C   0  0  0  0  0  0  0  0  0  0  0  0
   40.5350   30.2170   50.7940 C   0  0  0  0  0  0  0  0  0  0  0  0
   39.8350   29.0960   50.2690 C   0  0  0  0  0  0  0  0  0  0  0  0
   39.6610   27.9720   50.8710 C   0  0  0  0  0  0  0  0  0  0  0  0
   37.6680   27.7860   52.9650 H   0  0  0  0  0  0  0  0  0  0  0  0
   39.0877   29.3118   53.4822 H   0  0  0  0  0  0  0  0  0  0  0  0
   39.3407   31.4122   51.8349 H   0  0  0  0  0  0  0  0  0  0  0  0
   40.8190   30.9283   52.6489 H   0  0  0  0  0  0  0  0  0  0  0  0
   40.4472   31.0576   50.0899 H   0  0  0  0  0  0  0  0  0  0  0  0
   41.5899   29.9375   50.9320 H   0  0  0  0  0  0  0  0  0  0  0  0
   38.8232   29.4647   50.0446 H   0  0  0  0  0  0  0  0  0  0  0  0
   40.5360   28.7845   49.4806 H   0  0  0  0  0  0  0  0  0  0  0  0
   39.1481   27.2230   50.2499 H   0  0  0  0  0  0  0  0  0  0  0  0
   40.5509   27.4062   51.1839 H   0  0  0  0  0  0  0  0  0  0  0  0
  1  2  1  0
  2  3  2  0
  3  4  1  0
  4  5  1  0
  5  6  1  0
  6  7  1  0
  7  2  1  0
  1  8  1  0
  3  9  1  0
  4 10  1  0
  4 11  1  0
  5 12  1  0
  5 13  1  0
  6 14  1  0
  6 15  1  0
  7 16  1  0
  7 17  1  0
M  END

>  <ID>
Pocket2Mol_38_num_sample_100

>  <docking_score>
-5.471

$$$$
Pocket2Mol_39_num_sample_100
     RDKit          3D

 15 15  0  0  0  0  0  0  0  0999 V2000
   39.0490   27.8680   51.1030 C   0  0  0  0  0  0  0  0  0  0  0  0
   38.3930   28.1990   52.3470 C   0  0  0  0  0  0  0  0  0  0  0  0
   39.1530   28.6080   53.3220 O   0  0  0  0  0  0  0  0  0  0  0  0
   39.3530   30.1380   53.2660 C   0  0  0  0  0  0  0  0  0  0  0  0
   40.1740   30.7410   52.0760 O   0  0  0  0  0  0  0  0  0  0  0  0
   40.0370   29.9500   50.8530 C   0  0  0  0  0  0  0  0  0  0  0  0
   40.1820   28.7540   51.1310 O   0  0  0  0  0  0  0  0  0  0  0  0
   39.3636   26.8141   51.0827 H   0  0  0  0  0  0  0  0  0  0  0  0
   38.4107   27.9845   50.2148 H   0  0  0  0  0  0  0  0  0  0  0  0
   37.6641   28.9956   52.1369 H   0  0  0  0  0  0  0  0  0  0  0  0
   37.9550   27.2541   52.7011 H   0  0  0  0  0  0  0  0  0  0  0  0
   38.3531   30.5954   53.2354 H   0  0  0  0  0  0  0  0  0  0  0  0
   39.9614   30.3629   54.1544 H   0  0  0  0  0  0  0  0  0  0  0  0
   39.0386   30.1099   50.4198 H   0  0  0  0  0  0  0  0  0  0  0  0
   40.7998   30.2579   50.1227 H   0  0  0  0  0  0  0  0  0  0  0  0
  1  2  1  0
  2  3  1  0
  3  4  1  0
  4  5  1  0
  5  6  1  0
  6  7  1  0
  7  1  1  0
  1  8  1  0
  1  9  1  0
  2 10  1  0
  2 11  1  0
  4 12  1  0
  4 13  1  0
  6 14  1  0
  6 15  1  0
M  END

>  <ID>
Pocket2Mol_39_num_sample_100

>  <docking_score>
-3.821

$$$$
Pocket2Mol_3_num_sample_100
     RDKit          3D

  9  9  0  0  0  0  0  0  0  0999 V2000
   40.3410   30.2660   50.3660 C   0  0  0  0  0  0  0  0  0  0  0  0
   39.8250   28.7180   50.5110 C   0  0  0  0  0  0  0  0  0  0  0  0
   39.2510   28.5230   51.6610 C   0  0  0  0  0  0  0  0  0  0  0  0
   39.4510   29.6350   52.2500 O   0  0  0  0  0  0  0  0  0  0  0  0
   40.1390   30.4690   51.7060 C   0  0  0  0  0  0  0  0  0  0  0  0
   40.7019   30.8880   49.5336 H   0  0  0  0  0  0  0  0  0  0  0  0
   39.9480   27.9456   49.7375 H   0  0  0  0  0  0  0  0  0  0  0  0
   38.7277   27.6287   52.0303 H   0  0  0  0  0  0  0  0  0  0  0  0
   40.5695   31.3250   52.2463 H   0  0  0  0  0  0  0  0  0  0  0  0
  1  2  1  0
  2  3  2  0
  3  4  1  0
  4  5  1  0
  5  1  2  0
  1  6  1  0
  2  7  1  0
  3  8  1  0
  5  9  1  0
M  END

>  <ID>
Pocket2Mol_3_num_sample_100

>  <docking_score>
-3.611

$$$$
Pocket2Mol_40_num_sample_100
     RDKit          3D

 12 12  0  0  0  0  0  0  0  0999 V2000
   40.3300   30.3130   50.2410 C   0  0  0  0  0  0  0  0  0  0  0  0
   39.7730   29.7060   51.4920 C   0  0  0  0  0  0  0  0  0  0  0  0
   39.7940   30.4380   52.6580 C   0  0  0  0  0  0  0  0  0  0  0  0
   39.3030   29.8610   53.6220 C   0  0  0  0  0  0  0  0  0  0  0  0
   38.7170   28.6690   53.3070 N   0  0  0  0  0  0  0  0  0  0  0  0
   38.8120   28.3830   51.8370 C   0  0  0  0  0  0  0  0  0  0  0  0
   38.5100   27.6120   51.1030 O   0  0  0  0  0  0  0  0  0  0  0  0
   41.0520   31.0998   50.5052 H   0  0  0  0  0  0  0  0  0  0  0  0
   40.8353   29.5353   49.6496 H   0  0  0  0  0  0  0  0  0  0  0  0
   39.5118   30.7497   49.6496 H   0  0  0  0  0  0  0  0  0  0  0  0
   40.2148   31.4525   52.7193 H   0  0  0  0  0  0  0  0  0  0  0  0
   39.3320   30.2657   54.6444 H   0  0  0  0  0  0  0  0  0  0  0  0
  1  2  1  0
  2  3  2  0
  3  4  1  0
  4  5  2  0
  5  6  1  0
  6  7  2  0
  6  2  1  0
  1  8  1  0
  1  9  1  0
  1 10  1  0
  3 11  1  0
  4 12  1  0
M  END

>  <ID>
Pocket2Mol_40_num_sample_100

>  <docking_score>
-5.086

$$$$
Pocket2Mol_41_num_sample_100
     RDKit          3D

 15 15  0  0  0  0  0  0  0  0999 V2000
   38.0000   27.1380   53.8670 C   0  0  0  0  0  0  0  0  0  0  0  0
   38.7200   28.0170   52.8510 C   0  0  0  0  0  0  0  0  0  0  0  0
   38.9160   27.4580   51.6030 C   0  0  0  0  0  0  0  0  0  0  0  0
   39.4790   28.2420   50.7650 C   0  0  0  0  0  0  0  0  0  0  0  0
   39.9090   29.4130   51.2410 C   0  0  0  0  0  0  0  0  0  0  0  0
   40.6560   30.4500   50.3530 C   0  0  0  0  0  0  0  0  0  0  0  0
   39.1430   29.4180   53.0560 S   0  0  0  0  0  0  0  0  0  0  0  0
   38.2648   27.4613   54.8845 H   0  0  0  0  0  0  0  0  0  0  0  0
   36.9130   27.2283   53.7249 H   0  0  0  0  0  0  0  0  0  0  0  0
   38.3026   26.0900   53.7249 H   0  0  0  0  0  0  0  0  0  0  0  0
   38.6145   26.4301   51.3528 H   0  0  0  0  0  0  0  0  0  0  0  0
   39.6027   27.9664   49.7073 H   0  0  0  0  0  0  0  0  0  0  0  0
   41.1779   31.1745   50.9955 H   0  0  0  0  0  0  0  0  0  0  0  0
   41.3878   29.9293   49.7179 H   0  0  0  0  0  0  0  0  0  0  0  0
   39.9303   30.9792   49.7179 H   0  0  0  0  0  0  0  0  0  0  0  0
  1  2  1  0
  2  3  2  0
  3  4  1  0
  4  5  2  0
  5  6  1  0
  5  7  1  0
  7  2  1  0
  1  8  1  0
  1  9  1  0
  1 10  1  0
  3 11  1  0
  4 12  1  0
  6 13  1  0
  6 14  1  0
  6 15  1  0
M  END

>  <ID>
Pocket2Mol_41_num_sample_100

>  <docking_score>
-5.086

$$$$
Pocket2Mol_42_num_sample_100
     RDKit          3D

 10  9  0  0  0  0  0  0  0  0999 V2000
   39.0400   35.4680   46.5580 C   0  0  0  0  0  0  0  0  0  0  0  0
   37.9900   34.9700   47.4170 O   0  0  0  0  0  0  0  0  0  0  0  0
   38.2350   34.4760   48.5290 C   0  0  0  0  0  0  0  0  0  0  0  0
   38.4820   33.2740   48.7550 O   0  0  0  0  0  0  0  0  0  0  0  0
   37.6650   35.1660   49.7090 C   0  0  0  0  0  0  0  0  0  0  0  0
   36.5540   34.5880   50.1900 O   0  0  0  0  0  0  0  0  0  0  0  0
   37.9110   36.5350   49.8670 O   0  0  0  0  0  0  0  0  0  0  0  0
   39.8634   35.8585   47.1740 H   0  0  0  0  0  0  0  0  0  0  0  0
   39.4128   34.6508   45.9231 H   0  0  0  0  0  0  0  0  0  0  0  0
   38.6430   36.2738   45.9231 H   0  0  0  0  0  0  0  0  0  0  0  0
  1  2  1  0
  2  3  1  0
  3  4  2  0
  3  5  1  0
  5  6  2  0
  5  7  1  0
  1  8  1  0
  1  9  1  0
  1 10  1  0
M  CHG  1   7  -1
M  END

>  <ID>
Pocket2Mol_42_num_sample_100

>  <docking_score>
-4.086

$$$$
Pocket2Mol_43_num_sample_100
     RDKit          3D

 15 15  0  0  0  0  0  0  0  0999 V2000
   40.1820   30.4360   50.7450 C   0  0  0  0  0  0  0  0  0  0  0  0
   40.1610   29.2030   50.1990 C   0  0  0  0  0  0  0  0  0  0  0  0
   39.9530   28.2580   51.1530 O   0  0  0  0  0  0  0  0  0  0  0  0
   38.7060   28.2640   51.7530 C   0  0  0  0  0  0  0  0  0  0  0  0
   38.9980   28.7080   53.1840 C   0  0  0  0  0  0  0  0  0  0  0  0
   39.4650   29.9650   53.1570 O   0  0  0  0  0  0  0  0  0  0  0  0
   39.9240   30.5060   52.1870 C   0  0  0  0  0  0  0  0  0  0  0  0
   40.3809   31.3358   50.1444 H   0  0  0  0  0  0  0  0  0  0  0  0
   40.2941   28.9913   49.1278 H   0  0  0  0  0  0  0  0  0  0  0  0
   38.0322   28.9741   51.2513 H   0  0  0  0  0  0  0  0  0  0  0  0
   38.2030   27.2870   51.7030 H   0  0  0  0  0  0  0  0  0  0  0  0
   38.0740   28.6690   53.7796 H   0  0  0  0  0  0  0  0  0  0  0  0
   39.7446   28.0403   53.6388 H   0  0  0  0  0  0  0  0  0  0  0  0
   39.3599   31.4496   52.2233 H   0  0  0  0  0  0  0  0  0  0  0  0
   40.8924   30.0211   52.3797 H   0  0  0  0  0  0  0  0  0  0  0  0
  1  2  2  0
  2  3  1  0
  3  4  1  0
  4  5  1  0
  5  6  1  0
  6  7  1  0
  7  1  1  0
  1  8  1  0
  2  9  1  0
  4 10  1  0
  4 11  1  0
  5 12  1  0
  5 13  1  0
  7 14  1  0
  7 15  1  0
M  END

>  <ID>
Pocket2Mol_43_num_sample_100

>  <docking_score>
-4.131

$$$$
Pocket2Mol_44_num_sample_100
     RDKit          3D

 10  9  0  0  0  0  0  0  0  0999 V2000
   37.8560   34.2680   48.8920 C   0  0  0  0  0  0  0  0  0  0  0  0
   37.8900   34.9800   47.8450 O   0  0  0  0  0  0  0  0  0  0  0  0
   39.0100   35.3370   47.2840 C   0  0  0  0  0  0  0  0  0  0  0  0
   38.7470   36.0030   46.0690 O   0  0  0  0  0  0  0  0  0  0  0  0
   37.8870   34.9182   49.7787 H   0  0  0  0  0  0  0  0  0  0  0  0
   36.9286   33.6766   48.9033 H   0  0  0  0  0  0  0  0  0  0  0  0
   38.7228   33.5909   48.9033 H   0  0  0  0  0  0  0  0  0  0  0  0
   39.5572   36.0117   47.9588 H   0  0  0  0  0  0  0  0  0  0  0  0
   39.6159   34.4413   47.0824 H   0  0  0  0  0  0  0  0  0  0  0  0
   38.2260   35.4080   45.4720 H   0  0  0  0  0  0  0  0  0  0  0  0
  1  2  1  0
  2  3  1  0
  3  4  1  0
  1  5  1  0
  1  6  1  0
  1  7  1  0
  3  8  1  0
  3  9  1  0
  4 10  1  0
M  END

>  <ID>
Pocket2Mol_44_num_sample_100

>  <docking_score>
-3.349

$$$$
Pocket2Mol_45_num_sample_100
     RDKit          3D

 15 15  0  0  0  0  0  0  0  0999 V2000
   37.8110   27.5850   52.5610 O   0  0  0  0  0  0  0  0  0  0  0  0
   38.7260   28.4100   52.0500 C   0  0  0  0  0  0  0  0  0  0  0  0
   39.3050   28.0260   50.7810 C   0  0  0  0  0  0  0  0  0  0  0  0
   39.9420   29.2770   50.1340 C   0  0  0  0  0  0  0  0  0  0  0  0
   40.7370   30.2750   51.1270 C   0  0  0  0  0  0  0  0  0  0  0  0
   39.7090   30.5370   52.2210 C   0  0  0  0  0  0  0  0  0  0  0  0
   39.3290   29.2440   52.7440 O   0  0  0  0  0  0  0  0  0  0  0  0
   40.0761   27.2582   50.9421 H   0  0  0  0  0  0  0  0  0  0  0  0
   38.5271   27.6149   50.1208 H   0  0  0  0  0  0  0  0  0  0  0  0
   40.6517   28.9325   49.3674 H   0  0  0  0  0  0  0  0  0  0  0  0
   39.0985   29.8650   49.7432 H   0  0  0  0  0  0  0  0  0  0  0  0
   41.6387   29.7951   51.5351 H   0  0  0  0  0  0  0  0  0  0  0  0
   41.0968   31.1902   50.6341 H   0  0  0  0  0  0  0  0  0  0  0  0
   40.1502   31.1545   53.0173 H   0  0  0  0  0  0  0  0  0  0  0  0
   38.8369   31.0789   51.8264 H   0  0  0  0  0  0  0  0  0  0  0  0
  1  2  2  0
  2  3  1  0
  3  4  1  0
  4  5  1  0
  5  6  1  0
  6  7  1  0
  7  2  1  0
  3  8  1  0
  3  9  1  0
  4 10  1  0
  4 11  1  0
  5 12  1  0
  5 13  1  0
  6 14  1  0
  6 15  1  0
M  END

>  <ID>
Pocket2Mol_45_num_sample_100

>  <docking_score>
-4.774

$$$$
Pocket2Mol_46_num_sample_100
     RDKit          3D

 12 11  0  0  0  0  0  0  0  0999 V2000
   39.0400   35.5010   46.5040 C   0  0  0  0  0  0  0  0  0  0  0  0
   38.0190   34.9830   47.3870 O   0  0  0  0  0  0  0  0  0  0  0  0
   38.3010   34.4820   48.4870 C   0  0  0  0  0  0  0  0  0  0  0  0
   38.5010   33.2700   48.7060 O   0  0  0  0  0  0  0  0  0  0  0  0
   37.8300   35.2030   49.6910 C   0  0  0  0  0  0  0  0  0  0  0  0
   38.1460   36.5600   49.8250 N   0  0  0  0  0  0  0  0  0  0  0  0
   36.7240   34.6780   50.2390 O   0  0  0  0  0  0  0  0  0  0  0  0
   39.8638   35.9189   47.1013 H   0  0  0  0  0  0  0  0  0  0  0  0
   39.4229   34.6881   45.8695 H   0  0  0  0  0  0  0  0  0  0  0  0
   38.6102   36.2900   45.8695 H   0  0  0  0  0  0  0  0  0  0  0  0
   37.8300   37.0840   50.6530 H   0  0  0  0  0  0  0  0  0  0  0  0
   38.6940   37.0350   49.0930 H   0  0  0  0  0  0  0  0  0  0  0  0
  1  2  1  0
  2  3  1  0
  3  4  2  0
  3  5  1  0
  5  6  1  0
  5  7  2  0
  1  8  1  0
  1  9  1  0
  1 10  1  0
  6 11  1  0
  6 12  1  0
M  END

>  <ID>
Pocket2Mol_46_num_sample_100

>  <docking_score>
-4.177

$$$$
Pocket2Mol_47_num_sample_100
     RDKit          3D

 20 20  0  0  0  0  0  0  0  0999 V2000
   40.7710   30.3750   50.3420 C   0  0  0  0  0  0  0  0  0  0  0  0
   40.1450   29.7060   51.3070 C   0  0  1  0  0  0  0  0  0  0  0  0
   39.6950   30.4670   52.5740 C   0  0  0  0  0  0  0  0  0  0  0  0
   39.3160   29.4470   53.8770 C   0  0  0  0  0  0  0  0  0  0  0  0
   38.7080   28.4490   53.3740 O   0  0  0  0  0  0  0  0  0  0  0  0
   39.4010   27.3600   52.7220 C   0  0  0  0  0  0  0  0  0  0  0  0
   38.9920   27.5380   51.3360 C   0  0  0  0  0  0  0  0  0  0  0  0
   39.0520   28.9340   51.0310 O   0  0  0  0  0  0  0  0  0  0  0  0
   41.4574   31.1085   50.7902 H   0  0  0  0  0  0  0  0  0  0  0  0
   41.3424   29.6711   49.7191 H   0  0  0  0  0  0  0  0  0  0  0  0
   40.0307   30.8984   49.7191 H   0  0  0  0  0  0  0  0  0  0  0  0
   41.0401   29.0856   51.4615 H   0  0  0  0  0  0  0  0  0  0  0  0
   40.5084   31.1398   52.8835 H   0  0  0  0  0  0  0  0  0  0  0  0
   38.7772   31.0147   52.3139 H   0  0  0  0  0  0  0  0  0  0  0  0
   40.2345   29.1187   54.3855 H   0  0  0  0  0  0  0  0  0  0  0  0
   38.6959   29.9620   54.6255 H   0  0  0  0  0  0  0  0  0  0  0  0
   40.4912   27.4544   52.8337 H   0  0  0  0  0  0  0  0  0  0  0  0
   39.1627   26.3684   53.1342 H   0  0  0  0  0  0  0  0  0  0  0  0
   39.6707   26.9819   50.6726 H   0  0  0  0  0  0  0  0  0  0  0  0
   37.9698   27.1592   51.1886 H   0  0  0  0  0  0  0  0  0  0  0  0
  1  2  1  0
  2  3  1  0
  3  4  1  0
  4  5  1  0
  5  6  1  0
  6  7  1  0
  7  8  1  0
  8  2  1  0
  1  9  1  0
  1 10  1  0
  1 11  1  0
  2 12  1  1
  3 13  1  0
  3 14  1  0
  4 15  1  0
  4 16  1  0
  6 17  1  0
  6 18  1  0
  7 19  1  0
  7 20  1  0
M  END

>  <ID>
Pocket2Mol_47_num_sample_100

>  <docking_score>
-4.768

$$$$
Pocket2Mol_48_num_sample_100
     RDKit          3D

 13 13  0  0  0  0  0  0  0  0999 V2000
   37.1240   28.0880   52.6280 O   0  0  0  0  0  0  0  0  0  0  0  0
   38.4020   28.0100   52.5170 C   0  0  0  0  0  0  0  0  0  0  0  0
   39.0490   27.0880   53.1440 O   0  0  0  0  0  0  0  0  0  0  0  0
   39.1260   28.6360   51.6360 C   0  0  0  0  0  0  0  0  0  0  0  0
   39.6700   28.3660   50.3850 C   0  0  0  0  0  0  0  0  0  0  0  0
   40.3960   29.3680   49.8600 C   0  0  0  0  0  0  0  0  0  0  0  0
   40.5360   30.4410   50.7640 C   0  0  0  0  0  0  0  0  0  0  0  0
   39.8380   30.1250   52.0410 C   0  0  0  0  0  0  0  0  0  0  0  0
   39.5182   27.4081   49.8661 H   0  0  0  0  0  0  0  0  0  0  0  0
   40.8282   29.3528   48.8486 H   0  0  0  0  0  0  0  0  0  0  0  0
   41.0805   31.3740   50.5566 H   0  0  0  0  0  0  0  0  0  0  0  0
   40.5453   30.0240   52.8774 H   0  0  0  0  0  0  0  0  0  0  0  0
   39.1316   30.8957   52.3831 H   0  0  0  0  0  0  0  0  0  0  0  0
  1  2  2  0
  2  3  1  0
  2  4  1  0
  4  5  2  0
  5  6  1  0
  6  7  2  0
  7  8  1  0
  8  4  1  0
  5  9  1  0
  6 10  1  0
  7 11  1  0
  8 12  1  0
  8 13  1  0
M  CHG  1   3  -1
M  END

>  <ID>
Pocket2Mol_48_num_sample_100

>  <docking_score>
-5.55

$$$$
Pocket2Mol_49_num_sample_100
     RDKit          3D

 16 16  0  0  0  0  0  0  0  0999 V2000
   37.9140   27.6450   53.4970 C   0  0  0  0  0  0  0  0  0  0  0  0
   38.7340   28.6410   52.6860 C   0  0  0  0  0  0  0  0  0  0  0  0
   39.1750   29.7570   53.3700 C   0  0  0  0  0  0  0  0  0  0  0  0
   39.8980   30.5450   52.6700 C   0  0  0  0  0  0  0  0  0  0  0  0
   40.2520   30.3010   51.3150 C   0  0  0  0  0  0  0  0  0  0  0  0
   39.7810   29.1470   50.6790 C   0  0  0  0  0  0  0  0  0  0  0  0
   39.0790   28.3550   51.4630 C   0  0  0  0  0  0  0  0  0  0  0  0
   38.5630   27.1790   50.8580 O   0  0  0  0  0  0  0  0  0  0  0  0
   38.0675   27.8315   54.5702 H   0  0  0  0  0  0  0  0  0  0  0  0
   36.8479   27.7631   53.2531 H   0  0  0  0  0  0  0  0  0  0  0  0
   38.2347   26.6214   53.2531 H   0  0  0  0  0  0  0  0  0  0  0  0
   38.9260   29.9505   54.4238 H   0  0  0  0  0  0  0  0  0  0  0  0
   40.2681   31.4661   53.1439 H   0  0  0  0  0  0  0  0  0  0  0  0
   40.8904   31.0130   50.7714 H   0  0  0  0  0  0  0  0  0  0  0  0
   39.9790   28.9218   49.6207 H   0  0  0  0  0  0  0  0  0  0  0  0
   38.8010   26.9560   49.9230 H   0  0  0  0  0  0  0  0  0  0  0  0
  1  2  1  0
  2  3  2  0
  3  4  1  0
  4  5  2  0
  5  6  1  0
  6  7  2  0
  7  8  1  0
  7  2  1  0
  1  9  1  0
  1 10  1  0
  1 11  1  0
  3 12  1  0
  4 13  1  0
  5 14  1  0
  6 15  1  0
  8 16  1  0
M  END

>  <ID>
Pocket2Mol_49_num_sample_100

>  <docking_score>
-5.784

$$$$
Pocket2Mol_4_num_sample_100
     RDKit          3D

  9  9  0  0  0  0  0  0  0  0999 V2000
   40.4130   30.4970   50.7480 C   0  0  0  0  0  0  0  0  0  0  0  0
   39.9370   30.3360   51.9940 C   0  0  0  0  0  0  0  0  0  0  0  0
   39.4110   28.7430   52.1000 C   0  0  0  0  0  0  0  0  0  0  0  0
   39.4950   28.3060   50.7490 C   0  0  0  0  0  0  0  0  0  0  0  0
   40.2010   29.3490   49.9550 C   0  0  0  0  0  0  0  0  0  0  0  0
   39.8990   31.0964   52.7879 H   0  0  0  0  0  0  0  0  0  0  0  0
   39.0849   28.1815   52.9879 H   0  0  0  0  0  0  0  0  0  0  0  0
   39.1036   27.3559   50.3563 H   0  0  0  0  0  0  0  0  0  0  0  0
   40.5115   29.2408   48.9053 H   0  0  0  0  0  0  0  0  0  0  0  0
  1  2  2  0
  2  3  1  0
  3  4  2  0
  4  5  1  0
  5  1  2  0
  2  6  1  0
  3  7  1  0
  4  8  1  0
  5  9  1  0
M  END

>  <ID>
Pocket2Mol_4_num_sample_100

>  <docking_score>
-4.251

$$$$
Pocket2Mol_50_num_sample_100
     RDKit          3D

 14 14  0  0  0  0  0  0  0  0999 V2000
   38.5790   26.9720   51.0990 O   0  0  0  0  0  0  0  0  0  0  0  0
   39.2000   28.2360   51.2320 C   0  0  0  0  0  0  0  0  0  0  0  0
   39.8180   28.8730   50.2530 C   0  0  0  0  0  0  0  0  0  0  0  0
   40.3590   30.1350   50.3500 C   0  0  0  0  0  0  0  0  0  0  0  0
   40.3690   30.5900   51.4880 C   0  0  0  0  0  0  0  0  0  0  0  0
   39.7420   30.2420   52.5170 C   0  0  0  0  0  0  0  0  0  0  0  0
   39.6730   30.7450   53.8850 O   0  0  0  0  0  0  0  0  0  0  0  0
   39.0740   28.8820   52.5860 C   0  0  0  0  0  0  0  0  0  0  0  0
   38.2270   26.6840   50.2200 H   0  0  0  0  0  0  0  0  0  0  0  0
   39.9069   28.3551   49.2866 H   0  0  0  0  0  0  0  0  0  0  0  0
   40.7484   30.6870   49.4819 H   0  0  0  0  0  0  0  0  0  0  0  0
   41.0415   31.4486   51.6310 H   0  0  0  0  0  0  0  0  0  0  0  0
   38.8040   30.7720   54.3600 H   0  0  0  0  0  0  0  0  0  0  0  0
   38.5843   28.4452   53.4688 H   0  0  0  0  0  0  0  0  0  0  0  0
  1  2  1  0
  2  3  2  0
  3  4  1  0
  4  5  2  0
  5  6  1  0
  6  7  1  0
  6  8  2  0
  8  2  1  0
  1  9  1  0
  3 10  1  0
  4 11  1  0
  5 12  1  0
  7 13  1  0
  8 14  1  0
M  END

>  <ID>
Pocket2Mol_50_num_sample_100

>  <docking_score>
-5.507

$$$$
Pocket2Mol_51_num_sample_100
     RDKit          3D

 18 18  0  0  0  0  0  0  0  0999 V2000
   40.6960   30.3460   50.0130 C   0  0  0  0  0  0  0  0  0  0  0  0
   40.0420   29.6430   51.1960 C   0  0  0  0  0  0  0  0  0  0  0  0
   39.8810   30.4050   52.3370 C   0  0  0  0  0  0  0  0  0  0  0  0
   39.2860   29.7970   53.2900 C   0  0  0  0  0  0  0  0  0  0  0  0
   39.0300   28.5000   53.1000 C   0  0  0  0  0  0  0  0  0  0  0  0
   38.3560   27.6160   54.1890 C   0  0  0  0  0  0  0  0  0  0  0  0
   39.3010   27.7450   51.7920 C   0  0  0  0  0  0  0  0  0  0  0  0
   39.7140   28.4480   51.0060 C   0  0  0  0  0  0  0  0  0  0  0  0
   41.4019   31.1047   50.3819 H   0  0  0  0  0  0  0  0  0  0  0  0
   41.2367   29.6086   49.4015 H   0  0  0  0  0  0  0  0  0  0  0  0
   39.9216   30.8322   49.4015 H   0  0  0  0  0  0  0  0  0  0  0  0
   40.2340   31.4437   52.4178 H   0  0  0  0  0  0  0  0  0  0  0  0
   38.9997   30.3141   54.2177 H   0  0  0  0  0  0  0  0  0  0  0  0
   38.6372   27.9848   55.1864 H   0  0  0  0  0  0  0  0  0  0  0  0
   37.2629   27.6637   54.0752 H   0  0  0  0  0  0  0  0  0  0  0  0
   38.6914   26.5746   54.0752 H   0  0  0  0  0  0  0  0  0  0  0  0
   39.1195   26.6709   51.6391 H   0  0  0  0  0  0  0  0  0  0  0  0
   39.8380   28.0481   49.9888 H   0  0  0  0  0  0  0  0  0  0  0  0
  1  2  1  0
  2  3  2  0
  3  4  1  0
  4  5  2  0
  5  6  1  0
  5  7  1  0
  7  8  2  0
  8  2  1  0
  1  9  1  0
  1 10  1  0
  1 11  1  0
  3 12  1  0
  4 13  1  0
  6 14  1  0
  6 15  1  0
  6 16  1  0
  7 17  1  0
  8 18  1  0
M  END

>  <ID>
Pocket2Mol_51_num_sample_100

>  <docking_score>
-6.156

$$$$
Pocket2Mol_52_num_sample_100
     RDKit          3D

 16 16  0  0  0  0  0  0  0  0999 V2000
   39.4880   30.5910   54.1880 C   0  0  0  0  0  0  0  0  0  0  0  0
   39.6130   30.0620   52.7620 C   0  0  0  0  0  0  0  0  0  0  0  0
   40.2500   30.6240   51.7690 C   0  0  0  0  0  0  0  0  0  0  0  0
   40.3500   30.1130   50.6580 C   0  0  0  0  0  0  0  0  0  0  0  0
   39.7690   28.8700   50.4010 C   0  0  0  0  0  0  0  0  0  0  0  0
   39.1470   28.2100   51.3320 C   0  0  0  0  0  0  0  0  0  0  0  0
   38.5790   26.9360   51.1220 O   0  0  0  0  0  0  0  0  0  0  0  0
   39.0280   28.7650   52.5980 C   0  0  0  0  0  0  0  0  0  0  0  0
   39.6808   29.7750   54.9000 H   0  0  0  0  0  0  0  0  0  0  0  0
   40.2206   31.3962   54.3459 H   0  0  0  0  0  0  0  0  0  0  0  0
   38.4725   30.9831   54.3459 H   0  0  0  0  0  0  0  0  0  0  0  0
   40.7200   31.6041   51.9376 H   0  0  0  0  0  0  0  0  0  0  0  0
   40.8995   30.6363   49.8616 H   0  0  0  0  0  0  0  0  0  0  0  0
   39.8390   28.4407   49.3907 H   0  0  0  0  0  0  0  0  0  0  0  0
   39.0860   26.2430   50.6280 H   0  0  0  0  0  0  0  0  0  0  0  0
   38.5181   28.2434   53.4213 H   0  0  0  0  0  0  0  0  0  0  0  0
  1  2  1  0
  2  3  2  0
  3  4  1  0
  4  5  2  0
  5  6  1  0
  6  7  1  0
  6  8  2  0
  8  2  1  0
  1  9  1  0
  1 10  1  0
  1 11  1  0
  3 12  1  0
  4 13  1  0
  5 14  1  0
  7 15  1  0
  8 16  1  0
M  END

>  <ID>
Pocket2Mol_52_num_sample_100

>  <docking_score>
-6.169

$$$$
Pocket2Mol_53_num_sample_100
     RDKit          3D

 16 16  0  0  0  0  0  0  0  0999 V2000
   40.7060   30.3150   50.2760 C   0  0  0  0  0  0  0  0  0  0  0  0
   40.0250   29.6130   51.3190 C   0  0  0  0  0  0  0  0  0  0  0  0
   39.6980   30.1080   52.4170 C   0  0  0  0  0  0  0  0  0  0  0  0
   38.8010   29.2610   53.1300 C   0  0  0  0  0  0  0  0  0  0  0  0
   38.1590   28.1830   52.7660 C   0  0  0  0  0  0  0  0  0  0  0  0
   37.2350   27.4520   53.4530 N   0  0  0  0  0  0  0  0  0  0  0  0
   38.5060   27.7260   51.4470 N   0  0  0  0  0  0  0  0  0  0  0  0
   39.4000   28.4200   50.6880 C   0  0  0  0  0  0  0  0  0  0  0  0
   41.4074   31.0380   50.7179 H   0  0  0  0  0  0  0  0  0  0  0  0
   41.2619   29.5982   49.6538 H   0  0  0  0  0  0  0  0  0  0  0  0
   39.9726   30.8489   49.6538 H   0  0  0  0  0  0  0  0  0  0  0  0
   40.0580   31.0787   52.7886 H   0  0  0  0  0  0  0  0  0  0  0  0
   38.6167   29.5690   54.1698 H   0  0  0  0  0  0  0  0  0  0  0  0
   37.2480   27.4430   54.4830 H   0  0  0  0  0  0  0  0  0  0  0  0
   36.5250   26.9090   52.9430 H   0  0  0  0  0  0  0  0  0  0  0  0
   39.6469   28.1134   49.6608 H   0  0  0  0  0  0  0  0  0  0  0  0
  1  2  1  0
  2  3  2  0
  3  4  1  0
  4  5  2  0
  5  6  1  0
  5  7  1  0
  7  8  2  0
  8  2  1  0
  1  9  1  0
  1 10  1  0
  1 11  1  0
  3 12  1  0
  4 13  1  0
  6 14  1  0
  6 15  1  0
  8 16  1  0
M  END

>  <ID>
Pocket2Mol_53_num_sample_100

>  <docking_score>
-5.769

$$$$
Pocket2Mol_54_num_sample_100
     RDKit          3D

 17 17  0  0  0  0  0  0  0  0999 V2000
   39.4140   30.5520   54.1730 C   0  0  0  0  0  0  0  0  0  0  0  0
   39.6010   30.0520   52.8250 C   0  0  0  0  0  0  0  0  0  0  0  0
   40.2640   30.6660   51.8310 C   0  0  0  0  0  0  0  0  0  0  0  0
   40.2400   30.0630   50.6570 C   0  0  0  0  0  0  0  0  0  0  0  0
   39.9150   29.0030   50.3460 C   0  0  0  0  0  0  0  0  0  0  0  0
   39.3000   28.2710   51.2610 C   0  0  0  0  0  0  0  0  0  0  0  0
   38.5990   26.9740   51.0490 N   0  0  0  0  0  0  0  0  0  0  0  0
   38.9800   28.7470   52.5610 C   0  0  0  0  0  0  0  0  0  0  0  0
   39.7045   29.7753   54.8958 H   0  0  0  0  0  0  0  0  0  0  0  0
   40.0391   31.4446   54.3230 H   0  0  0  0  0  0  0  0  0  0  0  0
   38.3566   30.8154   54.3230 H   0  0  0  0  0  0  0  0  0  0  0  0
   40.7960   31.6162   51.9864 H   0  0  0  0  0  0  0  0  0  0  0  0
   40.5953   30.6870   49.8237 H   0  0  0  0  0  0  0  0  0  0  0  0
   40.1070   28.6164   49.3342 H   0  0  0  0  0  0  0  0  0  0  0  0
   38.1780   26.4800   51.8480 H   0  0  0  0  0  0  0  0  0  0  0  0
   38.5350   26.5720   50.1030 H   0  0  0  0  0  0  0  0  0  0  0  0
   38.3467   28.2062   53.2796 H   0  0  0  0  0  0  0  0  0  0  0  0
  1  2  1  0
  2  3  2  0
  3  4  1  0
  4  5  2  0
  5  6  1  0
  6  7  1  0
  6  8  2  0
  8  2  1  0
  1  9  1  0
  1 10  1  0
  1 11  1  0
  3 12  1  0
  4 13  1  0
  5 14  1  0
  7 15  1  0
  7 16  1  0
  8 17  1  0
M  END

>  <ID>
Pocket2Mol_54_num_sample_100

>  <docking_score>
-5.887

$$$$
Pocket2Mol_55_num_sample_100
     RDKit          3D

 11 11  0  0  0  0  0  0  0  0999 V2000
   39.1400   27.9430   50.9640 C   0  0  0  0  0  0  0  0  0  0  0  0
   39.7340   29.1380   51.4150 C   0  0  0  0  0  0  0  0  0  0  0  0
   39.3160   29.3780   52.7620 O   0  0  0  0  0  0  0  0  0  0  0  0
   38.2350   28.3650   52.8770 C   0  0  0  0  0  0  0  0  0  0  0  0
   38.0780   27.7260   51.7020 O   0  0  0  0  0  0  0  0  0  0  0  0
   38.8489   28.0439   49.9080 H   0  0  0  0  0  0  0  0  0  0  0  0
   39.8468   27.1043   51.0474 H   0  0  0  0  0  0  0  0  0  0  0  0
   40.8293   29.0436   51.3786 H   0  0  0  0  0  0  0  0  0  0  0  0
   39.4259   29.9757   50.7720 H   0  0  0  0  0  0  0  0  0  0  0  0
   38.5004   27.6354   53.6562 H   0  0  0  0  0  0  0  0  0  0  0  0
   37.2941   28.8685   53.1437 H   0  0  0  0  0  0  0  0  0  0  0  0
  1  2  1  0
  2  3  1  0
  3  4  1  0
  4  5  1  0
  5  1  1  0
  1  6  1  0
  1  7  1  0
  2  8  1  0
  2  9  1  0
  4 10  1  0
  4 11  1  0
M  END

>  <ID>
Pocket2Mol_55_num_sample_100

>  <docking_score>
-3.106

$$$$
Pocket2Mol_56_num_sample_100
     RDKit          3D

 17 17  0  0  0  0  0  0  0  0999 V2000
   38.0780   27.2840   53.9730 C   0  0  0  0  0  0  0  0  0  0  0  0
   38.7800   28.0480   52.8130 C   0  0  0  0  0  0  0  0  0  0  0  0
   39.0520   27.4720   51.6390 C   0  0  0  0  0  0  0  0  0  0  0  0
   39.5930   28.2160   50.7520 C   0  0  0  0  0  0  0  0  0  0  0  0
   39.9370   29.4740   51.2060 C   0  0  0  0  0  0  0  0  0  0  0  0
   40.6370   30.3770   50.1970 C   0  0  0  0  0  0  0  0  0  0  0  0
   39.7390   30.0330   52.2890 N   0  0  0  0  0  0  0  0  0  0  0  0
   39.1740   29.4830   53.1860 C   0  0  0  0  0  0  0  0  0  0  0  0
   38.4356   27.6732   54.9377 H   0  0  0  0  0  0  0  0  0  0  0  0
   36.9898   27.4271   53.9006 H   0  0  0  0  0  0  0  0  0  0  0  0
   38.3125   26.2117   53.9006 H   0  0  0  0  0  0  0  0  0  0  0  0
   38.8226   26.4137   51.4460 H   0  0  0  0  0  0  0  0  0  0  0  0
   39.7691   27.8838   49.7183 H   0  0  0  0  0  0  0  0  0  0  0  0
   41.2260   31.1368   50.7316 H   0  0  0  0  0  0  0  0  0  0  0  0
   41.3049   29.7727   49.5656 H   0  0  0  0  0  0  0  0  0  0  0  0
   39.8852   30.8732   49.5656 H   0  0  0  0  0  0  0  0  0  0  0  0
   38.9621   29.9482   54.1600 H   0  0  0  0  0  0  0  0  0  0  0  0
  1  2  1  0
  2  3  2  0
  3  4  1  0
  4  5  2  0
  5  6  1  0
  5  7  1  0
  7  8  2  0
  8  2  1  0
  1  9  1  0
  1 10  1  0
  1 11  1  0
  3 12  1  0
  4 13  1  0
  6 14  1  0
  6 15  1  0
  6 16  1  0
  8 17  1  0
M  END

>  <ID>
Pocket2Mol_56_num_sample_100

>  <docking_score>
-5.536

$$$$
Pocket2Mol_57_num_sample_100
     RDKit          3D

 16 16  0  0  0  0  0  0  0  0999 V2000
   40.6730   30.4070   49.9920 C   0  0  0  0  0  0  0  0  0  0  0  0
   39.9300   29.6320   51.0370 C   0  0  0  0  0  0  0  0  0  0  0  0
   39.8120   30.1230   52.2490 C   0  0  0  0  0  0  0  0  0  0  0  0
   39.0930   29.3230   53.0780 C   0  0  0  0  0  0  0  0  0  0  0  0
   38.7320   28.0360   52.8840 C   0  0  0  0  0  0  0  0  0  0  0  0
   38.0600   27.2680   53.7960 O   0  0  0  0  0  0  0  0  0  0  0  0
   39.0400   27.6850   51.6030 C   0  0  0  0  0  0  0  0  0  0  0  0
   39.6860   28.3700   50.6540 C   0  0  0  0  0  0  0  0  0  0  0  0
   41.3554   31.1188   50.4794 H   0  0  0  0  0  0  0  0  0  0  0  0
   41.2529   29.7140   49.3647 H   0  0  0  0  0  0  0  0  0  0  0  0
   39.9562   30.9571   49.3647 H   0  0  0  0  0  0  0  0  0  0  0  0
   40.2501   31.0827   52.5605 H   0  0  0  0  0  0  0  0  0  0  0  0
   38.7643   29.7791   54.0235 H   0  0  0  0  0  0  0  0  0  0  0  0
   38.3040   27.3110   54.7540 H   0  0  0  0  0  0  0  0  0  0  0  0
   38.7044   26.6811   51.3036 H   0  0  0  0  0  0  0  0  0  0  0  0
   39.9806   27.9509   49.6806 H   0  0  0  0  0  0  0  0  0  0  0  0
  1  2  1  0
  2  3  2  0
  3  4  1  0
  4  5  2  0
  5  6  1  0
  5  7  1  0
  7  8  2  0
  8  2  1  0
  1  9  1  0
  1 10  1  0
  1 11  1  0
  3 12  1  0
  4 13  1  0
  6 14  1  0
  7 15  1  0
  8 16  1  0
M  END

>  <ID>
Pocket2Mol_57_num_sample_100

>  <docking_score>
-5.675

$$$$
Pocket2Mol_58_num_sample_100
     RDKit          3D

 17 17  0  0  0  0  0  0  0  0999 V2000
   40.7400   30.3730   50.1810 C   0  0  0  0  0  0  0  0  0  0  0  0
   40.1170   29.6320   51.2320 C   0  0  0  0  0  0  0  0  0  0  0  0
   39.6980   30.1230   52.3010 C   0  0  0  0  0  0  0  0  0  0  0  0
   38.8890   29.1990   53.0240 C   0  0  0  0  0  0  0  0  0  0  0  0
   38.3950   28.0370   52.6860 C   0  0  0  0  0  0  0  0  0  0  0  0
   37.5460   27.2240   53.3780 N   0  0  0  0  0  0  0  0  0  0  0  0
   38.8470   27.5710   51.4060 C   0  0  0  0  0  0  0  0  0  0  0  0
   39.6630   28.3470   50.6350 C   0  0  0  0  0  0  0  0  0  0  0  0
   41.3908   31.1470   50.6139 H   0  0  0  0  0  0  0  0  0  0  0  0
   41.3419   29.6932   49.5600 H   0  0  0  0  0  0  0  0  0  0  0  0
   39.9670   30.8492   49.5600 H   0  0  0  0  0  0  0  0  0  0  0  0
   39.9255   31.1435   52.6427 H   0  0  0  0  0  0  0  0  0  0  0  0
   38.6360   29.5199   54.0453 H   0  0  0  0  0  0  0  0  0  0  0  0
   37.8100   26.8790   54.3120 H   0  0  0  0  0  0  0  0  0  0  0  0
   36.6410   26.9550   52.9660 H   0  0  0  0  0  0  0  0  0  0  0  0
   38.5333   26.5809   51.0437 H   0  0  0  0  0  0  0  0  0  0  0  0
   39.9692   28.0384   49.6245 H   0  0  0  0  0  0  0  0  0  0  0  0
  1  2  1  0
  2  3  2  0
  3  4  1  0
  4  5  2  0
  5  6  1  0
  5  7  1  0
  7  8  2  0
  8  2  1  0
  1  9  1  0
  1 10  1  0
  1 11  1  0
  3 12  1  0
  4 13  1  0
  6 14  1  0
  6 15  1  0
  7 16  1  0
  8 17  1  0
M  END

>  <ID>
Pocket2Mol_58_num_sample_100

>  <docking_score>
-5.956

$$$$
Pocket2Mol_59_num_sample_100
     RDKit          3D

 16 16  0  0  0  0  0  0  0  0999 V2000
   38.0900   27.4200   52.5940 N   0  0  0  0  0  0  0  0  0  0  0  0
   39.0280   28.3560   51.9130 C   0  0  0  0  0  0  0  0  0  0  0  0
   39.4820   28.2660   50.6730 C   0  0  0  0  0  0  0  0  0  0  0  0
   40.0500   29.1770   50.2580 C   0  0  0  0  0  0  0  0  0  0  0  0
   40.4930   30.2770   50.8380 C   0  0  0  0  0  0  0  0  0  0  0  0
   40.0040   30.4790   52.1290 C   0  0  0  0  0  0  0  0  0  0  0  0
   39.2280   29.5240   52.7010 C   0  0  0  0  0  0  0  0  0  0  0  0
   38.7200   29.6630   54.0020 N   0  0  0  0  0  0  0  0  0  0  0  0
   37.7590   27.6280   53.5470 H   0  0  0  0  0  0  0  0  0  0  0  0
   37.7750   26.5660   52.1130 H   0  0  0  0  0  0  0  0  0  0  0  0
   39.3237   27.3619   50.0668 H   0  0  0  0  0  0  0  0  0  0  0  0
   40.2628   29.1207   49.1802 H   0  0  0  0  0  0  0  0  0  0  0  0
   41.1875   30.9739   50.3461 H   0  0  0  0  0  0  0  0  0  0  0  0
   40.2448   31.4019   52.6769 H   0  0  0  0  0  0  0  0  0  0  0  0
   39.1230   30.3630   54.6410 H   0  0  0  0  0  0  0  0  0  0  0  0
   37.9440   29.0630   54.3180 H   0  0  0  0  0  0  0  0  0  0  0  0
  1  2  1  0
  2  3  2  0
  3  4  1  0
  4  5  2  0
  5  6  1  0
  6  7  2  0
  7  8  1  0
  7  2  1  0
  1  9  1  0
  1 10  1  0
  3 11  1  0
  4 12  1  0
  5 13  1  0
  6 14  1  0
  8 15  1  0
  8 16  1  0
M  END

>  <ID>
Pocket2Mol_59_num_sample_100

>  <docking_score>
-5.362

$$$$
Pocket2Mol_5_num_sample_100
     RDKit          3D

 13 13  0  0  0  0  0  0  0  0999 V2000
   40.2740   30.4590   50.1260 C   0  0  0  0  0  0  0  0  0  0  0  0
   39.9300   29.3260   49.8580 N   0  0  0  0  0  0  0  0  0  0  0  0
   39.4790   28.3800   50.7680 C   0  0  0  0  0  0  0  0  0  0  0  0
   39.5880   29.1870   51.8950 C   0  0  0  0  0  0  0  0  0  0  0  0
   40.1590   30.4320   51.5720 C   0  0  0  0  0  0  0  0  0  0  0  0
   40.5855   31.2767   49.4594 H   0  0  0  0  0  0  0  0  0  0  0  0
   39.9760   29.0420   48.8700 H   0  0  0  0  0  0  0  0  0  0  0  0
   38.4439   28.0636   50.5721 H   0  0  0  0  0  0  0  0  0  0  0  0
   40.0104   27.4171   50.7909 H   0  0  0  0  0  0  0  0  0  0  0  0
   38.5860   29.3501   52.3186 H   0  0  0  0  0  0  0  0  0  0  0  0
   40.2383   28.6826   52.6249 H   0  0  0  0  0  0  0  0  0  0  0  0
   39.5112   31.2506   51.9188 H   0  0  0  0  0  0  0  0  0  0  0  0
   41.1384   30.5624   52.0555 H   0  0  0  0  0  0  0  0  0  0  0  0
  1  2  2  0
  2  3  1  0
  3  4  1  0
  4  5  1  0
  5  1  1  0
  1  6  1  0
  2  7  1  0
  3  8  1  0
  3  9  1  0
  4 10  1  0
  4 11  1  0
  5 12  1  0
  5 13  1  0
M  CHG  1   2   1
M  END

>  <ID>
Pocket2Mol_5_num_sample_100

>  <docking_score>
-3.705

$$$$
Pocket2Mol_60_num_sample_100
     RDKit          3D

 11 11  0  0  0  0  0  0  0  0999 V2000
   37.2310   28.1040   52.5150 O   0  0  0  0  0  0  0  0  0  0  0  0
   38.4900   28.0770   52.6140 C   0  0  0  0  0  0  0  0  0  0  0  0
   39.0030   27.1910   53.4630 O   0  0  0  0  0  0  0  0  0  0  0  0
   39.3140   28.8450   51.7000 C   0  0  0  0  0  0  0  0  0  0  0  0
   39.8440   29.9850   51.7880 C   0  0  0  0  0  0  0  0  0  0  0  0
   40.5900   30.4340   50.7650 C   0  0  0  0  0  0  0  0  0  0  0  0
   40.3350   29.4580   49.9210 C   0  0  0  0  0  0  0  0  0  0  0  0
   39.4970   28.3910   50.3850 N   0  0  0  0  0  0  0  0  0  0  0  0
   39.6983   30.6018   52.6871 H   0  0  0  0  0  0  0  0  0  0  0  0
   41.2158   31.3331   50.6649 H   0  0  0  0  0  0  0  0  0  0  0  0
   40.7476   29.4602   48.9013 H   0  0  0  0  0  0  0  0  0  0  0  0
  1  2  2  0
  2  3  1  0
  2  4  1  0
  4  5  2  0
  5  6  1  0
  6  7  2  0
  7  8  1  0
  8  4  1  0
  5  9  1  0
  6 10  1  0
  7 11  1  0
M  CHG  2   3  -1   8  -1
M  END

>  <ID>
Pocket2Mol_60_num_sample_100

>  <docking_score>
-4.873

$$$$
Pocket2Mol_61_num_sample_100
     RDKit          3D

 16 16  0  0  0  0  0  0  0  0999 V2000
   37.4540   28.0440   52.2560 O   0  0  0  0  0  0  0  0  0  0  0  0
   38.6430   28.4480   52.6700 N   0  0  0  0  0  0  0  0  0  0  0  0
   38.8180   28.4550   53.9380 O   0  0  0  0  0  0  0  0  0  0  0  0
   39.4060   28.9550   51.7530 N   0  0  0  0  0  0  0  0  0  0  0  0
   39.8750   30.1110   51.7300 C   0  0  0  0  0  0  0  0  0  0  0  0
   40.6080   30.4250   50.6490 C   0  0  0  0  0  0  0  0  0  0  0  0
   40.2380   29.4190   49.8880 C   0  0  0  0  0  0  0  0  0  0  0  0
   39.6000   28.5250   50.6220 C   0  0  0  0  0  0  0  0  0  0  0  0
   39.0334   30.8173   51.7834 H   0  0  0  0  0  0  0  0  0  0  0  0
   40.5648   30.1696   52.5849 H   0  0  0  0  0  0  0  0  0  0  0  0
   40.3263   31.3985   50.2212 H   0  0  0  0  0  0  0  0  0  0  0  0
   41.6899   30.5389   50.8118 H   0  0  0  0  0  0  0  0  0  0  0  0
   39.5708   29.7855   49.0940 H   0  0  0  0  0  0  0  0  0  0  0  0
   41.1264   28.9554   49.4343 H   0  0  0  0  0  0  0  0  0  0  0  0
   38.6325   28.2951   50.1517 H   0  0  0  0  0  0  0  0  0  0  0  0
   40.2160   27.6161   50.6889 H   0  0  0  0  0  0  0  0  0  0  0  0
  1  2  2  0
  2  3  1  0
  2  4  1  0
  4  5  1  0
  5  6  1  0
  6  7  1  0
  7  8  1  0
  8  4  1  0
  5  9  1  0
  5 10  1  0
  6 11  1  0
  6 12  1  0
  7 13  1  0
  7 14  1  0
  8 15  1  0
  8 16  1  0
M  CHG  2   2   1   3  -1
M  END

>  <ID>
Pocket2Mol_61_num_sample_100

>  <docking_score>
-4.979

$$$$
Pocket2Mol_62_num_sample_100
     RDKit          3D

 20 19  0  0  0  0  0  0  0  0999 V2000
   38.7950   29.1710   53.7580 C   0  0  0  0  0  0  0  0  0  0  0  0
   38.6230   28.4580   52.5460 C   0  0  0  0  0  0  0  0  0  0  0  0
   39.4030   27.1850   52.7430 C   0  0  0  0  0  0  0  0  0  0  0  0
   37.2230   28.1060   52.3110 O   0  0  0  0  0  0  0  0  0  0  0  0
   39.0950   28.9390   51.5100 O   0  0  0  0  0  0  0  0  0  0  0  0
   39.8550   30.1590   51.5660 C   0  0  0  0  0  0  0  0  0  0  0  0
   40.1350   30.3890   50.1660 C   0  0  0  0  0  0  0  0  0  0  0  0
   39.5350   31.3980   49.6050 O   0  0  0  0  0  0  0  0  0  0  0  0
   38.6314   28.4930   54.6086 H   0  0  0  0  0  0  0  0  0  0  0  0
   39.8167   29.5762   53.8032 H   0  0  0  0  0  0  0  0  0  0  0  0
   38.0704   29.9974   53.8032 H   0  0  0  0  0  0  0  0  0  0  0  0
   39.5220   26.9907   53.8191 H   0  0  0  0  0  0  0  0  0  0  0  0
   38.8625   26.3480   52.2769 H   0  0  0  0  0  0  0  0  0  0  0  0
   40.3942   27.2864   52.2769 H   0  0  0  0  0  0  0  0  0  0  0  0
   37.1720   27.1960   51.9260 H   0  0  0  0  0  0  0  0  0  0  0  0
   39.2648   30.9806   51.9980 H   0  0  0  0  0  0  0  0  0  0  0  0
   40.7527   30.0994   52.1989 H   0  0  0  0  0  0  0  0  0  0  0  0
   41.2187   30.5486   50.0654 H   0  0  0  0  0  0  0  0  0  0  0  0
   39.7492   29.4998   49.6459 H   0  0  0  0  0  0  0  0  0  0  0  0
   38.5550   31.2810   49.6790 H   0  0  0  0  0  0  0  0  0  0  0  0
  1  2  1  0
  2  3  1  0
  2  4  1  0
  2  5  1  0
  5  6  1  0
  6  7  1  0
  7  8  1  0
  1  9  1  0
  1 10  1  0
  1 11  1  0
  3 12  1  0
  3 13  1  0
  3 14  1  0
  4 15  1  0
  6 16  1  0
  6 17  1  0
  7 18  1  0
  7 19  1  0
  8 20  1  0
M  END

>  <ID>
Pocket2Mol_62_num_sample_100

>  <docking_score>
-4.283

$$$$
Pocket2Mol_63_num_sample_100
     RDKit          3D

 14 14  0  0  0  0  0  0  0  0999 V2000
   37.2390   28.0750   52.4460 O   0  0  0  0  0  0  0  0  0  0  0  0
   38.4450   28.1490   52.6070 N   0  0  0  0  0  0  0  0  0  0  0  0
   39.0160   27.3470   53.6050 O   0  0  0  0  0  0  0  0  0  0  0  0
   39.1150   28.7600   52.0610 N   0  0  0  0  0  0  0  0  0  0  0  0
   39.6510   30.0140   52.2570 C   0  0  0  0  0  0  0  0  0  0  0  0
   40.1820   30.4940   51.1440 C   0  0  0  0  0  0  0  0  0  0  0  0
   40.2120   29.5580   50.1450 C   0  0  0  0  0  0  0  0  0  0  0  0
   39.5620   28.2970   50.6140 C   0  0  0  0  0  0  0  0  0  0  0  0
   38.8553   30.6939   52.5955 H   0  0  0  0  0  0  0  0  0  0  0  0
   40.4464   29.9350   53.0127 H   0  0  0  0  0  0  0  0  0  0  0  0
   40.5551   31.5230   51.0343 H   0  0  0  0  0  0  0  0  0  0  0  0
   40.6489   29.7114   49.1472 H   0  0  0  0  0  0  0  0  0  0  0  0
   38.7015   28.0205   49.9870 H   0  0  0  0  0  0  0  0  0  0  0  0
   40.1994   27.4010   50.5838 H   0  0  0  0  0  0  0  0  0  0  0  0
  1  2  2  0
  2  3  1  0
  2  4  1  0
  4  5  1  0
  5  6  1  0
  6  7  2  0
  7  8  1  0
  8  4  1  0
  5  9  1  0
  5 10  1  0
  6 11  1  0
  7 12  1  0
  8 13  1  0
  8 14  1  0
M  CHG  2   2   1   3  -1
M  END

>  <ID>
Pocket2Mol_63_num_sample_100

>  <docking_score>
-4.942

$$$$
Pocket2Mol_64_num_sample_100
     RDKit          3D

 15 15  0  0  0  0  0  0  0  0999 V2000
   38.7550   27.1870   50.8410 N   0  0  0  0  0  0  0  0  0  0  0  0
   39.1010   28.4080   51.6680 C   0  0  0  0  0  0  0  0  0  0  0  0
   39.8680   29.3770   50.7020 C   0  0  0  0  0  0  0  0  0  0  0  0
   40.1720   30.4490   51.4510 C   0  0  0  0  0  0  0  0  0  0  0  0
   39.8210   30.5130   52.7620 C   0  0  0  0  0  0  0  0  0  0  0  0
   39.1710   29.6680   53.4690 C   0  0  0  0  0  0  0  0  0  0  0  0
   38.7610   29.7250   54.8650 O   0  0  0  0  0  0  0  0  0  0  0  0
   38.7110   28.3970   52.8550 C   0  0  0  0  0  0  0  0  0  0  0  0
   38.6430   26.2710   51.2980 H   0  0  0  0  0  0  0  0  0  0  0  0
   38.6310   27.2720   49.8220 H   0  0  0  0  0  0  0  0  0  0  0  0
   40.1055   29.2136   49.6404 H   0  0  0  0  0  0  0  0  0  0  0  0
   40.7148   31.2902   50.9953 H   0  0  0  0  0  0  0  0  0  0  0  0
   40.1419   31.4222   53.2916 H   0  0  0  0  0  0  0  0  0  0  0  0
   38.8560   30.5690   55.3740 H   0  0  0  0  0  0  0  0  0  0  0  0
   38.1374   27.5993   53.3497 H   0  0  0  0  0  0  0  0  0  0  0  0
  1  2  1  0
  2  3  2  0
  3  4  1  0
  4  5  2  0
  5  6  1  0
  6  7  1  0
  6  8  2  0
  8  2  1  0
  1  9  1  0
  1 10  1  0
  3 11  1  0
  4 12  1  0
  5 13  1  0
  7 14  1  0
  8 15  1  0
M  END

>  <ID>
Pocket2Mol_64_num_sample_100

>  <docking_score>
-5.161

$$$$
Pocket2Mol_65_num_sample_100
     RDKit          3D

 21 21  0  0  0  0  0  0  0  0999 V2000
   36.8590   27.3740   53.4890 N   0  0  0  0  0  0  0  0  0  0  0  0
   38.1940   27.6180   52.9880 C   0  0  0  0  0  0  0  0  0  0  0  0
   38.3440   27.7720   51.6810 N   0  0  0  0  0  0  0  0  0  0  0  0
   39.4660   28.3840   51.5110 N   0  0  0  0  0  0  0  0  0  0  0  0
   39.4400   29.3910   52.2470 C   0  0  0  0  0  0  0  0  0  0  0  0
   40.0950   30.4700   51.7880 C   0  0  0  0  0  0  0  0  0  0  0  0
   40.2300   30.0740   50.5410 C   0  0  0  0  0  0  0  0  0  0  0  0
   39.9260   28.7920   50.4520 C   0  0  0  0  0  0  0  0  0  0  0  0
   36.7030   27.2490   54.5000 H   0  0  0  0  0  0  0  0  0  0  0  0
   36.0640   27.3240   52.8360 H   0  0  0  0  0  0  0  0  0  0  0  0
   39.0556   27.6738   53.6696 H   0  0  0  0  0  0  0  0  0  0  0  0
   37.6920   27.4620   50.9460 H   0  0  0  0  0  0  0  0  0  0  0  0
   40.0870   27.5810   51.6840 H   0  0  0  0  0  0  0  0  0  0  0  0
   38.3872   29.6734   52.3948 H   0  0  0  0  0  0  0  0  0  0  0  0
   39.9598   29.0979   53.1710 H   0  0  0  0  0  0  0  0  0  0  0  0
   39.4973   31.3896   51.8725 H   0  0  0  0  0  0  0  0  0  0  0  0
   41.0217   30.7380   52.3165 H   0  0  0  0  0  0  0  0  0  0  0  0
   39.5558   30.6566   49.8960 H   0  0  0  0  0  0  0  0  0  0  0  0
   41.2700   30.2281   50.2174 H   0  0  0  0  0  0  0  0  0  0  0  0
   39.1801   28.6517   49.6558 H   0  0  0  0  0  0  0  0  0  0  0  0
   40.8402   28.2258   50.2207 H   0  0  0  0  0  0  0  0  0  0  0  0
  1  2  1  0
  2  3  2  3
  3  4  1  0
  4  5  1  0
  5  6  1  0
  6  7  1  0
  7  8  1  0
  8  4  1  0
  1  9  1  0
  1 10  1  0
  2 11  1  0
  3 12  1  0
  4 13  1  0
  5 14  1  0
  5 15  1  0
  6 16  1  0
  6 17  1  0
  7 18  1  0
  7 19  1  0
  8 20  1  0
  8 21  1  0
M  CHG  2   3   1   4   1
M  END

>  <ID>
Pocket2Mol_65_num_sample_100

>  <docking_score>
-5.241

$$$$
Pocket2Mol_66_num_sample_100
     RDKit          3D

 13 12  0  0  0  0  0  0  0  0999 V2000
   37.0960   34.8560   49.6420 C   0  0  0  0  0  0  0  0  0  0  0  0
   37.4000   34.8790   48.3780 O   0  0  0  0  0  0  0  0  0  0  0  0
   38.6130   34.5480   47.9460 C   0  0  0  0  0  0  0  0  0  0  0  0
   39.1780   35.6490   47.3400 C   0  0  0  0  0  0  0  0  0  0  0  0
   38.7430   35.9590   46.0420 O   0  0  0  0  0  0  0  0  0  0  0  0
   38.0156   34.9256   50.2416 H   0  0  0  0  0  0  0  0  0  0  0  0
   36.4399   35.7071   49.8769 H   0  0  0  0  0  0  0  0  0  0  0  0
   36.5754   33.9159   49.8769 H   0  0  0  0  0  0  0  0  0  0  0  0
   39.2359   34.2320   48.7958 H   0  0  0  0  0  0  0  0  0  0  0  0
   38.5432   33.7176   47.2280 H   0  0  0  0  0  0  0  0  0  0  0  0
   38.9687   36.5213   47.9766 H   0  0  0  0  0  0  0  0  0  0  0  0
   40.2432   35.3976   47.2303 H   0  0  0  0  0  0  0  0  0  0  0  0
   39.1800   35.3510   45.3940 H   0  0  0  0  0  0  0  0  0  0  0  0
  1  2  1  0
  2  3  1  0
  3  4  1  0
  4  5  1  0
  1  6  1  0
  1  7  1  0
  1  8  1  0
  3  9  1  0
  3 10  1  0
  4 11  1  0
  4 12  1  0
  5 13  1  0
M  END

>  <ID>
Pocket2Mol_66_num_sample_100

>  <docking_score>
-3.514

$$$$
Pocket2Mol_67_num_sample_100
     RDKit          3D

 12 12  0  0  0  0  0  0  0  0999 V2000
   37.3620   27.9990   52.7510 O   0  0  0  0  0  0  0  0  0  0  0  0
   38.5520   28.5770   52.5750 C   0  0  0  0  0  0  0  0  0  0  0  0
   38.9520   29.5040   53.2980 O   0  0  0  0  0  0  0  0  0  0  0  0
   39.7680   30.5770   52.7760 C   0  0  0  0  0  0  0  0  0  0  0  0
   40.2080   30.1820   51.4600 C   0  0  0  0  0  0  0  0  0  0  0  0
   39.7820   29.1240   50.6930 C   0  0  0  0  0  0  0  0  0  0  0  0
   39.2580   28.1940   51.3640 C   0  0  0  0  0  0  0  0  0  0  0  0
   38.6760   27.0650   50.6580 O   0  0  0  0  0  0  0  0  0  0  0  0
   40.0090   31.5205   53.2877 H   0  0  0  0  0  0  0  0  0  0  0  0
   40.9893   30.8122   51.0101 H   0  0  0  0  0  0  0  0  0  0  0  0
   39.8881   29.0917   49.5986 H   0  0  0  0  0  0  0  0  0  0  0  0
   37.7330   27.1010   50.3590 H   0  0  0  0  0  0  0  0  0  0  0  0
  1  2  2  0
  2  3  1  0
  3  4  1  0
  4  5  2  0
  5  6  1  0
  6  7  2  0
  7  8  1  0
  7  2  1  0
  4  9  1  0
  5 10  1  0
  6 11  1  0
  8 12  1  0
M  END

>  <ID>
Pocket2Mol_67_num_sample_100

>  <docking_score>
-5.295

$$$$
Pocket2Mol_68_num_sample_100
     RDKit          3D

 19 20  0  0  0  0  0  0  0  0999 V2000
   40.0680   29.6210   50.5050 C   0  0  0  0  0  0  0  0  0  0  0  0
   39.7020   28.3690   50.4200 C   0  0  0  0  0  0  0  0  0  0  0  0
   39.1660   27.8410   51.5990 C   0  0  0  0  0  0  0  0  0  0  0  0
   39.1930   28.6540   52.5930 C   0  0  0  0  0  0  0  0  0  0  0  0
   39.5900   30.0190   52.6300 C   0  0  0  0  0  0  0  0  0  0  0  0
   40.1340   30.5070   51.6180 C   0  0  0  0  0  0  0  0  0  0  0  0
   39.7040   30.5460   53.9540 C   0  0  0  0  0  0  0  0  0  0  0  0
   39.0380   29.5630   54.8590 C   0  0  0  0  0  0  0  0  0  0  0  0
   38.6240   28.0930   53.9230 C   0  0  0  0  0  0  0  0  0  0  0  0
   40.3795   30.0685   49.5497 H   0  0  0  0  0  0  0  0  0  0  0  0
   39.8069   27.7794   49.4973 H   0  0  0  0  0  0  0  0  0  0  0  0
   38.7582   26.8217   51.6687 H   0  0  0  0  0  0  0  0  0  0  0  0
   40.6065   31.4999   51.5894 H   0  0  0  0  0  0  0  0  0  0  0  0
   40.7632   30.6586   54.2285 H   0  0  0  0  0  0  0  0  0  0  0  0
   39.2350   31.5382   54.0295 H   0  0  0  0  0  0  0  0  0  0  0  0
   39.7201   29.2971   55.6800 H   0  0  0  0  0  0  0  0  0  0  0  0
   38.1225   30.0059   55.2782 H   0  0  0  0  0  0  0  0  0  0  0  0
   39.1494   27.1927   54.2742 H   0  0  0  0  0  0  0  0  0  0  0  0
   37.5821   27.7406   53.9379 H   0  0  0  0  0  0  0  0  0  0  0  0
  1  2  2  0
  2  3  1  0
  3  4  2  0
  4  5  1  0
  5  6  2  0
  5  7  1  0
  7  8  1  0
  8  9  1  0
  6  1  1  0
  9  4  1  0
  1 10  1  0
  2 11  1  0
  3 12  1  0
  6 13  1  0
  7 14  1  0
  7 15  1  0
  8 16  1  0
  8 17  1  0
  9 18  1  0
  9 19  1  0
M  END

>  <ID>
Pocket2Mol_68_num_sample_100

>  <docking_score>
-6.593

$$$$
Pocket2Mol_69_num_sample_100
     RDKit          3D

 15 16  0  0  0  0  0  0  0  0999 V2000
   40.3810   30.2890   51.2100 C   0  0  0  0  0  0  0  0  0  0  0  0
   40.1410   29.3670   50.3080 C   0  0  0  0  0  0  0  0  0  0  0  0
   39.3770   28.2180   50.6050 C   0  0  0  0  0  0  0  0  0  0  0  0
   38.7970   28.1550   51.8840 C   0  0  0  0  0  0  0  0  0  0  0  0
   39.0450   29.2680   52.7420 C   0  0  0  0  0  0  0  0  0  0  0  0
   39.7850   30.3670   52.4410 C   0  0  0  0  0  0  0  0  0  0  0  0
   38.2960   28.9670   54.0960 O   0  0  0  0  0  0  0  0  0  0  0  0
   37.5890   27.8110   53.7110 C   0  0  0  0  0  0  0  0  0  0  0  0
   38.1060   27.3900   52.5820 O   0  0  0  0  0  0  0  0  0  0  0  0
   41.1212   31.0625   50.9572 H   0  0  0  0  0  0  0  0  0  0  0  0
   40.5461   29.4928   49.2931 H   0  0  0  0  0  0  0  0  0  0  0  0
   39.2418   27.4103   49.8706 H   0  0  0  0  0  0  0  0  0  0  0  0
   39.8941   31.2292   53.1153 H   0  0  0  0  0  0  0  0  0  0  0  0
   37.6905   27.0342   54.4832 H   0  0  0  0  0  0  0  0  0  0  0  0
   36.5191   28.0347   53.5873 H   0  0  0  0  0  0  0  0  0  0  0  0
  1  2  2  0
  2  3  1  0
  3  4  2  0
  4  5  1  0
  5  6  2  0
  5  7  1  0
  7  8  1  0
  8  9  1  0
  6  1  1  0
  9  4  1  0
  1 10  1  0
  2 11  1  0
  3 12  1  0
  6 13  1  0
  8 14  1  0
  8 15  1  0
M  END

>  <ID>
Pocket2Mol_69_num_sample_100

>  <docking_score>
-5.998

$$$$
Pocket2Mol_6_num_sample_100
     RDKit          3D

 11 10  0  0  0  0  0  0  0  0999 V2000
   39.1260   35.5350   46.9960 C   0  0  0  0  0  0  0  0  0  0  0  0
   37.9450   34.9750   47.6140 O   0  0  0  0  0  0  0  0  0  0  0  0
   37.9940   34.3980   48.7130 C   0  0  0  0  0  0  0  0  0  0  0  0
   37.2140   34.9360   49.8480 C   0  0  0  0  0  0  0  0  0  0  0  0
   38.5220   33.2560   48.7910 O   0  0  0  0  0  0  0  0  0  0  0  0
   39.8261   35.8670   47.7768 H   0  0  0  0  0  0  0  0  0  0  0  0
   39.6100   34.7705   46.3705 H   0  0  0  0  0  0  0  0  0  0  0  0
   38.8404   36.3936   46.3705 H   0  0  0  0  0  0  0  0  0  0  0  0
   37.6759   34.6174   50.7941 H   0  0  0  0  0  0  0  0  0  0  0  0
   37.2028   36.0348   49.7972 H   0  0  0  0  0  0  0  0  0  0  0  0
   36.1829   34.5561   49.7972 H   0  0  0  0  0  0  0  0  0  0  0  0
  1  2  1  0
  2  3  1  0
  3  4  1  0
  3  5  2  0
  1  6  1  0
  1  7  1  0
  1  8  1  0
  4  9  1  0
  4 10  1  0
  4 11  1  0
M  END

>  <ID>
Pocket2Mol_6_num_sample_100

>  <docking_score>
-3.583

$$$$
Pocket2Mol_70_num_sample_100
     RDKit          3D

 17 18  0  0  0  0  0  0  0  0999 V2000
   40.4470   30.3560   51.0680 C   0  0  0  0  0  0  0  0  0  0  0  0
   39.8160   30.3810   52.4190 C   0  0  0  0  0  0  0  0  0  0  0  0
   39.1170   29.4070   52.7740 C   0  0  0  0  0  0  0  0  0  0  0  0
   38.4510   29.2550   53.9320 C   0  0  0  0  0  0  0  0  0  0  0  0
   37.7030   27.9860   53.9670 N   0  0  0  0  0  0  0  0  0  0  0  0
   37.9920   27.4600   52.7200 N   0  0  0  0  0  0  0  0  0  0  0  0
   38.9320   28.3680   51.9200 C   0  0  2  0  0  0  0  0  0  0  0  0
   39.3910   28.2180   50.6860 C   0  0  0  0  0  0  0  0  0  0  0  0
   40.1210   29.1540   50.2900 C   0  0  0  0  0  0  0  0  0  0  0  0
   41.0947   31.1610   50.6904 H   0  0  0  0  0  0  0  0  0  0  0  0
   39.9627   31.2399   53.0904 H   0  0  0  0  0  0  0  0  0  0  0  0
   38.4630   29.9878   54.7523 H   0  0  0  0  0  0  0  0  0  0  0  0
   37.1210   27.5940   54.7210 H   0  0  0  0  0  0  0  0  0  0  0  0
   37.1130   27.3470   52.1940 H   0  0  0  0  0  0  0  0  0  0  0  0
   38.0652   28.9219   51.5303 H   0  0  0  0  0  0  0  0  0  0  0  0
   39.1506   27.3444   50.0623 H   0  0  0  0  0  0  0  0  0  0  0  0
   40.5517   29.0699   49.2813 H   0  0  0  0  0  0  0  0  0  0  0  0
  1  2  2  0
  2  3  1  0
  3  4  2  0
  4  5  1  0
  5  6  1  0
  6  7  1  0
  7  8  1  0
  8  9  2  0
  9  1  1  0
  7  3  1  0
  1 10  1  0
  2 11  1  0
  4 12  1  0
  5 13  1  0
  6 14  1  0
  7 15  1  1
  8 16  1  0
  9 17  1  0
M  END

>  <ID>
Pocket2Mol_70_num_sample_100

>  <docking_score>
-6.077

$$$$
Pocket2Mol_71_num_sample_100
     RDKit          3D

 17 17  0  0  0  0  0  0  0  0999 V2000
   40.4560   30.2260   50.1360 C   0  0  0  0  0  0  0  0  0  0  0  0
   39.9430   29.6910   51.4670 C   0  0  0  0  0  0  0  0  0  0  0  0
   39.8820   30.6050   52.5010 C   0  0  0  0  0  0  0  0  0  0  0  0
   39.4020   30.1320   53.5870 C   0  0  0  0  0  0  0  0  0  0  0  0
   38.9410   28.7960   53.7330 C   0  0  0  0  0  0  0  0  0  0  0  0
   38.4210   28.2700   54.9700 O   0  0  0  0  0  0  0  0  0  0  0  0
   38.9900   27.8960   52.6600 C   0  0  0  0  0  0  0  0  0  0  0  0
   39.4830   28.4750   51.5450 C   0  0  0  0  0  0  0  0  0  0  0  0
   39.6010   27.6200   50.4180 O   0  0  0  0  0  0  0  0  0  0  0  0
   41.2066   31.0088   50.3202 H   0  0  0  0  0  0  0  0  0  0  0  0
   40.9142   29.4062   49.5634 H   0  0  0  0  0  0  0  0  0  0  0  0
   39.6176   30.6494   49.5634 H   0  0  0  0  0  0  0  0  0  0  0  0
   40.2169   31.6478   52.3987 H   0  0  0  0  0  0  0  0  0  0  0  0
   39.3423   30.7985   54.4601 H   0  0  0  0  0  0  0  0  0  0  0  0
   39.0260   28.1260   55.7400 H   0  0  0  0  0  0  0  0  0  0  0  0
   38.6663   26.8464   52.7192 H   0  0  0  0  0  0  0  0  0  0  0  0
   39.2070   27.8870   49.5490 H   0  0  0  0  0  0  0  0  0  0  0  0
  1  2  1  0
  2  3  2  0
  3  4  1  0
  4  5  2  0
  5  6  1  0
  5  7  1  0
  7  8  2  0
  8  9  1  0
  8  2  1  0
  1 10  1  0
  1 11  1  0
  1 12  1  0
  3 13  1  0
  4 14  1  0
  6 15  1  0
  7 16  1  0
  9 17  1  0
M  END

>  <ID>
Pocket2Mol_71_num_sample_100

>  <docking_score>
-5.871

$$$$
Pocket2Mol_72_num_sample_100
     RDKit          3D

 15 16  0  0  0  0  0  0  0  0999 V2000
   39.6840   30.6770   53.6030 C   0  0  0  0  0  0  0  0  0  0  0  0
   39.2770   30.3110   54.9100 C   0  0  0  0  0  0  0  0  0  0  0  0
   38.8100   28.8810   54.3900 C   0  0  0  0  0  0  0  0  0  0  0  0
   39.3030   28.7330   52.5340 C   0  0  0  0  0  0  0  0  0  0  0  0
   39.1780   27.8240   51.5780 C   0  0  0  0  0  0  0  0  0  0  0  0
   39.6460   28.2600   50.3600 C   0  0  0  0  0  0  0  0  0  0  0  0
   40.1150   29.4720   50.2240 C   0  0  0  0  0  0  0  0  0  0  0  0
   40.1200   30.4530   51.3260 C   0  0  0  0  0  0  0  0  0  0  0  0
   39.7490   30.0120   52.4360 C   0  0  0  0  0  0  0  0  0  0  0  0
   39.2818   30.8127   55.8889 H   0  0  0  0  0  0  0  0  0  0  0  0
   38.2960   28.1124   54.9859 H   0  0  0  0  0  0  0  0  0  0  0  0
   38.7455   26.8258   51.7411 H   0  0  0  0  0  0  0  0  0  0  0  0
   39.6252   27.5827   49.4935 H   0  0  0  0  0  0  0  0  0  0  0  0
   40.5228   29.7733   49.2478 H   0  0  0  0  0  0  0  0  0  0  0  0
   40.4284   31.4989   51.1815 H   0  0  0  0  0  0  0  0  0  0  0  0
  1  2  2  0
  2  3  1  0
  3  4  2  0
  4  5  1  0
  5  6  2  0
  6  7  1  0
  7  8  2  0
  8  9  1  0
  9  1  2  0
  9  4  1  0
  2 10  1  0
  3 11  1  0
  5 12  1  0
  6 13  1  0
  7 14  1  0
  8 15  1  0
M  END

>  <ID>
Pocket2Mol_72_num_sample_100

>  <docking_score>
-6.621

$$$$
Pocket2Mol_73_num_sample_100
     RDKit          3D

 15 16  0  0  0  0  0  0  0  0999 V2000
   40.5510   30.2670   50.5930 C   0  0  0  0  0  0  0  0  0  0  0  0
   40.1750   30.6020   51.9100 C   0  0  0  0  0  0  0  0  0  0  0  0
   39.4080   29.6500   52.4660 C   0  0  0  0  0  0  0  0  0  0  0  0
   38.8870   29.4440   53.5610 N   0  0  0  0  0  0  0  0  0  0  0  0
   38.2150   28.1850   53.7470 C   0  0  0  0  0  0  0  0  0  0  0  0
   38.0850   27.2260   52.8950 N   0  0  0  0  0  0  0  0  0  0  0  0
   38.6630   27.4140   51.5760 C   0  0  0  0  0  0  0  0  0  0  0  0
   39.3530   28.3810   51.3650 C   0  0  0  0  0  0  0  0  0  0  0  0
   39.9660   28.9510   50.2160 C   0  0  0  0  0  0  0  0  0  0  0  0
   41.1834   30.8867   49.9403 H   0  0  0  0  0  0  0  0  0  0  0  0
   40.4735   31.5299   52.4199 H   0  0  0  0  0  0  0  0  0  0  0  0
   38.7168   27.7252   54.6111 H   0  0  0  0  0  0  0  0  0  0  0  0
   37.1764   28.5475   53.7526 H   0  0  0  0  0  0  0  0  0  0  0  0
   38.4736   26.6819   50.7771 H   0  0  0  0  0  0  0  0  0  0  0  0
   40.0021   28.4956   49.2153 H   0  0  0  0  0  0  0  0  0  0  0  0
  1  2  2  0
  2  3  1  0
  3  4  2  0
  4  5  1  0
  5  6  1  0
  6  7  2  0
  7  8  1  0
  8  9  2  0
  9  1  1  0
  8  3  1  0
  1 10  1  0
  2 11  1  0
  5 12  1  0
  5 13  1  0
  7 14  1  0
  9 15  1  0
M  END

>  <ID>
Pocket2Mol_73_num_sample_100

>  <docking_score>
-5.877

$$$$
Pocket2Mol_74_num_sample_100
     RDKit          3D

 16 17  0  0  0  0  0  0  0  0999 V2000
   38.8490   29.6930   53.8170 C   0  0  0  0  0  0  0  0  0  0  0  0
   39.4030   29.6350   52.5920 C   0  0  0  0  0  0  0  0  0  0  0  0
   40.1050   30.5040   52.0320 C   0  0  0  0  0  0  0  0  0  0  0  0
   40.3460   30.3830   50.6590 C   0  0  0  0  0  0  0  0  0  0  0  0
   40.1150   29.1220   50.0110 C   0  0  0  0  0  0  0  0  0  0  0  0
   39.4140   28.1400   50.6910 C   0  0  0  0  0  0  0  0  0  0  0  0
   39.0870   28.4950   51.9260 C   0  0  0  0  0  0  0  0  0  0  0  0
   38.2230   27.5020   52.6310 N   0  0  0  0  0  0  0  0  0  0  0  0
   38.0040   28.3350   54.0530 C   0  0  0  0  0  0  0  0  0  0  0  0
   38.9530   30.5210   54.5337 H   0  0  0  0  0  0  0  0  0  0  0  0
   40.5237   31.3444   52.6050 H   0  0  0  0  0  0  0  0  0  0  0  0
   40.7091   31.2457   50.0811 H   0  0  0  0  0  0  0  0  0  0  0  0
   40.4883   28.9395   48.9925 H   0  0  0  0  0  0  0  0  0  0  0  0
   39.1550   27.1654   50.2516 H   0  0  0  0  0  0  0  0  0  0  0  0
   36.9397   28.5564   54.2209 H   0  0  0  0  0  0  0  0  0  0  0  0
   38.3310   27.7710   54.9390 H   0  0  0  0  0  0  0  0  0  0  0  0
  1  2  2  0
  2  3  1  0
  3  4  2  0
  4  5  1  0
  5  6  2  0
  6  7  1  0
  7  8  2  0
  8  9  1  0
  9  1  1  0
  7  2  1  0
  1 10  1  0
  3 11  1  0
  4 12  1  0
  5 13  1  0
  6 14  1  0
  9 15  1  0
  9 16  1  0
M  END

>  <ID>
Pocket2Mol_74_num_sample_100

>  <docking_score>
-6.248

$$$$
Pocket2Mol_75_num_sample_100
     RDKit          3D

 22 23  0  0  0  0  0  0  0  0999 V2000
   38.0100   27.6040   53.2800 C   0  0  0  0  0  0  0  0  0  0  0  0
   37.9560   28.1290   52.0660 N   0  0  0  0  0  0  0  0  0  0  0  0
   39.1630   28.4600   51.7560 N   0  0  1  0  0  0  0  0  0  0  0  0
   39.6630   28.4460   50.6380 C   0  0  0  0  0  0  0  0  0  0  0  0
   40.1870   29.6230   50.3490 C   0  0  0  0  0  0  0  0  0  0  0  0
   40.1500   30.3920   51.4150 C   0  0  0  0  0  0  0  0  0  0  0  0
   39.3280   29.6300   52.1560 C   0  0  2  0  0  0  0  0  0  0  0  0
   39.2570   29.4410   53.4190 C   0  0  0  0  0  0  0  0  0  0  0  0
   38.5400   28.3440   54.0610 C   0  0  0  0  0  0  0  0  0  0  0  0
   37.6168   26.6103   53.5407 H   0  0  0  0  0  0  0  0  0  0  0  0
   39.6390   27.6520   52.1810 H   0  0  0  0  0  0  0  0  0  0  0  0
   40.4524   27.6807   50.6045 H   0  0  0  0  0  0  0  0  0  0  0  0
   38.8790   28.2161   49.9015 H   0  0  0  0  0  0  0  0  0  0  0  0
   41.2308   29.4910   50.0279 H   0  0  0  0  0  0  0  0  0  0  0  0
   39.6109   30.0921   49.5378 H   0  0  0  0  0  0  0  0  0  0  0  0
   41.1403   30.5121   51.8786 H   0  0  0  0  0  0  0  0  0  0  0  0
   39.8339   31.4331   51.2530 H   0  0  0  0  0  0  0  0  0  0  0  0
   38.6418   30.4692   51.9693 H   0  0  0  0  0  0  0  0  0  0  0  0
   40.2985   29.3511   53.7614 H   0  0  0  0  0  0  0  0  0  0  0  0
   38.6234   30.2911   53.7120 H   0  0  0  0  0  0  0  0  0  0  0  0
   39.2552   27.7635   54.6623 H   0  0  0  0  0  0  0  0  0  0  0  0
   37.7464   28.7898   54.6786 H   0  0  0  0  0  0  0  0  0  0  0  0
  1  2  2  0
  2  3  1  0
  3  4  1  0
  4  5  1  0
  5  6  1  0
  6  7  1  0
  7  8  1  0
  8  9  1  0
  9  1  1  0
  7  3  1  0
  1 10  1  0
  3 11  1  1
  4 12  1  0
  4 13  1  0
  5 14  1  0
  5 15  1  0
  6 16  1  0
  6 17  1  0
  7 18  1  6
  8 19  1  0
  8 20  1  0
  9 21  1  0
  9 22  1  0
M  CHG  1   3   1
M  END

>  <ID>
Pocket2Mol_75_num_sample_100

>  <docking_score>
-5.73

$$$$
Pocket2Mol_76_num_sample_100
     RDKit          3D

 12 12  0  0  0  0  0  0  0  0999 V2000
   37.1930   28.9500   54.0410 O   0  0  0  0  0  0  0  0  0  0  0  0
   38.4040   28.9100   53.8690 C   0  0  0  0  0  0  0  0  0  0  0  0
   39.1170   28.2920   54.7360 O   0  0  0  0  0  0  0  0  0  0  0  0
   39.0820   29.2580   52.7060 C   0  0  0  0  0  0  0  0  0  0  0  0
   39.8410   30.3010   52.3290 C   0  0  0  0  0  0  0  0  0  0  0  0
   40.4170   30.3440   51.1000 C   0  0  0  0  0  0  0  0  0  0  0  0
   39.8270   28.8710   50.4810 C   0  0  0  0  0  0  0  0  0  0  0  0
   39.0940   28.2810   51.4790 C   0  0  0  0  0  0  0  0  0  0  0  0
   38.3100   27.3810   51.3900 O   0  0  0  0  0  0  0  0  0  0  0  0
   39.9985   31.1350   53.0287 H   0  0  0  0  0  0  0  0  0  0  0  0
   41.0689   31.1024   50.6418 H   0  0  0  0  0  0  0  0  0  0  0  0
   40.0009   28.4690   49.4720 H   0  0  0  0  0  0  0  0  0  0  0  0
  1  2  2  0
  2  3  1  0
  2  4  1  0
  4  5  2  0
  5  6  1  0
  6  7  2  0
  7  8  1  0
  8  9  2  0
  8  4  1  0
  5 10  1  0
  6 11  1  0
  7 12  1  0
M  CHG  1   3  -1
M  END

>  <ID>
Pocket2Mol_76_num_sample_100

>  <docking_score>
-5.608

$$$$
Pocket2Mol_77_num_sample_100
     RDKit          3D

 15 15  0  0  0  0  0  0  0  0999 V2000
   40.5950   30.3600   50.6580 C   0  0  0  0  0  0  0  0  0  0  0  0
   40.2090   29.3440   50.0000 C   0  0  0  0  0  0  0  0  0  0  0  0
   39.4860   28.4210   50.6320 C   0  0  0  0  0  0  0  0  0  0  0  0
   39.7600   28.7690   51.9340 C   0  0  0  0  0  0  0  0  0  0  0  0
   39.9260   30.4460   51.8810 C   0  0  0  0  0  0  0  0  0  0  0  0
   41.6761   30.2791   50.8439 H   0  0  0  0  0  0  0  0  0  0  0  0
   40.3723   31.2636   50.0716 H   0  0  0  0  0  0  0  0  0  0  0  0
   39.6041   29.7116   49.1580 H   0  0  0  0  0  0  0  0  0  0  0  0
   41.1403   28.8235   49.7321 H   0  0  0  0  0  0  0  0  0  0  0  0
   38.4143   28.5100   50.4005 H   0  0  0  0  0  0  0  0  0  0  0  0
   39.7214   27.3798   50.3666 H   0  0  0  0  0  0  0  0  0  0  0  0
   38.9331   28.4787   52.5987 H   0  0  0  0  0  0  0  0  0  0  0  0
   40.6563   28.2668   52.3270 H   0  0  0  0  0  0  0  0  0  0  0  0
   38.9699   30.9875   51.8293 H   0  0  0  0  0  0  0  0  0  0  0  0
   40.3884   30.9797   52.7244 H   0  0  0  0  0  0  0  0  0  0  0  0
  1  2  1  0
  2  3  1  0
  3  4  1  0
  4  5  1  0
  5  1  1  0
  1  6  1  0
  1  7  1  0
  2  8  1  0
  2  9  1  0
  3 10  1  0
  3 11  1  0
  4 12  1  0
  4 13  1  0
  5 14  1  0
  5 15  1  0
M  END

>  <ID>
Pocket2Mol_77_num_sample_100

>  <docking_score>
-4.277

$$$$
Pocket2Mol_78_num_sample_100
     RDKit          3D

 14 14  0  0  0  0  0  0  0  0999 V2000
   38.9240   26.8130   54.1270 O   0  0  0  0  0  0  0  0  0  0  0  0
   38.2550   27.7090   53.4350 C   0  0  0  0  0  0  0  0  0  0  0  0
   36.9720   27.7140   53.3330 O   0  0  0  0  0  0  0  0  0  0  0  0
   38.9490   28.5840   52.5760 C   0  0  0  0  0  0  0  0  0  0  0  0
   39.3940   29.8030   52.9200 C   0  0  0  0  0  0  0  0  0  0  0  0
   40.0680   30.5820   52.0350 C   0  0  0  0  0  0  0  0  0  0  0  0
   40.1810   29.8930   50.7770 C   0  0  0  0  0  0  0  0  0  0  0  0
   39.8880   28.7190   50.3530 C   0  0  0  0  0  0  0  0  0  0  0  0
   39.2650   27.9090   51.0710 C   0  0  0  0  0  0  0  0  0  0  0  0
   39.2093   30.1778   53.9376 H   0  0  0  0  0  0  0  0  0  0  0  0
   40.4662   31.5852   52.2473 H   0  0  0  0  0  0  0  0  0  0  0  0
   40.6243   30.5235   49.9922 H   0  0  0  0  0  0  0  0  0  0  0  0
   40.1908   28.4199   49.3387 H   0  0  0  0  0  0  0  0  0  0  0  0
   38.9656   26.8968   50.7615 H   0  0  0  0  0  0  0  0  0  0  0  0
  1  2  2  0
  2  3  1  0
  2  4  1  0
  4  5  2  0
  5  6  1  0
  6  7  2  0
  7  8  1  0
  8  9  2  0
  9  4  1  0
  5 10  1  0
  6 11  1  0
  7 12  1  0
  8 13  1  0
  9 14  1  0
M  CHG  1   3  -1
M  END

>  <ID>
Pocket2Mol_78_num_sample_100

>  <docking_score>
-5.974

$$$$
Pocket2Mol_79_num_sample_100
     RDKit          3D

 17 18  0  0  0  0  0  0  0  0999 V2000
   39.7060   28.4890   50.3890 C   0  0  0  0  0  0  0  0  0  0  0  0
   39.2230   27.9440   51.5330 C   0  0  0  0  0  0  0  0  0  0  0  0
   39.2710   28.7610   52.6070 C   0  0  0  0  0  0  0  0  0  0  0  0
   38.7830   28.8640   54.4270 C   0  0  0  0  0  0  0  0  0  0  0  0
   39.2450   30.2690   54.9920 C   0  0  0  0  0  0  0  0  0  0  0  0
   39.6880   30.6770   53.7120 C   0  0  0  0  0  0  0  0  0  0  0  0
   39.7440   30.0310   52.5340 C   0  0  0  0  0  0  0  0  0  0  0  0
   40.1290   30.4840   51.4340 C   0  0  0  0  0  0  0  0  0  0  0  0
   40.1450   29.6440   50.3020 C   0  0  0  0  0  0  0  0  0  0  0  0
   39.7081   27.8667   49.4819 H   0  0  0  0  0  0  0  0  0  0  0  0
   38.8246   26.9199   51.5820 H   0  0  0  0  0  0  0  0  0  0  0  0
   38.2649   28.0801   54.9989 H   0  0  0  0  0  0  0  0  0  0  0  0
   39.2282   30.7407   55.9856 H   0  0  0  0  0  0  0  0  0  0  0  0
   40.0541   31.7136   53.6732 H   0  0  0  0  0  0  0  0  0  0  0  0
   38.7172   30.3544   52.3078 H   0  0  0  0  0  0  0  0  0  0  0  0
   40.4533   31.5318   51.3501 H   0  0  0  0  0  0  0  0  0  0  0  0
   40.5454   30.0125   49.3460 H   0  0  0  0  0  0  0  0  0  0  0  0
  1  2  2  0
  2  3  1  0
  3  4  2  0
  4  5  1  0
  5  6  2  0
  6  7  1  0
  7  8  1  0
  8  9  2  0
  9  1  1  0
  7  3  1  0
  1 10  1  0
  2 11  1  0
  4 12  1  0
  5 13  1  0
  6 14  1  0
  7 15  1  0
  8 16  1  0
  9 17  1  0
M  END

>  <ID>
Pocket2Mol_79_num_sample_100

>  <docking_score>
-6.64

$$$$
Pocket2Mol_7_num_sample_100
     RDKit          3D

 13 13  0  0  0  0  0  0  0  0999 V2000
   40.2090   29.3260   49.8940 C   0  0  0  0  0  0  0  0  0  0  0  0
   40.4960   30.4510   50.3570 C   0  0  0  0  0  0  0  0  0  0  0  0
   40.0950   30.4260   51.7010 C   0  0  0  0  0  0  0  0  0  0  0  0
   39.5380   29.2050   51.9610 C   0  0  0  0  0  0  0  0  0  0  0  0
   39.6500   28.4520   50.8310 C   0  0  0  0  0  0  0  0  0  0  0  0
   40.3809   29.0486   48.8435 H   0  0  0  0  0  0  0  0  0  0  0  0
   40.9663   31.2884   49.8208 H   0  0  0  0  0  0  0  0  0  0  0  0
   40.9675   30.5829   52.3523 H   0  0  0  0  0  0  0  0  0  0  0  0
   39.3631   31.2245   51.8926 H   0  0  0  0  0  0  0  0  0  0  0  0
   40.0718   28.7182   52.7905 H   0  0  0  0  0  0  0  0  0  0  0  0
   38.4820   29.3155   52.2485 H   0  0  0  0  0  0  0  0  0  0  0  0
   40.3091   27.5879   51.0011 H   0  0  0  0  0  0  0  0  0  0  0  0
   38.6853   28.0392   50.5009 H   0  0  0  0  0  0  0  0  0  0  0  0
  1  2  2  0
  2  3  1  0
  3  4  1  0
  4  5  1  0
  5  1  1  0
  1  6  1  0
  2  7  1  0
  3  8  1  0
  3  9  1  0
  4 10  1  0
  4 11  1  0
  5 12  1  0
  5 13  1  0
M  END

>  <ID>
Pocket2Mol_7_num_sample_100

>  <docking_score>
-4.384

$$$$
Pocket2Mol_80_num_sample_100
     RDKit          3D

 17 17  0  0  0  0  0  0  0  0999 V2000
   40.7540   30.3670   49.9440 C   0  0  0  0  0  0  0  0  0  0  0  0
   40.0180   29.4920   50.9510 C   0  0  0  0  0  0  0  0  0  0  0  0
   39.8070   30.0510   52.1960 C   0  0  0  0  0  0  0  0  0  0  0  0
   39.1460   29.3070   52.9960 C   0  0  0  0  0  0  0  0  0  0  0  0
   38.7230   28.0220   52.7970 C   0  0  0  0  0  0  0  0  0  0  0  0
   38.0380   27.2110   53.7580 C   0  0  0  0  0  0  0  0  0  0  0  0
   37.0070   27.0260   53.6270 O   0  0  0  0  0  0  0  0  0  0  0  0
   38.9630   27.5560   51.5640 C   0  0  0  0  0  0  0  0  0  0  0  0
   39.5900   28.2470   50.7940 C   0  0  0  0  0  0  0  0  0  0  0  0
   41.3723   31.1021   50.4799 H   0  0  0  0  0  0  0  0  0  0  0  0
   41.3978   29.7372   49.3125 H   0  0  0  0  0  0  0  0  0  0  0  0
   40.0232   30.8934   49.3125 H   0  0  0  0  0  0  0  0  0  0  0  0
   40.1759   31.0493   52.4741 H   0  0  0  0  0  0  0  0  0  0  0  0
   38.8843   29.7555   53.9657 H   0  0  0  0  0  0  0  0  0  0  0  0
   38.5771   26.7878   54.6184 H   0  0  0  0  0  0  0  0  0  0  0  0
   38.5972   26.5648   51.2579 H   0  0  0  0  0  0  0  0  0  0  0  0
   39.8394   27.7777   49.8309 H   0  0  0  0  0  0  0  0  0  0  0  0
  1  2  1  0
  2  3  2  0
  3  4  1  0
  4  5  2  0
  5  6  1  0
  6  7  2  0
  5  8  1  0
  8  9  2  0
  9  2  1  0
  1 10  1  0
  1 11  1  0
  1 12  1  0
  3 13  1  0
  4 14  1  0
  6 15  1  0
  8 16  1  0
  9 17  1  0
M  END

>  <ID>
Pocket2Mol_80_num_sample_100

>  <docking_score>
-6.362

$$$$
Pocket2Mol_81_num_sample_100
     RDKit          3D

 15 16  0  0  0  0  0  0  0  0999 V2000
   40.3890   30.2510   51.0840 C   0  0  0  0  0  0  0  0  0  0  0  0
   40.1030   29.1130   50.3420 C   0  0  0  0  0  0  0  0  0  0  0  0
   39.3020   28.1510   50.7980 C   0  0  0  0  0  0  0  0  0  0  0  0
   38.9030   28.3330   52.0490 C   0  0  0  0  0  0  0  0  0  0  0  0
   37.9850   27.4380   52.8880 N   0  0  0  0  0  0  0  0  0  0  0  0
   37.7700   28.0090   54.1600 N   0  0  0  0  0  0  0  0  0  0  0  0
   38.5230   29.2710   54.0600 C   0  0  0  0  0  0  0  0  0  0  0  0
   39.1350   29.3900   52.8680 C   0  0  0  0  0  0  0  0  0  0  0  0
   39.8230   30.3510   52.4570 C   0  0  0  0  0  0  0  0  0  0  0  0
   41.0152   31.0548   50.6696 H   0  0  0  0  0  0  0  0  0  0  0  0
   40.5527   29.0019   49.3443 H   0  0  0  0  0  0  0  0  0  0  0  0
   38.9993   27.2846   50.1916 H   0  0  0  0  0  0  0  0  0  0  0  0
   37.2270   27.6400   54.9540 H   0  0  0  0  0  0  0  0  0  0  0  0
   38.5781   30.0230   54.8609 H   0  0  0  0  0  0  0  0  0  0  0  0
   40.0026   31.2354   53.0860 H   0  0  0  0  0  0  0  0  0  0  0  0
  1  2  1  0
  2  3  2  0
  3  4  1  0
  4  5  2  0
  5  6  1  0
  6  7  1  0
  7  8  2  0
  8  9  1  0
  9  1  2  0
  8  4  1  0
  1 10  1  0
  2 11  1  0
  3 12  1  0
  6 13  1  0
  7 14  1  0
  9 15  1  0
M  END

>  <ID>
Pocket2Mol_81_num_sample_100

>  <docking_score>
-6.043

$$$$
Pocket2Mol_82_num_sample_100
     RDKit          3D

 16 16  0  0  0  0  0  0  0  0999 V2000
   36.9310   27.7820   53.0900 N   0  0  0  0  0  0  0  0  0  0  0  0
   38.1790   27.8960   53.1400 C   0  0  0  0  0  0  0  0  0  0  0  0
   38.7110   27.0550   54.1610 O   0  0  0  0  0  0  0  0  0  0  0  0
   38.9540   28.5430   52.3690 C   0  0  0  0  0  0  0  0  0  0  0  0
   39.2160   28.0370   51.2120 C   0  0  0  0  0  0  0  0  0  0  0  0
   39.9350   28.9510   50.2860 C   0  0  0  0  0  0  0  0  0  0  0  0
   40.3560   30.1210   50.5960 C   0  0  0  0  0  0  0  0  0  0  0  0
   40.1520   30.5690   51.8880 C   0  0  0  0  0  0  0  0  0  0  0  0
   39.4270   29.7140   52.7900 C   0  0  0  0  0  0  0  0  0  0  0  0
   36.4370   27.2170   53.7940 H   0  0  0  0  0  0  0  0  0  0  0  0
   36.4010   28.2540   52.3430 H   0  0  0  0  0  0  0  0  0  0  0  0
   38.9305   27.0120   50.9330 H   0  0  0  0  0  0  0  0  0  0  0  0
   40.1189   28.5975   49.2607 H   0  0  0  0  0  0  0  0  0  0  0  0
   40.8663   30.7523   49.8537 H   0  0  0  0  0  0  0  0  0  0  0  0
   40.5319   31.5479   52.2159 H   0  0  0  0  0  0  0  0  0  0  0  0
   39.2630   30.0290   53.8311 H   0  0  0  0  0  0  0  0  0  0  0  0
  1  2  1  0
  2  3  2  0
  2  4  1  0
  4  5  2  0
  5  6  1  0
  6  7  2  0
  7  8  1  0
  8  9  2  0
  9  4  1  0
  1 10  1  0
  1 11  1  0
  5 12  1  0
  6 13  1  0
  7 14  1  0
  8 15  1  0
  9 16  1  0
M  END

>  <ID>
Pocket2Mol_82_num_sample_100

>  <docking_score>
-6.261

$$$$
Pocket2Mol_83_num_sample_100
     RDKit          3D

 16 17  0  0  0  0  0  0  0  0999 V2000
   40.4450   30.4520   51.2110 C   0  0  0  0  0  0  0  0  0  0  0  0
   40.3020   29.6000   50.1710 C   0  0  0  0  0  0  0  0  0  0  0  0
   39.5620   28.5140   50.5590 C   0  0  0  0  0  0  0  0  0  0  0  0
   38.9380   28.3510   51.6800 C   0  0  0  0  0  0  0  0  0  0  0  0
   38.0670   27.4920   52.3010 N   0  0  0  0  0  0  0  0  0  0  0  0
   37.7770   28.1090   53.4680 C   0  0  0  0  0  0  0  0  0  0  0  0
   38.4470   29.0610   53.8640 C   0  0  0  0  0  0  0  0  0  0  0  0
   39.1900   29.2830   52.6330 C   0  0  0  0  0  0  0  0  0  0  0  0
   39.8090   30.4190   52.4100 C   0  0  0  0  0  0  0  0  0  0  0  0
   41.1643   31.2719   51.0683 H   0  0  0  0  0  0  0  0  0  0  0  0
   40.7174   29.7553   49.1644 H   0  0  0  0  0  0  0  0  0  0  0  0
   39.4907   27.6882   49.8359 H   0  0  0  0  0  0  0  0  0  0  0  0
   37.7170   26.5860   51.9590 H   0  0  0  0  0  0  0  0  0  0  0  0
   36.9291   27.7543   54.0724 H   0  0  0  0  0  0  0  0  0  0  0  0
   38.4754   29.5776   54.8347 H   0  0  0  0  0  0  0  0  0  0  0  0
   39.8120   31.2579   53.1215 H   0  0  0  0  0  0  0  0  0  0  0  0
  1  2  2  0
  2  3  1  0
  3  4  2  0
  4  5  1  0
  5  6  1  0
  6  7  2  0
  7  8  1  0
  8  9  2  0
  9  1  1  0
  8  4  1  0
  1 10  1  0
  2 11  1  0
  3 12  1  0
  5 13  1  0
  6 14  1  0
  7 15  1  0
  9 16  1  0
M  END

>  <ID>
Pocket2Mol_83_num_sample_100

>  <docking_score>
-6.307

$$$$
Pocket2Mol_84_num_sample_100
     RDKit          3D

 19 19  0  0  0  0  0  0  0  0999 V2000
   39.0600   27.8950   51.4580 C   0  0  0  0  0  0  0  0  0  0  0  0
   38.3120   28.0530   52.6220 C   0  0  2  0  0  0  0  0  0  0  0  0
   36.9620   28.1610   52.5060 O   0  0  0  0  0  0  0  0  0  0  0  0
   39.0000   29.2620   52.9850 C   0  0  0  0  0  0  0  0  0  0  0  0
   39.3980   29.6330   54.2110 C   0  0  0  0  0  0  0  0  0  0  0  0
   39.3020   28.5500   55.2160 O   0  0  0  0  0  0  0  0  0  0  0  0
   38.0280   28.1430   55.4350 C   0  0  0  0  0  0  0  0  0  0  0  0
   37.6570   27.0270   54.5940 C   0  0  0  0  0  0  0  0  0  0  0  0
   38.5510   27.1970   53.4810 O   0  0  0  0  0  0  0  0  0  0  0  0
   40.1051   27.6743   51.7209 H   0  0  0  0  0  0  0  0  0  0  0  0
   38.6473   27.0642   50.8669 H   0  0  0  0  0  0  0  0  0  0  0  0
   39.0185   28.8217   50.8669 H   0  0  0  0  0  0  0  0  0  0  0  0
   36.5610   28.2620   53.4050 H   0  0  0  0  0  0  0  0  0  0  0  0
   39.2252   29.9608   52.1659 H   0  0  0  0  0  0  0  0  0  0  0  0
   39.7607   30.6443   54.4470 H   0  0  0  0  0  0  0  0  0  0  0  0
   37.9291   27.8408   56.4880 H   0  0  0  0  0  0  0  0  0  0  0  0
   37.3599   28.9830   55.1941 H   0  0  0  0  0  0  0  0  0  0  0  0
   37.8269   26.0666   55.1027 H   0  0  0  0  0  0  0  0  0  0  0  0
   36.5929   27.0094   54.3158 H   0  0  0  0  0  0  0  0  0  0  0  0
  1  2  1  0
  2  3  1  6
  2  4  1  0
  4  5  2  0
  5  6  1  0
  6  7  1  0
  7  8  1  0
  8  9  1  0
  9  2  1  0
  1 10  1  0
  1 11  1  0
  1 12  1  0
  3 13  1  0
  4 14  1  0
  5 15  1  0
  7 16  1  0
  7 17  1  0
  8 18  1  0
  8 19  1  0
M  END

>  <ID>
Pocket2Mol_84_num_sample_100

>  <docking_score>
-4.878

$$$$
Pocket2Mol_85_num_sample_100
     RDKit          3D

 13 13  0  0  0  0  0  0  0  0999 V2000
   37.6620   28.0440   52.0750 O   0  0  0  0  0  0  0  0  0  0  0  0
   38.7030   27.5140   52.5880 C   0  0  0  0  0  0  0  0  0  0  0  0
   39.7470   27.3460   51.8470 O   0  0  0  0  0  0  0  0  0  0  0  0
   38.5720   26.7960   53.8460 C   0  0  0  0  0  0  0  0  0  0  0  0
   37.5480   26.6020   54.5550 C   0  0  0  0  0  0  0  0  0  0  0  0
   37.6560   25.8400   55.6560 C   0  0  0  0  0  0  0  0  0  0  0  0
   38.9630   25.6900   55.6370 C   0  0  0  0  0  0  0  0  0  0  0  0
   39.8110   24.9870   56.6900 O   0  0  0  0  0  0  0  0  0  0  0  0
   39.7150   26.2380   54.4560 C   0  0  0  0  0  0  0  0  0  0  0  0
   36.5822   27.0491   54.2768 H   0  0  0  0  0  0  0  0  0  0  0  0
   36.8935   25.4614   56.3526 H   0  0  0  0  0  0  0  0  0  0  0  0
   40.4660   26.9917   54.7351 H   0  0  0  0  0  0  0  0  0  0  0  0
   40.3264   25.5403   53.8649 H   0  0  0  0  0  0  0  0  0  0  0  0
  1  2  2  0
  2  3  1  0
  2  4  1  0
  4  5  2  0
  5  6  1  0
  6  7  2  0
  7  8  1  0
  7  9  1  0
  9  4  1  0
  5 10  1  0
  6 11  1  0
  9 12  1  0
  9 13  1  0
M  CHG  2   3  -1   8  -1
M  END

>  <ID>
Pocket2Mol_85_num_sample_100

>  <docking_score>
-5.38

$$$$
Pocket2Mol_86_num_sample_100
     RDKit          3D

 17 17  0  0  0  0  0  0  0  0999 V2000
   40.8840   30.3780   50.2540 C   0  0  0  0  0  0  0  0  0  0  0  0
   39.9340   29.5490   51.0620 C   0  0  0  0  0  0  0  0  0  0  0  0
   39.6020   28.3310   50.6160 C   0  0  0  0  0  0  0  0  0  0  0  0
   38.8230   27.5190   51.3840 C   0  0  0  0  0  0  0  0  0  0  0  0
   38.4140   27.8990   52.6220 C   0  0  0  0  0  0  0  0  0  0  0  0
   37.6220   27.1490   53.4650 O   0  0  0  0  0  0  0  0  0  0  0  0
   38.9580   29.2250   53.0440 C   0  0  0  0  0  0  0  0  0  0  0  0
   38.4120   29.6230   54.3670 O   0  0  0  0  0  0  0  0  0  0  0  0
   39.7290   30.0500   52.2700 C   0  0  0  0  0  0  0  0  0  0  0  0
   41.5382   30.9489   50.9293 H   0  0  0  0  0  0  0  0  0  0  0  0
   41.4963   29.7203   49.6196 H   0  0  0  0  0  0  0  0  0  0  0  0
   40.3153   31.0737   49.6196 H   0  0  0  0  0  0  0  0  0  0  0  0
   39.9569   27.9873   49.6332 H   0  0  0  0  0  0  0  0  0  0  0  0
   38.5194   26.5364   50.9937 H   0  0  0  0  0  0  0  0  0  0  0  0
   37.3010   26.2570   53.1790 H   0  0  0  0  0  0  0  0  0  0  0  0
   38.9440   30.2050   54.9660 H   0  0  0  0  0  0  0  0  0  0  0  0
   40.1308   31.0153   52.6116 H   0  0  0  0  0  0  0  0  0  0  0  0
  1  2  1  0
  2  3  2  0
  3  4  1  0
  4  5  2  0
  5  6  1  0
  5  7  1  0
  7  8  1  0
  7  9  2  0
  9  2  1  0
  1 10  1  0
  1 11  1  0
  1 12  1  0
  3 13  1  0
  4 14  1  0
  6 15  1  0
  8 16  1  0
  9 17  1  0
M  END

>  <ID>
Pocket2Mol_86_num_sample_100

>  <docking_score>
-5.843

$$$$
Pocket2Mol_87_num_sample_100
     RDKit          3D

 18 18  0  0  0  0  0  0  0  0999 V2000
   39.0010   27.3800   54.3600 C   0  0  0  0  0  0  0  0  0  0  0  0
   38.3260   27.8130   53.2230 C   0  0  0  0  0  0  0  0  0  0  0  0
   37.0160   27.7810   53.1130 N   0  0  0  0  0  0  0  0  0  0  0  0
   39.0830   28.5450   52.2870 C   0  0  0  0  0  0  0  0  0  0  0  0
   39.2880   28.1760   51.0120 C   0  0  0  0  0  0  0  0  0  0  0  0
   40.0220   28.9460   50.1660 C   0  0  0  0  0  0  0  0  0  0  0  0
   40.4790   30.2150   50.7130 C   0  0  0  0  0  0  0  0  0  0  0  0
   40.1170   30.6040   52.0580 C   0  0  0  0  0  0  0  0  0  0  0  0
   39.4780   29.9450   52.9780 C   0  0  0  0  0  0  0  0  0  0  0  0
   38.4655   27.7235   55.2574 H   0  0  0  0  0  0  0  0  0  0  0  0
   39.0506   26.2811   54.3608 H   0  0  0  0  0  0  0  0  0  0  0  0
   40.0205   27.7931   54.3608 H   0  0  0  0  0  0  0  0  0  0  0  0
   36.4550   27.2480   53.7940 H   0  0  0  0  0  0  0  0  0  0  0  0
   38.8541   27.2338   50.6459 H   0  0  0  0  0  0  0  0  0  0  0  0
   40.2548   28.6315   49.1379 H   0  0  0  0  0  0  0  0  0  0  0  0
   41.1032   30.8818   50.1000 H   0  0  0  0  0  0  0  0  0  0  0  0
   40.4321   31.6172   52.3480 H   0  0  0  0  0  0  0  0  0  0  0  0
   39.2556   30.2720   54.0044 H   0  0  0  0  0  0  0  0  0  0  0  0
  1  2  1  0
  2  3  2  3
  2  4  1  0
  4  5  2  0
  5  6  1  0
  6  7  2  0
  7  8  1  0
  8  9  2  0
  9  4  1  0
  1 10  1  0
  1 11  1  0
  1 12  1  0
  3 13  1  0
  5 14  1  0
  6 15  1  0
  7 16  1  0
  8 17  1  0
  9 18  1  0
M  END

>  <ID>
Pocket2Mol_87_num_sample_100

>  <docking_score>
-6.374

$$$$
Pocket2Mol_88_num_sample_100
     RDKit          3D

 15 15  0  0  0  0  0  0  0  0999 V2000
   39.5280   29.2100   51.9880 C   0  0  0  0  0  0  0  0  0  0  0  0
   40.0980   30.4690   51.6400 C   0  0  0  0  0  0  0  0  0  0  0  0
   40.4430   30.3710   50.1930 C   0  0  0  0  0  0  0  0  0  0  0  0
   39.8670   29.2840   49.8490 N   0  0  0  0  0  0  0  0  0  0  0  0
   39.5370   28.3970   50.9280 C   0  0  0  0  0  0  0  0  0  0  0  0
   40.1147   28.7563   52.8003 H   0  0  0  0  0  0  0  0  0  0  0  0
   38.4898   29.3620   52.3184 H   0  0  0  0  0  0  0  0  0  0  0  0
   39.3715   31.2779   51.8069 H   0  0  0  0  0  0  0  0  0  0  0  0
   40.9824   30.6970   52.2531 H   0  0  0  0  0  0  0  0  0  0  0  0
   40.0454   31.2281   49.6297 H   0  0  0  0  0  0  0  0  0  0  0  0
   41.5253   30.3773   49.9968 H   0  0  0  0  0  0  0  0  0  0  0  0
   40.4920   28.7810   49.2050 H   0  0  0  0  0  0  0  0  0  0  0  0
   38.9700   29.5590   49.4230 H   0  0  0  0  0  0  0  0  0  0  0  0
   38.5502   27.9359   50.7741 H   0  0  0  0  0  0  0  0  0  0  0  0
   40.2388   27.5561   51.0303 H   0  0  0  0  0  0  0  0  0  0  0  0
  1  2  1  0
  2  3  1  0
  3  4  1  0
  4  5  1  0
  5  1  1  0
  1  6  1  0
  1  7  1  0
  2  8  1  0
  2  9  1  0
  3 10  1  0
  3 11  1  0
  4 12  1  0
  4 13  1  0
  5 14  1  0
  5 15  1  0
M  CHG  1   4   1
M  END

>  <ID>
Pocket2Mol_88_num_sample_100

>  <docking_score>
-3.659

$$$$
Pocket2Mol_89_num_sample_100
     RDKit          3D

 17 18  0  0  0  0  0  0  0  0999 V2000
   39.1140   29.6080   54.8500 C   0  0  0  0  0  0  0  0  0  0  0  0
   39.6950   30.5810   53.9480 C   0  0  0  0  0  0  0  0  0  0  0  0
   39.6060   30.1040   52.6040 C   0  0  0  0  0  0  0  0  0  0  0  0
   40.1460   30.6450   51.6170 C   0  0  0  0  0  0  0  0  0  0  0  0
   40.1120   29.8010   50.4700 C   0  0  0  0  0  0  0  0  0  0  0  0
   39.7790   28.5450   50.3320 C   0  0  0  0  0  0  0  0  0  0  0  0
   39.2630   27.9510   51.4740 C   0  0  0  0  0  0  0  0  0  0  0  0
   39.2440   28.7320   52.5100 C   0  0  0  0  0  0  0  0  0  0  0  0
   38.6780   28.1050   53.8120 C   0  0  0  0  0  0  0  0  0  0  0  0
   38.9584   29.7264   55.9325 H   0  0  0  0  0  0  0  0  0  0  0  0
   40.1375   31.5412   54.2515 H   0  0  0  0  0  0  0  0  0  0  0  0
   40.5931   31.6499   51.6313 H   0  0  0  0  0  0  0  0  0  0  0  0
   40.4204   30.2933   49.5359 H   0  0  0  0  0  0  0  0  0  0  0  0
   39.8987   28.0010   49.3835 H   0  0  0  0  0  0  0  0  0  0  0  0
   38.9025   26.9120   51.4992 H   0  0  0  0  0  0  0  0  0  0  0  0
   37.5973   27.9050   53.7661 H   0  0  0  0  0  0  0  0  0  0  0  0
   39.0497   27.1192   54.1282 H   0  0  0  0  0  0  0  0  0  0  0  0
  1  2  2  0
  2  3  1  0
  3  4  2  0
  4  5  1  0
  5  6  2  0
  6  7  1  0
  7  8  2  0
  8  9  1  0
  9  1  1  0
  8  3  1  0
  1 10  1  0
  2 11  1  0
  4 12  1  0
  5 13  1  0
  6 14  1  0
  7 15  1  0
  9 16  1  0
  9 17  1  0
M  END

>  <ID>
Pocket2Mol_89_num_sample_100

>  <docking_score>
-6.577

$$$$
Pocket2Mol_8_num_sample_100
     RDKit          3D

 12 12  0  0  0  0  0  0  0  0999 V2000
   40.1680   29.2430   50.0680 C   0  0  0  0  0  0  0  0  0  0  0  0
   39.6060   28.1670   50.6760 C   0  0  0  0  0  0  0  0  0  0  0  0
   39.1650   28.4320   51.8850 C   0  0  0  0  0  0  0  0  0  0  0  0
   39.4160   29.5560   52.6120 C   0  0  0  0  0  0  0  0  0  0  0  0
   40.0670   30.4850   51.9140 C   0  0  0  0  0  0  0  0  0  0  0  0
   40.5400   30.4150   50.6310 C   0  0  0  0  0  0  0  0  0  0  0  0
   40.3419   29.1502   48.9858 H   0  0  0  0  0  0  0  0  0  0  0  0
   39.5279   27.1759   50.2052 H   0  0  0  0  0  0  0  0  0  0  0  0
   38.5289   27.6691   52.3577 H   0  0  0  0  0  0  0  0  0  0  0  0
   39.1138   29.6829   53.6620 H   0  0  0  0  0  0  0  0  0  0  0  0
   40.2488   31.4349   52.4380 H   0  0  0  0  0  0  0  0  0  0  0  0
   41.1338   31.1954   50.1327 H   0  0  0  0  0  0  0  0  0  0  0  0
  1  2  2  0
  2  3  1  0
  3  4  2  0
  4  5  1  0
  5  6  2  0
  6  1  1  0
  1  7  1  0
  2  8  1  0
  3  9  1  0
  4 10  1  0
  5 11  1  0
  6 12  1  0
M  END

>  <ID>
Pocket2Mol_8_num_sample_100

>  <docking_score>
-5.026

$$$$
Pocket2Mol_90_num_sample_100
     RDKit          3D

 14 14  0  0  0  0  0  0  0  0999 V2000
   37.8160   29.1850   54.1310 N   0  0  0  0  0  0  0  0  0  0  0  0
   38.9140   29.6010   53.7880 C   0  0  0  0  0  0  0  0  0  0  0  0
   39.7240   30.0960   54.6860 O   0  0  0  0  0  0  0  0  0  0  0  0
   39.4180   29.6240   52.4910 C   0  0  0  0  0  0  0  0  0  0  0  0
   40.2050   30.4620   51.7980 C   0  0  0  0  0  0  0  0  0  0  0  0
   40.5660   30.1900   50.5170 C   0  0  0  0  0  0  0  0  0  0  0  0
   39.7300   28.7200   50.3140 C   0  0  0  0  0  0  0  0  0  0  0  0
   39.1210   28.4380   51.5100 C   0  0  0  0  0  0  0  0  0  0  0  0
   38.2440   27.6520   51.7280 O   0  0  0  0  0  0  0  0  0  0  0  0
   37.5420   29.2140   55.1240 H   0  0  0  0  0  0  0  0  0  0  0  0
   37.1650   28.8060   53.4280 H   0  0  0  0  0  0  0  0  0  0  0  0
   40.5640   31.3854   52.2759 H   0  0  0  0  0  0  0  0  0  0  0  0
   41.2061   30.7508   49.8200 H   0  0  0  0  0  0  0  0  0  0  0  0
   39.6868   28.1125   49.3980 H   0  0  0  0  0  0  0  0  0  0  0  0
  1  2  1  0
  2  3  2  0
  2  4  1  0
  4  5  2  0
  5  6  1  0
  6  7  2  0
  7  8  1  0
  8  9  2  0
  8  4  1  0
  1 10  1  0
  1 11  1  0
  5 12  1  0
  6 13  1  0
  7 14  1  0
M  END

>  <ID>
Pocket2Mol_90_num_sample_100

>  <docking_score>
-5.771

$$$$
Pocket2Mol_91_num_sample_100
     RDKit          3D

 14 15  0  0  0  0  0  0  0  0999 V2000
   37.9410   27.8790   53.6320 C   0  0  0  0  0  0  0  0  0  0  0  0
   38.8340   29.5440   53.7980 C   0  0  0  0  0  0  0  0  0  0  0  0
   39.3400   29.5330   52.4830 C   0  0  0  0  0  0  0  0  0  0  0  0
   40.1250   30.4860   51.9560 C   0  0  0  0  0  0  0  0  0  0  0  0
   40.5830   30.3950   50.6810 C   0  0  0  0  0  0  0  0  0  0  0  0
   40.2200   29.2710   49.9410 C   0  0  0  0  0  0  0  0  0  0  0  0
   39.5090   28.2060   50.4950 C   0  0  0  0  0  0  0  0  0  0  0  0
   39.0670   28.3320   51.7300 C   0  0  0  0  0  0  0  0  0  0  0  0
   38.3130   27.3680   52.3350 N   0  0  0  0  0  0  0  0  0  0  0  0
   38.9246   30.2624   54.6260 H   0  0  0  0  0  0  0  0  0  0  0  0
   40.4023   31.3567   52.5684 H   0  0  0  0  0  0  0  0  0  0  0  0
   41.2185   31.1811   50.2471 H   0  0  0  0  0  0  0  0  0  0  0  0
   40.5050   29.2217   48.8797 H   0  0  0  0  0  0  0  0  0  0  0  0
   39.3229   27.2882   49.9179 H   0  0  0  0  0  0  0  0  0  0  0  0
  1  2  2  0
  2  3  1  0
  3  4  2  0
  4  5  1  0
  5  6  2  0
  6  7  1  0
  7  8  2  0
  8  9  1  0
  9  1  2  0
  8  3  1  0
  2 10  1  0
  4 11  1  0
  5 12  1  0
  6 13  1  0
  7 14  1  0
M  END

>  <ID>
Pocket2Mol_91_num_sample_100

>  <docking_score>
-6.309

$$$$
Pocket2Mol_92_num_sample_100
     RDKit          3D

 18 19  0  0  0  0  0  0  0  0999 V2000
   40.2370   30.1080   50.3680 C   0  0  0  0  0  0  0  0  0  0  0  0
   39.8440   28.8200   50.2760 C   0  0  0  0  0  0  0  0  0  0  0  0
   39.4350   28.1770   51.3470 C   0  0  0  0  0  0  0  0  0  0  0  0
   39.3400   28.7720   52.6860 C   0  0  0  0  0  0  0  0  0  0  0  0
   38.9020   28.0240   53.7220 C   0  0  0  0  0  0  0  0  0  0  0  0
   38.8990   28.5920   54.9040 C   0  0  0  0  0  0  0  0  0  0  0  0
   39.3090   29.9440   55.1340 C   0  0  0  0  0  0  0  0  0  0  0  0
   39.6940   30.5920   53.9680 C   0  0  0  0  0  0  0  0  0  0  0  0
   39.7210   30.0660   52.8340 C   0  0  0  0  0  0  0  0  0  0  0  0
   40.1390   30.6210   51.6820 C   0  0  0  0  0  0  0  0  0  0  0  0
   40.5958   30.6967   49.5109 H   0  0  0  0  0  0  0  0  0  0  0  0
   39.8660   28.3075   49.3029 H   0  0  0  0  0  0  0  0  0  0  0  0
   39.1444   27.1223   51.2325 H   0  0  0  0  0  0  0  0  0  0  0  0
   38.5636   26.9869   53.5808 H   0  0  0  0  0  0  0  0  0  0  0  0
   38.5630   27.9969   55.7659 H   0  0  0  0  0  0  0  0  0  0  0  0
   39.3181   30.4180   56.1266 H   0  0  0  0  0  0  0  0  0  0  0  0
   39.9978   31.6462   54.0478 H   0  0  0  0  0  0  0  0  0  0  0  0
   40.4647   31.6671   51.7805 H   0  0  0  0  0  0  0  0  0  0  0  0
  1  2  2  0
  2  3  1  0
  3  4  2  0
  4  5  1  0
  5  6  2  0
  6  7  1  0
  7  8  2  0
  8  9  1  0
  9 10  2  0
 10  1  1  0
  9  4  1  0
  1 11  1  0
  2 12  1  0
  3 13  1  0
  5 14  1  0
  6 15  1  0
  7 16  1  0
  8 17  1  0
 10 18  1  0
M  END

>  <ID>
Pocket2Mol_92_num_sample_100

>  <docking_score>
-7.187

$$$$
Pocket2Mol_93_num_sample_100
     RDKit          3D

 17 18  0  0  0  0  0  0  0  0999 V2000
   40.3550   30.4180   50.9920 C   0  0  0  0  0  0  0  0  0  0  0  0
   40.1050   29.2890   50.2280 C   0  0  0  0  0  0  0  0  0  0  0  0
   39.3210   28.2270   50.6940 C   0  0  0  0  0  0  0  0  0  0  0  0
   38.9320   28.4080   51.9490 C   0  0  0  0  0  0  0  0  0  0  0  0
   38.0930   27.2960   52.4870 N   0  0  0  0  0  0  0  0  0  0  0  0
   37.5790   27.3890   53.6920 C   0  0  0  0  0  0  0  0  0  0  0  0
   37.7700   28.3560   54.5000 C   0  0  0  0  0  0  0  0  0  0  0  0
   38.5670   29.3430   53.9640 C   0  0  0  0  0  0  0  0  0  0  0  0
   39.1680   29.4650   52.7660 C   0  0  0  0  0  0  0  0  0  0  0  0
   39.8470   30.4290   52.3490 C   0  0  0  0  0  0  0  0  0  0  0  0
   40.9166   31.2716   50.5845 H   0  0  0  0  0  0  0  0  0  0  0  0
   40.5383   29.2251   49.2190 H   0  0  0  0  0  0  0  0  0  0  0  0
   39.0584   27.3458   50.0902 H   0  0  0  0  0  0  0  0  0  0  0  0
   36.9319   26.5666   54.0310 H   0  0  0  0  0  0  0  0  0  0  0  0
   37.3451   28.3977   55.5138 H   0  0  0  0  0  0  0  0  0  0  0  0
   38.7459   30.1904   54.6421 H   0  0  0  0  0  0  0  0  0  0  0  0
   40.0579   31.2824   53.0102 H   0  0  0  0  0  0  0  0  0  0  0  0
  1  2  2  0
  2  3  1  0
  3  4  2  0
  4  5  1  0
  5  6  2  0
  6  7  1  0
  7  8  2  0
  8  9  1  0
  9 10  2  0
 10  1  1  0
  9  4  1  0
  1 11  1  0
  2 12  1  0
  3 13  1  0
  6 14  1  0
  7 15  1  0
  8 16  1  0
 10 17  1  0
M  END

>  <ID>
Pocket2Mol_93_num_sample_100

>  <docking_score>
-6.78

$$$$
Pocket2Mol_94_num_sample_100
     RDKit          3D

 16 17  0  0  0  0  0  0  0  0999 V2000
   38.3140   27.5790   55.7530 O   0  0  0  0  0  0  0  0  0  0  0  0
   38.8290   28.4480   54.7830 C   0  0  0  0  0  0  0  0  0  0  0  0
   39.1880   29.7290   55.1010 C   0  0  0  0  0  0  0  0  0  0  0  0
   39.7100   30.5420   53.8870 C   0  0  0  0  0  0  0  0  0  0  0  0
   39.7010   30.0250   52.7480 C   0  0  0  0  0  0  0  0  0  0  0  0
   39.2960   28.7380   52.6000 C   0  0  0  0  0  0  0  0  0  0  0  0
   38.8950   27.8830   53.5300 C   0  0  0  0  0  0  0  0  0  0  0  0
   39.7030   28.6610   50.7190 C   0  0  0  0  0  0  0  0  0  0  0  0
   40.1550   30.1150   50.2550 C   0  0  0  0  0  0  0  0  0  0  0  0
   40.1000   30.5830   51.5910 C   0  0  0  0  0  0  0  0  0  0  0  0
   38.8340   26.7840   56.0310 H   0  0  0  0  0  0  0  0  0  0  0  0
   39.1139   30.1422   56.1177 H   0  0  0  0  0  0  0  0  0  0  0  0
   40.0856   31.5664   54.0270 H   0  0  0  0  0  0  0  0  0  0  0  0
   38.6418   26.8329   53.3222 H   0  0  0  0  0  0  0  0  0  0  0  0
   40.4081   30.5722   49.2870 H   0  0  0  0  0  0  0  0  0  0  0  0
   40.4577   31.6169   51.7060 H   0  0  0  0  0  0  0  0  0  0  0  0
  1  2  1  0
  2  3  1  0
  3  4  2  0
  4  5  1  0
  5  6  1  0
  6  7  1  0
  6  8  2  0
  8  9  2  0
  9 10  1  0
  7  2  2  0
 10  5  2  0
  1 11  1  0
  3 12  1  0
  4 13  1  0
  7 14  1  0
  9 15  1  0
 10 16  1  0
M  END

>  <ID>
Pocket2Mol_94_num_sample_100

>  <docking_score>
-6.546

$$$$
Pocket2Mol_95_num_sample_100
     RDKit          3D

 14 15  0  0  0  0  0  0  0  0999 V2000
   38.8840   31.0600   54.3050 O   0  0  0  0  0  0  0  0  0  0  0  0
   38.8900   29.8800   53.8310 C   0  0  0  0  0  0  0  0  0  0  0  0
   38.0290   28.8290   54.2340 N   0  0  0  0  0  0  0  0  0  0  0  0
   37.7770   27.7060   53.4360 C   0  0  0  0  0  0  0  0  0  0  0  0
   38.2970   27.5170   52.1470 N   0  0  0  0  0  0  0  0  0  0  0  0
   39.0500   28.4960   51.6770 C   0  0  0  0  0  0  0  0  0  0  0  0
   39.6660   28.6390   50.4600 C   0  0  0  0  0  0  0  0  0  0  0  0
   40.5530   30.0920   50.5200 C   0  0  0  0  0  0  0  0  0  0  0  0
   40.2050   30.5000   51.7680 C   0  0  0  0  0  0  0  0  0  0  0  0
   39.3910   29.7600   52.5390 C   0  0  0  0  0  0  0  0  0  0  0  0
   37.1277   26.9193   53.8477 H   0  0  0  0  0  0  0  0  0  0  0  0
   39.5999   27.9471   49.6074 H   0  0  0  0  0  0  0  0  0  0  0  0
   41.2105   30.5597   49.7723 H   0  0  0  0  0  0  0  0  0  0  0  0
   40.5965   31.4528   52.1540 H   0  0  0  0  0  0  0  0  0  0  0  0
  1  2  2  0
  2  3  1  0
  3  4  2  0
  4  5  1  0
  5  6  2  0
  6  7  1  0
  7  8  2  0
  8  9  1  0
  9 10  2  0
 10  2  1  0
 10  6  1  0
  4 11  1  0
  7 12  1  0
  8 13  1  0
  9 14  1  0
M  END

>  <ID>
Pocket2Mol_95_num_sample_100

>  <docking_score>
-6.348

$$$$
Pocket2Mol_96_num_sample_100
     RDKit          3D

 18 19  0  0  0  0  0  0  0  0999 V2000
   39.5500   30.6650   54.4190 O   0  0  0  0  0  0  0  0  0  0  0  0
   39.2110   29.6570   53.6900 C   0  0  0  0  0  0  0  0  0  0  0  0
   38.6940   28.4820   54.2280 N   0  0  0  0  0  0  0  0  0  0  0  0
   38.4490   27.3970   53.2330 C   0  0  0  0  0  0  0  0  0  0  0  0
   38.8090   27.5310   51.7030 C   0  0  0  0  0  0  0  0  0  0  0  0
   39.3260   28.4880   51.5490 N   0  0  0  0  0  0  0  0  0  0  0  0
   39.9030   28.9110   50.3060 C   0  0  0  0  0  0  0  0  0  0  0  0
   40.4250   30.1180   50.2650 C   0  0  0  0  0  0  0  0  0  0  0  0
   40.1250   30.4850   51.5220 C   0  0  0  0  0  0  0  0  0  0  0  0
   39.6310   29.6300   52.3050 C   0  0  0  0  0  0  0  0  0  0  0  0
   38.4970   28.3710   55.2320 H   0  0  0  0  0  0  0  0  0  0  0  0
   39.0046   26.5208   53.5985 H   0  0  0  0  0  0  0  0  0  0  0  0
   37.3497   27.3781   53.1974 H   0  0  0  0  0  0  0  0  0  0  0  0
   39.4662   26.7017   51.4024 H   0  0  0  0  0  0  0  0  0  0  0  0
   37.8925   27.4958   51.0957 H   0  0  0  0  0  0  0  0  0  0  0  0
   39.9089   28.2538   49.4239 H   0  0  0  0  0  0  0  0  0  0  0  0
   40.9429   30.6561   49.4574 H   0  0  0  0  0  0  0  0  0  0  0  0
   40.3076   31.5150   51.8622 H   0  0  0  0  0  0  0  0  0  0  0  0
  1  2  2  0
  2  3  1  0
  3  4  1  0
  4  5  1  0
  5  6  1  0
  6  7  1  0
  7  8  2  0
  8  9  1  0
  9 10  2  0
 10  2  1  0
 10  6  1  0
  3 11  1  0
  4 12  1  0
  4 13  1  0
  5 14  1  0
  5 15  1  0
  7 16  1  0
  8 17  1  0
  9 18  1  0
M  END

>  <ID>
Pocket2Mol_96_num_sample_100

>  <docking_score>
-5.763

$$$$
Pocket2Mol_97_num_sample_100
     RDKit          3D

 17 18  0  0  0  0  0  0  0  0999 V2000
   40.2040   29.7740   50.3930 C   0  0  0  0  0  0  0  0  0  0  0  0
   39.7230   28.5670   50.4230 C   0  0  0  0  0  0  0  0  0  0  0  0
   39.1810   27.9940   51.5280 C   0  0  0  0  0  0  0  0  0  0  0  0
   39.2000   28.7750   52.6300 C   0  0  0  0  0  0  0  0  0  0  0  0
   38.6780   28.3420   53.9140 C   0  0  0  0  0  0  0  0  0  0  0  0
   38.6210   28.9700   55.0050 N   0  0  0  0  0  0  0  0  0  0  0  0
   39.1030   30.2060   55.0600 C   0  0  0  0  0  0  0  0  0  0  0  0
   39.6080   30.6450   53.8140 C   0  0  0  0  0  0  0  0  0  0  0  0
   39.7010   30.0360   52.6180 C   0  0  0  0  0  0  0  0  0  0  0  0
   40.1410   30.5160   51.5510 C   0  0  0  0  0  0  0  0  0  0  0  0
   40.6459   30.1882   49.4747 H   0  0  0  0  0  0  0  0  0  0  0  0
   39.7571   27.9739   49.4972 H   0  0  0  0  0  0  0  0  0  0  0  0
   38.7609   26.9774   51.5261 H   0  0  0  0  0  0  0  0  0  0  0  0
   38.2744   27.3190   53.9377 H   0  0  0  0  0  0  0  0  0  0  0  0
   39.1089   30.8199   55.9727 H   0  0  0  0  0  0  0  0  0  0  0  0
   39.9963   31.6741   53.8248 H   0  0  0  0  0  0  0  0  0  0  0  0
   40.4874   31.5599   51.5369 H   0  0  0  0  0  0  0  0  0  0  0  0
  1  2  2  0
  2  3  1  0
  3  4  2  0
  4  5  1  0
  5  6  2  0
  6  7  1  0
  7  8  2  0
  8  9  1  0
  9 10  2  0
 10  1  1  0
  9  4  1  0
  1 11  1  0
  2 12  1  0
  3 13  1  0
  5 14  1  0
  7 15  1  0
  8 16  1  0
 10 17  1  0
M  END

>  <ID>
Pocket2Mol_97_num_sample_100

>  <docking_score>
-6.753

$$$$
Pocket2Mol_98_num_sample_100
     RDKit          3D

 18 19  0  0  0  0  0  0  0  0999 V2000
   40.5010   30.0140   49.9950 C   0  0  0  0  0  0  0  0  0  0  0  0
   39.8620   29.7940   51.2780 C   0  0  0  0  0  0  0  0  0  0  0  0
   40.0290   30.5820   52.3460 C   0  0  0  0  0  0  0  0  0  0  0  0
   39.3940   30.3130   53.5650 C   0  0  0  0  0  0  0  0  0  0  0  0
   38.6840   29.1600   53.6720 C   0  0  0  0  0  0  0  0  0  0  0  0
   38.5910   28.3540   52.4980 C   0  0  0  0  0  0  0  0  0  0  0  0
   39.1890   28.6010   51.3040 C   0  0  0  0  0  0  0  0  0  0  0  0
   37.6630   27.1330   52.8640 O   0  0  0  0  0  0  0  0  0  0  0  0
   37.5350   27.3550   54.2490 C   0  0  0  0  0  0  0  0  0  0  0  0
   37.9620   28.5690   54.4970 O   0  0  0  0  0  0  0  0  0  0  0  0
   41.5302   30.3683   50.1539 H   0  0  0  0  0  0  0  0  0  0  0  0
   40.5212   29.0711   49.4289 H   0  0  0  0  0  0  0  0  0  0  0  0
   39.9364   30.7695   49.4289 H   0  0  0  0  0  0  0  0  0  0  0  0
   40.6817   31.4637   52.2647 H   0  0  0  0  0  0  0  0  0  0  0  0
   39.4680   31.0138   54.4096 H   0  0  0  0  0  0  0  0  0  0  0  0
   39.1382   27.9141   50.4463 H   0  0  0  0  0  0  0  0  0  0  0  0
   36.4808   27.2598   54.5483 H   0  0  0  0  0  0  0  0  0  0  0  0
   38.1218   26.6161   54.8145 H   0  0  0  0  0  0  0  0  0  0  0  0
  1  2  1  0
  2  3  2  0
  3  4  1  0
  4  5  2  0
  5  6  1  0
  6  7  2  0
  6  8  1  0
  8  9  1  0
  9 10  1  0
  7  2  1  0
 10  5  1  0
  1 11  1  0
  1 12  1  0
  1 13  1  0
  3 14  1  0
  4 15  1  0
  7 16  1  0
  9 17  1  0
  9 18  1  0
M  END

>  <ID>
Pocket2Mol_98_num_sample_100

>  <docking_score>
-6.636

$$$$
Pocket2Mol_99_num_sample_100
     RDKit          3D

 13 13  0  0  0  0  0  0  0  0999 V2000
   40.5950   30.2160   50.5830 C   0  0  0  0  0  0  0  0  0  0  0  0
   39.7420   28.5610   50.5190 C   0  0  0  0  0  0  0  0  0  0  0  0
   39.4800   28.2930   51.8000 C   0  0  0  0  0  0  0  0  0  0  0  0
   39.5590   29.4050   52.3710 O   0  0  0  0  0  0  0  0  0  0  0  0
   39.9520   30.4850   51.7410 C   0  0  0  0  0  0  0  0  0  0  0  0
   41.6894   30.1567   50.6772 H   0  0  0  0  0  0  0  0  0  0  0  0
   40.5377   30.9117   49.7329 H   0  0  0  0  0  0  0  0  0  0  0  0
   38.8134   28.6202   49.9323 H   0  0  0  0  0  0  0  0  0  0  0  0
   40.3526   27.7839   50.0361 H   0  0  0  0  0  0  0  0  0  0  0  0
   38.4712   27.8687   51.9110 H   0  0  0  0  0  0  0  0  0  0  0  0
   40.1733   27.5521   52.2248 H   0  0  0  0  0  0  0  0  0  0  0  0
   39.0687   31.1010   51.5166 H   0  0  0  0  0  0  0  0  0  0  0  0
   40.6619   31.0092   52.3977 H   0  0  0  0  0  0  0  0  0  0  0  0
  1  2  1  0
  2  3  1  0
  3  4  1  0
  4  5  1  0
  5  1  1  0
  1  6  1  0
  1  7  1  0
  2  8  1  0
  2  9  1  0
  3 10  1  0
  3 11  1  0
  5 12  1  0
  5 13  1  0
M  END

>  <ID>
Pocket2Mol_99_num_sample_100

>  <docking_score>
-3.59

$$$$
Pocket2Mol_9_num_sample_100
     RDKit          3D

 11 11  0  0  0  0  0  0  0  0999 V2000
   38.3880   27.5680   51.5360 O   0  0  0  0  0  0  0  0  0  0  0  0
   39.0990   28.5330   51.3300 C   0  0  0  0  0  0  0  0  0  0  0  0
   39.8910   28.8850   50.2790 C   0  0  0  0  0  0  0  0  0  0  0  0
   40.4480   30.1070   50.6660 C   0  0  0  0  0  0  0  0  0  0  0  0
   40.1350   30.4620   51.8240 C   0  0  0  0  0  0  0  0  0  0  0  0
   39.3940   29.6080   52.2290 N   0  0  0  0  0  0  0  0  0  0  0  0
   40.6764   28.1330   50.1129 H   0  0  0  0  0  0  0  0  0  0  0  0
   39.3319   28.9562   49.3344 H   0  0  0  0  0  0  0  0  0  0  0  0
   41.5434   30.0204   50.6143 H   0  0  0  0  0  0  0  0  0  0  0  0
   40.0523   30.8702   49.9798 H   0  0  0  0  0  0  0  0  0  0  0  0
   40.4677   31.3644   52.3578 H   0  0  0  0  0  0  0  0  0  0  0  0
  1  2  2  0
  2  3  1  0
  3  4  1  0
  4  5  1  0
  5  6  2  0
  6  2  1  0
  3  7  1  0
  3  8  1  0
  4  9  1  0
  4 10  1  0
  5 11  1  0
M  END

>  <ID>
Pocket2Mol_9_num_sample_100

>  <docking_score>
-4.317

$$$$
