Pocket2Mol_0
     RDKit          3D

 19 19  0  0  0  0  0  0  0  0999 V2000
   38.0550   33.2740   56.3180 N   0  0  0  0  0  0  0  0  0  0  0  0
   38.8590   32.3450   56.0330 C   0  0  0  0  0  0  0  0  0  0  0  0
   38.5500   31.5010   54.8100 C   0  0  0  0  0  0  0  0  0  0  0  0
   39.5600   30.6650   54.2990 C   0  0  0  0  0  0  0  0  0  0  0  0
   39.3640   30.1020   53.1090 C   0  0  0  0  0  0  0  0  0  0  0  0
   39.9350   30.5600   51.9750 C   0  0  0  0  0  0  0  0  0  0  0  0
   40.3370   29.6980   50.9350 C   0  0  0  0  0  0  0  0  0  0  0  0
   39.8440   28.4070   50.8790 C   0  0  0  0  0  0  0  0  0  0  0  0
   39.2500   27.8810   52.0680 C   0  0  0  0  0  0  0  0  0  0  0  0
   39.0300   28.7680   53.0970 C   0  0  0  0  0  0  0  0  0  0  0  0
   38.2280   33.8710   57.1400 H   0  0  0  0  0  0  0  0  0  0  0  0
   39.7508   32.1536   56.6478 H   0  0  0  0  0  0  0  0  0  0  0  0
   37.5592   31.5419   54.3340 H   0  0  0  0  0  0  0  0  0  0  0  0
   40.4844   30.4821   54.8664 H   0  0  0  0  0  0  0  0  0  0  0  0
   40.0919   31.6425   51.8586 H   0  0  0  0  0  0  0  0  0  0  0  0
   41.0422   30.0517   50.1685 H   0  0  0  0  0  0  0  0  0  0  0  0
   39.9064   27.8096   49.9575 H   0  0  0  0  0  0  0  0  0  0  0  0
   38.9815   26.8179   52.1563 H   0  0  0  0  0  0  0  0  0  0  0  0
   38.5391   28.3712   53.9978 H   0  0  0  0  0  0  0  0  0  0  0  0
  1  2  2  3
  2  3  1  0
  3  4  2  3
  4  5  1  0
  5  6  2  0
  6  7  1  0
  7  8  2  0
  8  9  1  0
  9 10  2  0
 10  5  1  0
  1 11  1  0
  2 12  1  0
  3 13  1  0
  4 14  1  0
  6 15  1  0
  7 16  1  0
  8 17  1  0
  9 18  1  0
 10 19  1  0
M  END
>  <ID>  (1) 
Pocket2Mol_0_0

>  <docking_score>  (1) 
-6.652

$$$$
Pocket2Mol_10
     RDKit          3D

 12 12  0  0  0  0  0  0  0  0999 V2000
   38.9100   28.9660   53.4890 C   0  0  0  0  0  0  0  0  0  0  0  0
   39.4370   29.1500   52.0720 C   0  0  0  0  0  0  0  0  0  0  0  0
   40.0660   30.3530   51.8140 C   0  0  0  0  0  0  0  0  0  0  0  0
   40.5370   30.4510   50.6300 C   0  0  0  0  0  0  0  0  0  0  0  0
   40.2450   29.4560   49.7890 C   0  0  0  0  0  0  0  0  0  0  0  0
   39.3610   28.0880   51.0660 S   0  0  0  0  0  0  0  0  0  0  0  0
   39.6941   29.2398   54.2103 H   0  0  0  0  0  0  0  0  0  0  0  0
   38.0316   29.6106   53.6401 H   0  0  0  0  0  0  0  0  0  0  0  0
   38.6237   27.9147   53.6401 H   0  0  0  0  0  0  0  0  0  0  0  0
   40.1536   31.1552   52.5615 H   0  0  0  0  0  0  0  0  0  0  0  0
   41.1506   31.3098   50.3202 H   0  0  0  0  0  0  0  0  0  0  0  0
   40.4259   29.3828   48.7065 H   0  0  0  0  0  0  0  0  0  0  0  0
  1  2  1  0
  2  3  2  0
  3  4  1  0
  4  5  2  0
  5  6  1  0
  6  2  1  0
  1  7  1  0
  1  8  1  0
  1  9  1  0
  3 10  1  0
  4 11  1  0
  5 12  1  0
M  END
>  <ID>  (2) 
Pocket2Mol_10_0

>  <docking_score>  (2) 
-4.536

$$$$
Pocket2Mol_11
     RDKit          3D

  7  6  0  0  0  0  0  0  0  0999 V2000
   37.2610   34.7370   49.4940 C   0  0  0  0  0  0  0  0  0  0  0  0
   37.9100   34.2000   48.7100 C   0  0  0  0  0  0  0  0  0  0  0  0
   38.5470   33.1300   48.8010 O   0  0  0  0  0  0  0  0  0  0  0  0
   38.1190   34.9460   47.5540 O   0  0  0  0  0  0  0  0  0  0  0  0
   37.5986   34.4577   50.5030 H   0  0  0  0  0  0  0  0  0  0  0  0
   37.3546   35.8253   49.3642 H   0  0  0  0  0  0  0  0  0  0  0  0
   36.2095   34.4413   49.3642 H   0  0  0  0  0  0  0  0  0  0  0  0
  1  2  1  0
  2  3  2  0
  2  4  1  0
  1  5  1  0
  1  6  1  0
  1  7  1  0
M  CHG  1   4  -1
M  END
>  <ID>  (3) 
Pocket2Mol_11_0

>  <docking_score>  (3) 
-3.225

$$$$
Pocket2Mol_12
     RDKit          3D

 14 14  0  0  0  0  0  0  0  0999 V2000
   37.1780   28.2380   53.5950 C   0  0  0  0  0  0  0  0  0  0  0  0
   37.7370   26.9690   54.2780 C   0  0  0  0  0  0  0  0  0  0  0  0
   39.2230   26.9310   53.8830 O   0  0  0  0  0  0  0  0  0  0  0  0
   39.5270   27.1120   52.4590 C   0  0  0  0  0  0  0  0  0  0  0  0
   38.7110   28.3300   51.7690 C   0  0  0  0  0  0  0  0  0  0  0  0
   37.5410   28.0840   52.2040 O   0  0  0  0  0  0  0  0  0  0  0  0
   36.0853   28.2927   53.7089 H   0  0  0  0  0  0  0  0  0  0  0  0
   37.5793   29.1632   54.0342 H   0  0  0  0  0  0  0  0  0  0  0  0
   37.6283   27.0373   55.3705 H   0  0  0  0  0  0  0  0  0  0  0  0
   37.2016   26.0601   53.9662 H   0  0  0  0  0  0  0  0  0  0  0  0
   40.6036   27.3131   52.3565 H   0  0  0  0  0  0  0  0  0  0  0  0
   39.2220   26.1885   51.9450 H   0  0  0  0  0  0  0  0  0  0  0  0
   39.0756   29.3105   52.1091 H   0  0  0  0  0  0  0  0  0  0  0  0
   38.7970   28.3846   50.6737 H   0  0  0  0  0  0  0  0  0  0  0  0
  1  2  1  0
  2  3  1  0
  3  4  1  0
  4  5  1  0
  5  6  1  0
  6  1  1  0
  1  7  1  0
  1  8  1  0
  2  9  1  0
  2 10  1  0
  4 11  1  0
  4 12  1  0
  5 13  1  0
  5 14  1  0
M  END
>  <ID>  (4) 
Pocket2Mol_12_0

>  <docking_score>  (4) 
-3.463

$$$$
Pocket2Mol_13
     RDKit          3D

 11 11  0  0  0  0  0  0  0  0999 V2000
   38.3790   27.4090   51.3050 O   0  0  0  0  0  0  0  0  0  0  0  0
   39.1250   28.4190   51.3060 C   0  0  0  0  0  0  0  0  0  0  0  0
   39.8440   29.0900   50.4090 C   0  0  0  0  0  0  0  0  0  0  0  0
   40.3250   30.1140   50.6200 C   0  0  0  0  0  0  0  0  0  0  0  0
   40.0800   30.4650   51.8960 C   0  0  0  0  0  0  0  0  0  0  0  0
   39.1940   29.2250   52.3540 N   0  0  0  0  0  0  0  0  0  0  0  0
   40.6705   28.4220   50.1251 H   0  0  0  0  0  0  0  0  0  0  0  0
   39.0721   29.3619   49.6740 H   0  0  0  0  0  0  0  0  0  0  0  0
   40.8951   30.7116   49.8934 H   0  0  0  0  0  0  0  0  0  0  0  0
   40.4001   31.3535   52.4601 H   0  0  0  0  0  0  0  0  0  0  0  0
   38.7610   29.0780   53.2770 H   0  0  0  0  0  0  0  0  0  0  0  0
  1  2  2  0
  2  3  1  0
  3  4  1  0
  4  5  2  0
  5  6  1  0
  6  2  1  0
  3  7  1  0
  3  8  1  0
  4  9  1  0
  5 10  1  0
  6 11  1  0
M  END
>  <ID>  (5) 
Pocket2Mol_13_0

>  <docking_score>  (5) 
-4.456

$$$$
Pocket2Mol_14
     RDKit          3D

 10 10  0  0  0  0  0  0  0  0999 V2000
   39.3130   36.0810   47.2970 O   0  0  0  0  0  0  0  0  0  0  0  0
   38.6400   35.5610   48.1560 C   0  0  0  0  0  0  0  0  0  0  0  0
   37.9640   34.3860   47.9690 O   0  0  0  0  0  0  0  0  0  0  0  0
   37.1870   34.1490   49.1560 C   0  0  0  0  0  0  0  0  0  0  0  0
   37.4430   35.3530   49.9130 C   0  0  0  0  0  0  0  0  0  0  0  0
   38.3180   36.1600   49.3530 O   0  0  0  0  0  0  0  0  0  0  0  0
   36.1177   34.0415   48.9215 H   0  0  0  0  0  0  0  0  0  0  0  0
   37.4494   33.2216   49.6861 H   0  0  0  0  0  0  0  0  0  0  0  0
   36.4943   35.8976   50.0284 H   0  0  0  0  0  0  0  0  0  0  0  0
   37.8703   35.0388   50.8767 H   0  0  0  0  0  0  0  0  0  0  0  0
  1  2  2  0
  2  3  1  0
  3  4  1  0
  4  5  1  0
  5  6  1  0
  6  2  1  0
  4  7  1  0
  4  8  1  0
  5  9  1  0
  5 10  1  0
M  END
>  <ID>  (6) 
Pocket2Mol_14_0

>  <docking_score>  (6) 
-3.717

$$$$
Pocket2Mol_15
     RDKit          3D

 12 12  0  0  0  0  0  0  0  0999 V2000
   38.3930   27.4610   51.3900 O   0  0  0  0  0  0  0  0  0  0  0  0
   39.1050   28.4700   51.3950 C   0  0  0  0  0  0  0  0  0  0  0  0
   39.8630   28.9640   50.2780 C   0  0  0  0  0  0  0  0  0  0  0  0
   40.5850   30.2220   50.7960 C   0  0  0  0  0  0  0  0  0  0  0  0
   39.8580   30.3980   52.0180 C   0  0  0  0  0  0  0  0  0  0  0  0
   39.2900   29.2770   52.3910 O   0  0  0  0  0  0  0  0  0  0  0  0
   40.5928   28.2112   49.9454 H   0  0  0  0  0  0  0  0  0  0  0  0
   39.2192   29.1888   49.4149 H   0  0  0  0  0  0  0  0  0  0  0  0
   41.6555   30.0417   50.9732 H   0  0  0  0  0  0  0  0  0  0  0  0
   40.5880   31.0851   50.1141 H   0  0  0  0  0  0  0  0  0  0  0  0
   40.5515   30.7294   52.8049 H   0  0  0  0  0  0  0  0  0  0  0  0
   39.0735   31.1515   51.8543 H   0  0  0  0  0  0  0  0  0  0  0  0
  1  2  2  0
  2  3  1  0
  3  4  1  0
  4  5  1  0
  5  6  1  0
  6  2  1  0
  3  7  1  0
  3  8  1  0
  4  9  1  0
  4 10  1  0
  5 11  1  0
  5 12  1  0
M  END
>  <ID>  (7) 
Pocket2Mol_15_0

>  <docking_score>  (7) 
-4.37

$$$$
Pocket2Mol_16
     RDKit          3D

 18 18  0  0  0  0  0  0  0  0999 V2000
   39.9650   27.6720   51.5950 C   0  0  0  0  0  0  0  0  0  0  0  0
   39.2290   28.4990   51.0260 C   0  0  0  0  0  0  0  0  0  0  0  0
   39.8930   29.2810   50.1530 C   0  0  0  0  0  0  0  0  0  0  0  0
   40.6460   30.1870   50.7290 C   0  0  0  0  0  0  0  0  0  0  0  0
   40.2440   30.3990   51.8140 C   0  0  0  0  0  0  0  0  0  0  0  0
   39.3920   29.7790   51.9130 C   0  0  0  0  0  0  0  0  0  0  0  0
   39.8666   27.7825   52.6850 H   0  0  0  0  0  0  0  0  0  0  0  0
   39.6685   26.6542   51.3014 H   0  0  0  0  0  0  0  0  0  0  0  0
   41.0103   27.8484   51.3014 H   0  0  0  0  0  0  0  0  0  0  0  0
   38.3251   27.9410   50.7404 H   0  0  0  0  0  0  0  0  0  0  0  0
   40.5344   28.6403   49.5300 H   0  0  0  0  0  0  0  0  0  0  0  0
   39.1375   29.8178   49.5606 H   0  0  0  0  0  0  0  0  0  0  0  0
   41.6815   29.8203   50.7868 H   0  0  0  0  0  0  0  0  0  0  0  0
   40.6181   31.1155   50.1398 H   0  0  0  0  0  0  0  0  0  0  0  0
   41.0028   30.1376   52.5662 H   0  0  0  0  0  0  0  0  0  0  0  0
   40.0042   31.4615   51.9675 H   0  0  0  0  0  0  0  0  0  0  0  0
   39.3687   29.4413   52.9596 H   0  0  0  0  0  0  0  0  0  0  0  0
   38.5748   30.4266   51.5626 H   0  0  0  0  0  0  0  0  0  0  0  0
  1  2  1  0
  2  3  1  0
  3  4  1  0
  4  5  1  0
  5  6  1  0
  6  2  1  0
  1  7  1  0
  1  8  1  0
  1  9  1  0
  2 10  1  0
  3 11  1  0
  3 12  1  0
  4 13  1  0
  4 14  1  0
  5 15  1  0
  5 16  1  0
  6 17  1  0
  6 18  1  0
M  END
>  <ID>  (8) 
Pocket2Mol_16_0

>  <docking_score>  (8) 
-4.727

$$$$
Pocket2Mol_17
     RDKit          3D

 16 16  0  0  0  0  0  0  0  0999 V2000
   39.5720   31.1570   49.7680 O   0  0  0  0  0  0  0  0  0  0  0  0
   40.5810   30.3600   50.4380 C   0  0  0  0  0  0  0  0  0  0  0  0
   40.2180   30.4670   51.7130 C   0  0  0  0  0  0  0  0  0  0  0  0
   39.5360   29.7070   52.2440 C   0  0  0  0  0  0  0  0  0  0  0  0
   39.2310   28.7130   51.3910 C   0  0  0  0  0  0  0  0  0  0  0  0
   40.0370   28.9640   50.1960 C   0  0  0  0  0  0  0  0  0  0  0  0
   39.9350   31.4970   48.9120 H   0  0  0  0  0  0  0  0  0  0  0  0
   41.6241   30.5877   50.1731 H   0  0  0  0  0  0  0  0  0  0  0  0
   41.1534   30.4876   52.2915 H   0  0  0  0  0  0  0  0  0  0  0  0
   39.5669   31.3529   51.6779 H   0  0  0  0  0  0  0  0  0  0  0  0
   40.0582   29.2931   53.1192 H   0  0  0  0  0  0  0  0  0  0  0  0
   38.6131   30.2067   52.5734 H   0  0  0  0  0  0  0  0  0  0  0  0
   39.4872   27.7374   51.8298 H   0  0  0  0  0  0  0  0  0  0  0  0
   38.1557   28.6877   51.1607 H   0  0  0  0  0  0  0  0  0  0  0  0
   40.8529   28.2315   50.1084 H   0  0  0  0  0  0  0  0  0  0  0  0
   39.4641   28.8781   49.2609 H   0  0  0  0  0  0  0  0  0  0  0  0
  1  2  1  0
  2  3  1  0
  3  4  1  0
  4  5  1  0
  5  6  1  0
  6  2  1  0
  1  7  1  0
  2  8  1  0
  3  9  1  0
  3 10  1  0
  4 11  1  0
  4 12  1  0
  5 13  1  0
  5 14  1  0
  6 15  1  0
  6 16  1  0
M  END
>  <ID>  (9) 
Pocket2Mol_17_0

>  <docking_score>  (9) 
-4.466

$$$$
Pocket2Mol_18
     RDKit          3D

 18 18  0  0  0  0  0  0  0  0999 V2000
   40.3790   29.1900   50.3540 C   0  0  0  0  0  0  0  0  0  0  0  0
   39.4310   28.2400   50.6630 C   0  0  0  0  0  0  0  0  0  0  0  0
   39.5880   27.8170   52.1060 C   0  0  0  0  0  0  0  0  0  0  0  0
   39.2240   29.2300   52.8740 C   0  0  0  0  0  0  0  0  0  0  0  0
   39.9510   30.5120   52.2410 C   0  0  0  0  0  0  0  0  0  0  0  0
   39.9890   30.4650   50.6550 C   0  0  0  0  0  0  0  0  0  0  0  0
   41.2959   28.9637   50.9179 H   0  0  0  0  0  0  0  0  0  0  0  0
   40.5382   29.1477   49.2664 H   0  0  0  0  0  0  0  0  0  0  0  0
   38.4267   28.6627   50.5127 H   0  0  0  0  0  0  0  0  0  0  0  0
   39.5641   27.3652   50.0095 H   0  0  0  0  0  0  0  0  0  0  0  0
   38.8831   27.0160   52.3735 H   0  0  0  0  0  0  0  0  0  0  0  0
   40.5743   27.3996   52.3568 H   0  0  0  0  0  0  0  0  0  0  0  0
   38.1363   29.3850   52.8195 H   0  0  0  0  0  0  0  0  0  0  0  0
   39.5823   29.1352   53.9097 H   0  0  0  0  0  0  0  0  0  0  0  0
   39.4088   31.4162   52.5546 H   0  0  0  0  0  0  0  0  0  0  0  0
   40.9904   30.5197   52.6011 H   0  0  0  0  0  0  0  0  0  0  0  0
   38.9934   30.6749   50.2369 H   0  0  0  0  0  0  0  0  0  0  0  0
   40.6700   31.2187   50.2329 H   0  0  0  0  0  0  0  0  0  0  0  0
  1  2  1  0
  2  3  1  0
  3  4  1  0
  4  5  1  0
  5  6  1  0
  6  1  1  0
  1  7  1  0
  1  8  1  0
  2  9  1  0
  2 10  1  0
  3 11  1  0
  3 12  1  0
  4 13  1  0
  4 14  1  0
  5 15  1  0
  5 16  1  0
  6 17  1  0
  6 18  1  0
M  END
>  <ID>  (10) 
Pocket2Mol_18_0

>  <docking_score>  (10) 
-4.717

$$$$
Pocket2Mol_19
     RDKit          3D

 10 10  0  0  0  0  0  0  0  0999 V2000
   38.3450   27.5110   51.4510 O   0  0  0  0  0  0  0  0  0  0  0  0
   39.0800   28.5290   51.5220 C   0  0  0  0  0  0  0  0  0  0  0  0
   39.8450   28.9230   50.2760 C   0  0  0  0  0  0  0  0  0  0  0  0
   40.5850   30.2490   50.6700 C   0  0  0  0  0  0  0  0  0  0  0  0
   40.0170   30.4650   51.9430 C   0  0  0  0  0  0  0  0  0  0  0  0
   39.2160   29.3940   52.2590 O   0  0  0  0  0  0  0  0  0  0  0  0
   40.5684   28.1414   50.0009 H   0  0  0  0  0  0  0  0  0  0  0  0
   39.1856   29.0556   49.4056 H   0  0  0  0  0  0  0  0  0  0  0  0
   41.3298   30.8385   50.1152 H   0  0  0  0  0  0  0  0  0  0  0  0
   40.1873   31.3464   52.5787 H   0  0  0  0  0  0  0  0  0  0  0  0
  1  2  2  0
  2  3  1  0
  3  4  1  0
  4  5  2  0
  5  6  1  0
  6  2  1  0
  3  7  1  0
  3  8  1  0
  4  9  1  0
  5 10  1  0
M  END
>  <ID>  (11) 
Pocket2Mol_19_0

>  <docking_score>  (11) 
-4.411

$$$$
Pocket2Mol_1
     RDKit          3D

 20 21  0  0  0  0  0  0  0  0999 V2000
   39.0540   27.3510   50.6370 O   0  0  0  0  0  0  0  0  0  0  0  0
   39.1560   28.3110   51.7000 C   0  0  0  0  0  0  0  0  0  0  0  0
   38.7190   27.9510   52.9190 C   0  0  0  0  0  0  0  0  0  0  0  0
   38.9070   28.9190   53.8060 C   0  0  1  0  0  0  0  0  0  0  0  0
   38.5680   29.0480   55.2970 N   0  0  0  0  0  0  0  0  0  0  0  0
   38.9160   30.3900   55.8680 C   0  0  0  0  0  0  0  0  0  0  0  0
   39.4290   30.9040   54.7300 C   0  0  0  0  0  0  0  0  0  0  0  0
   39.4500   30.1480   53.6170 C   0  0  0  0  0  0  0  0  0  0  0  0
   39.8620   30.4750   52.4830 C   0  0  0  0  0  0  0  0  0  0  0  0
   39.7280   29.4870   51.3830 C   0  0  0  0  0  0  0  0  0  0  0  0
   38.4730   26.5560   50.7420 H   0  0  0  0  0  0  0  0  0  0  0  0
   38.2633   26.9772   53.1515 H   0  0  0  0  0  0  0  0  0  0  0  0
   37.9276   29.3472   53.5463 H   0  0  0  0  0  0  0  0  0  0  0  0
   37.5570   28.8930   55.4180 H   0  0  0  0  0  0  0  0  0  0  0  0
   39.1310   28.3470   55.8010 H   0  0  0  0  0  0  0  0  0  0  0  0
   38.0330   30.9420   56.2224 H   0  0  0  0  0  0  0  0  0  0  0  0
   39.5624   30.4023   56.7580 H   0  0  0  0  0  0  0  0  0  0  0  0
   39.8256   31.9299   54.7127 H   0  0  0  0  0  0  0  0  0  0  0  0
   40.3099   31.4639   52.3057 H   0  0  0  0  0  0  0  0  0  0  0  0
   40.0777   29.7047   50.3631 H   0  0  0  0  0  0  0  0  0  0  0  0
  1  2  1  0
  2  3  2  0
  3  4  1  0
  4  5  1  0
  5  6  1  0
  6  7  1  0
  7  8  2  0
  8  9  1  0
  9 10  2  0
 10  2  1  0
  8  4  1  0
  1 11  1  0
  3 12  1  0
  4 13  1  6
  5 14  1  0
  5 15  1  0
  6 16  1  0
  6 17  1  0
  7 18  1  0
  9 19  1  0
 10 20  1  0
M  CHG  1   5   1
M  END
>  <ID>  (12) 
Pocket2Mol_1_0

>  <docking_score>  (12) 
-6.03

$$$$
Pocket2Mol_20
     RDKit          3D

 11 11  0  0  0  0  0  0  0  0999 V2000
   38.9660   27.4410   50.6870 O   0  0  0  0  0  0  0  0  0  0  0  0
   39.4270   28.4490   50.7830 N   0  0  0  0  0  0  0  0  0  0  0  0
   39.4810   29.2700   52.0030 C   0  0  0  0  0  0  0  0  0  0  0  0
   40.0500   30.4540   51.9330 C   0  0  0  0  0  0  0  0  0  0  0  0
   40.4860   30.3660   50.6650 C   0  0  0  0  0  0  0  0  0  0  0  0
   40.1400   29.3750   49.9690 C   0  0  0  0  0  0  0  0  0  0  0  0
   39.0610   26.9310   49.8430 H   0  0  0  0  0  0  0  0  0  0  0  0
   39.0565   28.9031   52.9492 H   0  0  0  0  0  0  0  0  0  0  0  0
   40.1402   31.2599   52.6762 H   0  0  0  0  0  0  0  0  0  0  0  0
   41.1347   31.1470   50.2417 H   0  0  0  0  0  0  0  0  0  0  0  0
   40.3552   29.2448   48.8981 H   0  0  0  0  0  0  0  0  0  0  0  0
  1  2  1  0
  2  3  1  0
  3  4  2  0
  4  5  1  0
  5  6  2  0
  6  2  1  0
  1  7  1  0
  3  8  1  0
  4  9  1  0
  5 10  1  0
  6 11  1  0
M  END
>  <ID>  (13) 
Pocket2Mol_20_0

>  <docking_score>  (13) 
-4.328

$$$$
Pocket2Mol_21
     RDKit          3D

 13 13  0  0  0  0  0  0  0  0999 V2000
   38.6720   27.5100   51.7540 C   0  0  0  0  0  0  0  0  0  0  0  0
   39.3290   28.5710   51.4840 N   0  0  0  0  0  0  0  0  0  0  0  0
   39.9730   29.1750   50.3070 C   0  0  0  0  0  0  0  0  0  0  0  0
   40.5220   30.3630   50.4380 C   0  0  0  0  0  0  0  0  0  0  0  0
   40.1310   30.6010   51.7020 C   0  0  0  0  0  0  0  0  0  0  0  0
   39.5600   29.6810   52.3460 C   0  0  0  0  0  0  0  0  0  0  0  0
   38.5988   27.3918   52.8452 H   0  0  0  0  0  0  0  0  0  0  0  0
   37.6620   27.5849   51.3247 H   0  0  0  0  0  0  0  0  0  0  0  0
   39.1892   26.6392   51.3247 H   0  0  0  0  0  0  0  0  0  0  0  0
   39.9948   28.6466   49.3424 H   0  0  0  0  0  0  0  0  0  0  0  0
   41.1134   30.9693   49.7361 H   0  0  0  0  0  0  0  0  0  0  0  0
   40.3067   31.5826   52.1662 H   0  0  0  0  0  0  0  0  0  0  0  0
   39.2828   29.7278   53.4095 H   0  0  0  0  0  0  0  0  0  0  0  0
  1  2  1  0
  2  3  1  0
  3  4  2  0
  4  5  1  0
  5  6  2  0
  6  2  1  0
  1  7  1  0
  1  8  1  0
  1  9  1  0
  3 10  1  0
  4 11  1  0
  5 12  1  0
  6 13  1  0
M  END
>  <ID>  (14) 
Pocket2Mol_21_0

>  <docking_score>  (14) 
-4.08

$$$$
Pocket2Mol_22
     RDKit          3D

 10  9  0  0  0  0  0  0  0  0999 V2000
   39.5600   28.5810   51.2880 C   0  0  0  0  0  0  0  0  0  0  0  0
   40.0740   29.9080   51.1570 C   0  0  0  0  0  0  0  0  0  0  0  0
   40.5200   30.4000   50.0990 C   0  0  0  0  0  0  0  0  0  0  0  0
   39.9440   30.6200   52.3240 O   0  0  0  0  0  0  0  0  0  0  0  0
   39.4625   28.3292   52.3543 H   0  0  0  0  0  0  0  0  0  0  0  0
   38.5734   28.5206   50.8052 H   0  0  0  0  0  0  0  0  0  0  0  0
   40.2485   27.8718   50.8052 H   0  0  0  0  0  0  0  0  0  0  0  0
   41.2409   31.1952   50.3398 H   0  0  0  0  0  0  0  0  0  0  0  0
   41.0214   29.6158   49.5128 H   0  0  0  0  0  0  0  0  0  0  0  0
   39.6905   30.8222   49.5128 H   0  0  0  0  0  0  0  0  0  0  0  0
  1  2  1  0
  2  3  1  0
  2  4  2  0
  1  5  1  0
  1  6  1  0
  1  7  1  0
  3  8  1  0
  3  9  1  0
  3 10  1  0
M  END
>  <ID>  (15) 
Pocket2Mol_22_0

>  <docking_score>  (15) 
-3.201

$$$$
Pocket2Mol_23
     RDKit          3D

 14 14  0  0  0  0  0  0  0  0999 V2000
   39.5060   28.1750   50.8020 C   0  0  0  0  0  0  0  0  0  0  0  0
   38.7370   27.5570   51.8350 C   0  0  0  0  0  0  0  0  0  0  0  0
   37.6190   28.1670   52.1460 O   0  0  0  0  0  0  0  0  0  0  0  0
   37.3660   27.9750   53.5480 C   0  0  0  0  0  0  0  0  0  0  0  0
   38.6120   27.3910   53.9890 C   0  0  0  0  0  0  0  0  0  0  0  0
   39.3280   27.4620   52.8400 O   0  0  0  0  0  0  0  0  0  0  0  0
   40.2880   28.8035   51.2531 H   0  0  0  0  0  0  0  0  0  0  0  0
   39.9737   27.3986   50.1787 H   0  0  0  0  0  0  0  0  0  0  0  0
   38.8485   28.7988   50.1787 H   0  0  0  0  0  0  0  0  0  0  0  0
   38.5084   26.5784   51.3878 H   0  0  0  0  0  0  0  0  0  0  0  0
   37.1687   28.9309   54.0552 H   0  0  0  0  0  0  0  0  0  0  0  0
   36.4809   27.3583   53.7634 H   0  0  0  0  0  0  0  0  0  0  0  0
   39.0752   27.9790   54.7951 H   0  0  0  0  0  0  0  0  0  0  0  0
   38.5234   26.3815   54.4168 H   0  0  0  0  0  0  0  0  0  0  0  0
  1  2  1  0
  2  3  1  0
  3  4  1  0
  4  5  1  0
  5  6  1  0
  6  2  1  0
  1  7  1  0
  1  8  1  0
  1  9  1  0
  2 10  1  0
  4 11  1  0
  4 12  1  0
  5 13  1  0
  5 14  1  0
M  END
>  <ID>  (16) 
Pocket2Mol_23_0

>  <docking_score>  (16) 
-3.848

$$$$
Pocket2Mol_24
     RDKit          3D

 11 11  0  0  0  0  0  0  0  0999 V2000
   39.6170   30.4510   53.5710 C   0  0  0  0  0  0  0  0  0  0  0  0
   39.1740   29.3510   52.6560 C   0  0  0  0  0  0  0  0  0  0  0  0
   39.8510   29.1510   51.4730 C   0  0  0  0  0  0  0  0  0  0  0  0
   39.4230   28.2190   50.8010 C   0  0  0  0  0  0  0  0  0  0  0  0
   38.4530   27.4930   51.4280 N   0  0  0  0  0  0  0  0  0  0  0  0
   38.2090   28.2250   52.8950 S   0  0  0  0  0  0  0  0  0  0  0  0
   39.4888   30.1326   54.6161 H   0  0  0  0  0  0  0  0  0  0  0  0
   40.6769   30.6786   53.3845 H   0  0  0  0  0  0  0  0  0  0  0  0
   39.0107   31.3496   53.3845 H   0  0  0  0  0  0  0  0  0  0  0  0
   40.7017   29.7734   51.1586 H   0  0  0  0  0  0  0  0  0  0  0  0
   39.7867   27.9900   49.7885 H   0  0  0  0  0  0  0  0  0  0  0  0
  1  2  1  0
  2  3  2  0
  3  4  1  0
  4  5  2  0
  5  6  1  0
  6  2  1  0
  1  7  1  0
  1  8  1  0
  1  9  1  0
  3 10  1  0
  4 11  1  0
M  END
>  <ID>  (17) 
Pocket2Mol_24_0

>  <docking_score>  (17) 
-4.094

$$$$
Pocket2Mol_25
     RDKit          3D

 16 15  0  0  0  0  0  0  0  0999 V2000
   37.2550   28.2270   53.4140 C   0  0  0  0  0  0  0  0  0  0  0  0
   37.6930   28.0870   52.1340 O   0  0  0  0  0  0  0  0  0  0  0  0
   38.9290   27.4840   51.9770 C   0  0  0  0  0  0  0  0  0  0  0  0
   39.4920   28.1430   50.7200 C   0  0  0  0  0  0  0  0  0  0  0  0
   40.0430   29.3180   51.0610 O   0  0  0  0  0  0  0  0  0  0  0  0
   40.3020   30.2540   50.3020 C   0  0  0  0  0  0  0  0  0  0  0  0
   38.0666   27.9676   54.1097 H   0  0  0  0  0  0  0  0  0  0  0  0
   36.9455   29.2688   53.5838 H   0  0  0  0  0  0  0  0  0  0  0  0
   36.3986   27.5578   53.5838 H   0  0  0  0  0  0  0  0  0  0  0  0
   39.5747   27.6794   52.8459 H   0  0  0  0  0  0  0  0  0  0  0  0
   38.8632   26.3892   51.8931 H   0  0  0  0  0  0  0  0  0  0  0  0
   40.2566   27.4918   50.2713 H   0  0  0  0  0  0  0  0  0  0  0  0
   38.6866   28.3046   49.9884 H   0  0  0  0  0  0  0  0  0  0  0  0
   40.5494   31.1479   50.8934 H   0  0  0  0  0  0  0  0  0  0  0  0
   41.1595   29.9852   49.6676 H   0  0  0  0  0  0  0  0  0  0  0  0
   39.4283   30.4642   49.6676 H   0  0  0  0  0  0  0  0  0  0  0  0
  1  2  1  0
  2  3  1  0
  3  4  1  0
  4  5  1  0
  5  6  1  0
  1  7  1  0
  1  8  1  0
  1  9  1  0
  3 10  1  0
  3 11  1  0
  4 12  1  0
  4 13  1  0
  6 14  1  0
  6 15  1  0
  6 16  1  0
M  END
>  <ID>  (18) 
Pocket2Mol_25_0

>  <docking_score>  (18) 
-3.345

$$$$
Pocket2Mol_26
     RDKit          3D

 15 15  0  0  0  0  0  0  0  0999 V2000
   38.9610   28.4830   53.3980 C   0  0  0  0  0  0  0  0  0  0  0  0
   39.2470   29.0350   52.2560 N   0  0  0  0  0  0  0  0  0  0  0  0
   39.3510   28.4430   51.0160 C   0  0  0  0  0  0  0  0  0  0  0  0
   40.1140   29.1550   50.2010 C   0  0  0  0  0  0  0  0  0  0  0  0
   40.4540   30.3650   50.7440 C   0  0  0  0  0  0  0  0  0  0  0  0
   39.9070   30.4690   52.1310 C   0  0  0  0  0  0  0  0  0  0  0  0
   39.2994   29.1361   54.2159 H   0  0  0  0  0  0  0  0  0  0  0  0
   37.8734   28.3361   53.4721 H   0  0  0  0  0  0  0  0  0  0  0  0
   39.4683   27.5098   53.4721 H   0  0  0  0  0  0  0  0  0  0  0  0
   39.7908   27.4416   51.1337 H   0  0  0  0  0  0  0  0  0  0  0  0
   38.3438   28.3793   50.5783 H   0  0  0  0  0  0  0  0  0  0  0  0
   40.4364   28.8147   49.2059 H   0  0  0  0  0  0  0  0  0  0  0  0
   41.0416   31.1437   50.2357 H   0  0  0  0  0  0  0  0  0  0  0  0
   40.7019   30.6218   52.8758 H   0  0  0  0  0  0  0  0  0  0  0  0
   39.2267   31.3157   52.3051 H   0  0  0  0  0  0  0  0  0  0  0  0
  1  2  1  0
  2  3  1  0
  3  4  1  0
  4  5  2  0
  5  6  1  0
  6  2  1  0
  1  7  1  0
  1  8  1  0
  1  9  1  0
  3 10  1  0
  3 11  1  0
  4 12  1  0
  5 13  1  0
  6 14  1  0
  6 15  1  0
M  END
>  <ID>  (19) 
Pocket2Mol_26_0

>  <docking_score>  (19) 
-3.979

$$$$
Pocket2Mol_27
     RDKit          3D

 15 15  0  0  0  0  0  0  0  0999 V2000
   39.4560   30.5820   54.1020 C   0  0  0  0  0  0  0  0  0  0  0  0
   39.6340   29.9730   52.7110 C   0  0  0  0  0  0  0  0  0  0  0  0
   39.1550   28.6240   52.6020 C   0  0  0  0  0  0  0  0  0  0  0  0
   39.1220   28.0890   51.3680 C   0  0  0  0  0  0  0  0  0  0  0  0
   39.7930   28.6680   50.3360 C   0  0  0  0  0  0  0  0  0  0  0  0
   40.3160   30.0410   50.6460 C   0  0  0  0  0  0  0  0  0  0  0  0
   40.1730   30.6110   51.7500 C   0  0  0  0  0  0  0  0  0  0  0  0
   39.6780   29.8224   54.8660 H   0  0  0  0  0  0  0  0  0  0  0  0
   40.1430   31.4329   54.2204 H   0  0  0  0  0  0  0  0  0  0  0  0
   38.4189   30.9289   54.2204 H   0  0  0  0  0  0  0  0  0  0  0  0
   38.8304   28.0548   53.4855 H   0  0  0  0  0  0  0  0  0  0  0  0
   38.5440   27.1700   51.1910 H   0  0  0  0  0  0  0  0  0  0  0  0
   39.9391   28.1754   49.3634 H   0  0  0  0  0  0  0  0  0  0  0  0
   40.8580   30.5782   49.8538 H   0  0  0  0  0  0  0  0  0  0  0  0
   40.5083   31.6494   51.8889 H   0  0  0  0  0  0  0  0  0  0  0  0
  1  2  1  0
  2  3  2  0
  3  4  1  0
  4  5  2  0
  5  6  1  0
  6  7  2  0
  7  2  1  0
  1  8  1  0
  1  9  1  0
  1 10  1  0
  3 11  1  0
  4 12  1  0
  5 13  1  0
  6 14  1  0
  7 15  1  0
M  END
>  <ID>  (20) 
Pocket2Mol_27_0

>  <docking_score>  (20) 
-5.655

$$$$
Pocket2Mol_28
     RDKit          3D

 13 13  0  0  0  0  0  0  0  0999 V2000
   37.6880   27.6980   52.1710 O   0  0  0  0  0  0  0  0  0  0  0  0
   38.7210   28.4750   51.8380 C   0  0  0  0  0  0  0  0  0  0  0  0
   39.4580   28.0950   50.6520 C   0  0  0  0  0  0  0  0  0  0  0  0
   39.9670   29.3770   50.0340 O   0  0  0  0  0  0  0  0  0  0  0  0
   40.6530   30.2640   50.9930 C   0  0  0  0  0  0  0  0  0  0  0  0
   39.8020   30.5190   52.2470 C   0  0  0  0  0  0  0  0  0  0  0  0
   39.2650   29.2390   52.6500 O   0  0  0  0  0  0  0  0  0  0  0  0
   40.3012   27.4421   50.9215 H   0  0  0  0  0  0  0  0  0  0  0  0
   38.8204   27.5399   49.9482 H   0  0  0  0  0  0  0  0  0  0  0  0
   41.6010   29.7952   51.2957 H   0  0  0  0  0  0  0  0  0  0  0  0
   40.8290   31.2304   50.4980 H   0  0  0  0  0  0  0  0  0  0  0  0
   40.4259   30.9385   53.0500 H   0  0  0  0  0  0  0  0  0  0  0  0
   38.9967   31.2391   52.0398 H   0  0  0  0  0  0  0  0  0  0  0  0
  1  2  2  0
  2  3  1  0
  3  4  1  0
  4  5  1  0
  5  6  1  0
  6  7  1  0
  7  2  1  0
  3  8  1  0
  3  9  1  0
  5 10  1  0
  5 11  1  0
  6 12  1  0
  6 13  1  0
M  END
>  <ID>  (21) 
Pocket2Mol_28_0

>  <docking_score>  (21) 
-4.157

$$$$
Pocket2Mol_29
     RDKit          3D

 13 13  0  0  0  0  0  0  0  0999 V2000
   38.0650   27.4630   52.4860 O   0  0  0  0  0  0  0  0  0  0  0  0
   38.9570   28.5790   51.9330 C   0  0  0  0  0  0  0  0  0  0  0  0
   39.3500   29.6690   52.5370 C   0  0  0  0  0  0  0  0  0  0  0  0
   40.0690   30.5110   52.0090 C   0  0  0  0  0  0  0  0  0  0  0  0
   40.5750   30.3440   50.7340 C   0  0  0  0  0  0  0  0  0  0  0  0
   40.1040   29.0210   50.1210 C   0  0  0  0  0  0  0  0  0  0  0  0
   39.4050   28.2500   50.6970 C   0  0  0  0  0  0  0  0  0  0  0  0
   37.1380   27.6640   52.7680 H   0  0  0  0  0  0  0  0  0  0  0  0
   39.0191   29.8403   53.5720 H   0  0  0  0  0  0  0  0  0  0  0  0
   40.3183   31.4257   52.5668 H   0  0  0  0  0  0  0  0  0  0  0  0
   41.2303   31.0665   50.2255 H   0  0  0  0  0  0  0  0  0  0  0  0
   40.4278   28.7724   49.0995 H   0  0  0  0  0  0  0  0  0  0  0  0
   39.1281   27.2903   50.2362 H   0  0  0  0  0  0  0  0  0  0  0  0
  1  2  1  0
  2  3  2  0
  3  4  1  0
  4  5  2  0
  5  6  1  0
  6  7  2  0
  7  2  1  0
  1  8  1  0
  3  9  1  0
  4 10  1  0
  5 11  1  0
  6 12  1  0
  7 13  1  0
M  END
>  <ID>  (22) 
Pocket2Mol_29_0

>  <docking_score>  (22) 
-5.231

$$$$
Pocket2Mol_2
     RDKit          3D

 15 14  0  0  0  0  0  0  0  0999 V2000
   40.5490   30.3330   50.1120 C   0  0  0  0  0  0  0  0  0  0  0  0
   40.1880   30.3580   51.4510 C   0  0  0  0  0  0  0  0  0  0  0  0
   39.5580   29.2380   51.7990 C   0  0  0  0  0  0  0  0  0  0  0  0
   39.4830   28.1920   50.7050 C   0  0  0  0  0  0  0  0  0  0  0  0
   38.6450   27.1150   51.0970 O   0  0  0  0  0  0  0  0  0  0  0  0
   41.6432   30.2572   50.0286 H   0  0  0  0  0  0  0  0  0  0  0  0
   40.0830   29.4650   49.6227 H   0  0  0  0  0  0  0  0  0  0  0  0
   40.2071   31.2570   49.6227 H   0  0  0  0  0  0  0  0  0  0  0  0
   41.0941   30.4661   52.0653 H   0  0  0  0  0  0  0  0  0  0  0  0
   39.5070   31.2065   51.6132 H   0  0  0  0  0  0  0  0  0  0  0  0
   40.0869   28.7992   52.6579 H   0  0  0  0  0  0  0  0  0  0  0  0
   38.5210   29.5221   52.0311 H   0  0  0  0  0  0  0  0  0  0  0  0
   39.0763   28.6524   49.7925 H   0  0  0  0  0  0  0  0  0  0  0  0
   40.4947   27.8029   50.5178 H   0  0  0  0  0  0  0  0  0  0  0  0
   38.3070   26.6500   50.2910 H   0  0  0  0  0  0  0  0  0  0  0  0
  1  2  1  0
  2  3  1  0
  3  4  1  0
  4  5  1  0
  1  6  1  0
  1  7  1  0
  1  8  1  0
  2  9  1  0
  2 10  1  0
  3 11  1  0
  3 12  1  0
  4 13  1  0
  4 14  1  0
  5 15  1  0
M  END
>  <ID>  (23) 
Pocket2Mol_2_0

>  <docking_score>  (23) 
-3.96

$$$$
Pocket2Mol_30
     RDKit          3D

 14 14  0  0  0  0  0  0  0  0999 V2000
   38.0530   27.5620   52.6650 N   0  0  0  0  0  0  0  0  0  0  0  0
   39.0160   28.4360   51.9400 C   0  0  0  0  0  0  0  0  0  0  0  0
   39.4520   28.2850   50.6990 C   0  0  0  0  0  0  0  0  0  0  0  0
   40.0490   29.1580   50.2450 C   0  0  0  0  0  0  0  0  0  0  0  0
   40.5390   30.2610   50.7800 C   0  0  0  0  0  0  0  0  0  0  0  0
   40.0680   30.5330   52.0640 C   0  0  0  0  0  0  0  0  0  0  0  0
   39.2690   29.6250   52.6820 C   0  0  0  0  0  0  0  0  0  0  0  0
   38.3650   27.0230   53.4850 H   0  0  0  0  0  0  0  0  0  0  0  0
   37.0760   27.4960   52.3460 H   0  0  0  0  0  0  0  0  0  0  0  0
   39.2526   27.3665   50.1276 H   0  0  0  0  0  0  0  0  0  0  0  0
   40.2477   29.0544   49.1681 H   0  0  0  0  0  0  0  0  0  0  0  0
   41.2573   30.9099   50.2576 H   0  0  0  0  0  0  0  0  0  0  0  0
   40.3401   31.4711   52.5700 H   0  0  0  0  0  0  0  0  0  0  0  0
   38.8476   29.7957   53.6836 H   0  0  0  0  0  0  0  0  0  0  0  0
  1  2  1  0
  2  3  2  0
  3  4  1  0
  4  5  2  0
  5  6  1  0
  6  7  2  0
  7  2  1  0
  1  8  1  0
  1  9  1  0
  3 10  1  0
  4 11  1  0
  5 12  1  0
  6 13  1  0
  7 14  1  0
M  END
>  <ID>  (24) 
Pocket2Mol_30_0

>  <docking_score>  (24) 
-5.301

$$$$
Pocket2Mol_31
     RDKit          3D

 17 17  0  0  0  0  0  0  0  0999 V2000
   37.8530   27.8110   51.8810 O   0  0  0  0  0  0  0  0  0  0  0  0
   38.9920   28.5190   51.7780 C   0  0  0  0  0  0  0  0  0  0  0  0
   39.4520   29.3460   52.5950 C   0  0  0  0  0  0  0  0  0  0  0  0
   39.8310   30.4600   52.0380 C   0  0  0  0  0  0  0  0  0  0  0  0
   40.7900   30.2620   50.9260 C   0  0  0  0  0  0  0  0  0  0  0  0
   40.0510   29.5690   49.9960 C   0  0  0  0  0  0  0  0  0  0  0  0
   39.6450   28.2980   50.6080 C   0  0  0  0  0  0  0  0  0  0  0  0
   38.6735   29.5737   53.3380 H   0  0  0  0  0  0  0  0  0  0  0  0
   40.3416   28.8911   53.0552 H   0  0  0  0  0  0  0  0  0  0  0  0
   38.9416   30.9741   51.6448 H   0  0  0  0  0  0  0  0  0  0  0  0
   40.3444   31.0523   52.8098 H   0  0  0  0  0  0  0  0  0  0  0  0
   41.1297   31.2267   50.5211 H   0  0  0  0  0  0  0  0  0  0  0  0
   41.7043   29.7330   51.2328 H   0  0  0  0  0  0  0  0  0  0  0  0
   39.1609   30.1511   49.7151 H   0  0  0  0  0  0  0  0  0  0  0  0
   40.6452   29.3878   49.0882 H   0  0  0  0  0  0  0  0  0  0  0  0
   38.9782   27.7608   49.9175 H   0  0  0  0  0  0  0  0  0  0  0  0
   40.5446   27.6984   50.8112 H   0  0  0  0  0  0  0  0  0  0  0  0
  1  2  2  0
  2  3  1  0
  3  4  1  0
  4  5  1  0
  5  6  1  0
  6  7  1  0
  7  2  1  0
  3  8  1  0
  3  9  1  0
  4 10  1  0
  4 11  1  0
  5 12  1  0
  5 13  1  0
  6 14  1  0
  6 15  1  0
  7 16  1  0
  7 17  1  0
M  END
>  <ID>  (25) 
Pocket2Mol_31_0

>  <docking_score>  (25) 
-5.613

$$$$
Pocket2Mol_32
     RDKit          3D

 15 15  0  0  0  0  0  0  0  0999 V2000
   38.6150   27.2320   50.6490 O   0  0  0  0  0  0  0  0  0  0  0  0
   39.3610   27.4390   51.7680 C   0  0  0  0  0  0  0  0  0  0  0  0
   38.5860   28.5320   52.4830 C   0  0  0  0  0  0  0  0  0  0  0  0
   39.0160   28.7520   53.6420 O   0  0  0  0  0  0  0  0  0  0  0  0
   38.2460   28.2670   54.5850 C   0  0  0  0  0  0  0  0  0  0  0  0
   37.3830   27.4940   53.8300 C   0  0  0  0  0  0  0  0  0  0  0  0
   37.0820   28.1620   52.6040 O   0  0  0  0  0  0  0  0  0  0  0  0
   37.9460   27.9550   50.5590 H   0  0  0  0  0  0  0  0  0  0  0  0
   39.4195   26.5274   52.3809 H   0  0  0  0  0  0  0  0  0  0  0  0
   40.4054   27.7103   51.5545 H   0  0  0  0  0  0  0  0  0  0  0  0
   38.7192   29.4360   51.8706 H   0  0  0  0  0  0  0  0  0  0  0  0
   38.8159   27.6577   55.3019 H   0  0  0  0  0  0  0  0  0  0  0  0
   37.7542   29.0255   55.2118 H   0  0  0  0  0  0  0  0  0  0  0  0
   37.8565   26.5255   53.6115 H   0  0  0  0  0  0  0  0  0  0  0  0
   36.4523   27.3327   54.3937 H   0  0  0  0  0  0  0  0  0  0  0  0
  1  2  1  0
  2  3  1  0
  3  4  1  0
  4  5  1  0
  5  6  1  0
  6  7  1  0
  7  3  1  0
  1  8  1  0
  2  9  1  0
  2 10  1  0
  3 11  1  0
  5 12  1  0
  5 13  1  0
  6 14  1  0
  6 15  1  0
M  END
>  <ID>  (26) 
Pocket2Mol_32_0

>  <docking_score>  (26) 
-3.89

$$$$
Pocket2Mol_33
     RDKit          3D

 10  9  0  0  0  0  0  0  0  0999 V2000
   37.2550   34.9370   47.9670 O   0  0  0  0  0  0  0  0  0  0  0  0
   38.4320   34.6680   48.0550 C   0  0  0  0  0  0  0  0  0  0  0  0
   39.2190   35.6110   47.3630 C   0  0  0  0  0  0  0  0  0  0  0  0
   38.7890   35.9040   46.2690 O   0  0  0  0  0  0  0  0  0  0  0  0
   37.1000   35.4880   47.1590 H   0  0  0  0  0  0  0  0  0  0  0  0
   38.7223   34.6666   49.1160 H   0  0  0  0  0  0  0  0  0  0  0  0
   38.5992   33.6768   47.6083 H   0  0  0  0  0  0  0  0  0  0  0  0
   39.2743   36.5270   47.9696 H   0  0  0  0  0  0  0  0  0  0  0  0
   40.2040   35.1479   47.2041 H   0  0  0  0  0  0  0  0  0  0  0  0
   38.4890   35.0840   45.8020 H   0  0  0  0  0  0  0  0  0  0  0  0
  1  2  1  0
  2  3  1  0
  3  4  1  0
  1  5  1  0
  2  6  1  0
  2  7  1  0
  3  8  1  0
  3  9  1  0
  4 10  1  0
M  END
>  <ID>  (27) 
Pocket2Mol_33_0

>  <docking_score>  (27) 
-3.466

$$$$
Pocket2Mol_34
     RDKit          3D

 12 12  0  0  0  0  0  0  0  0999 V2000
   41.1150   30.5940   49.8160 F   0  0  0  0  0  0  0  0  0  0  0  0
   40.3190   29.8740   50.7880 C   0  0  0  0  0  0  0  0  0  0  0  0
   39.8150   28.6320   50.6510 C   0  0  0  0  0  0  0  0  0  0  0  0
   39.2520   27.9600   51.3960 C   0  0  0  0  0  0  0  0  0  0  0  0
   38.9990   28.4670   52.5910 C   0  0  0  0  0  0  0  0  0  0  0  0
   39.3750   29.8220   52.9400 C   0  0  0  0  0  0  0  0  0  0  0  0
   40.0640   30.4980   52.0100 C   0  0  0  0  0  0  0  0  0  0  0  0
   39.9678   28.1844   49.6579 H   0  0  0  0  0  0  0  0  0  0  0  0
   38.9380   26.9408   51.1263 H   0  0  0  0  0  0  0  0  0  0  0  0
   38.4894   27.8432   53.3401 H   0  0  0  0  0  0  0  0  0  0  0  0
   39.1109   30.2690   53.9098 H   0  0  0  0  0  0  0  0  0  0  0  0
   40.4200   31.5203   52.2053 H   0  0  0  0  0  0  0  0  0  0  0  0
  1  2  1  0
  2  3  2  0
  3  4  1  0
  4  5  2  0
  5  6  1  0
  6  7  2  0
  7  2  1  0
  3  8  1  0
  4  9  1  0
  5 10  1  0
  6 11  1  0
  7 12  1  0
M  END
>  <ID>  (28) 
Pocket2Mol_34_0

>  <docking_score>  (28) 
-5.438

$$$$
Pocket2Mol_35
     RDKit          3D

 17 17  0  0  0  0  0  0  0  0999 V2000
   40.2760   30.3690   50.7250 C   0  0  0  0  0  0  0  0  0  0  0  0
   40.1690   29.1330   50.1970 C   0  0  0  0  0  0  0  0  0  0  0  0
   39.9130   28.2160   51.1680 O   0  0  0  0  0  0  0  0  0  0  0  0
   38.6770   28.3110   51.7830 C   0  0  0  0  0  0  0  0  0  0  0  0
   39.0170   28.7550   53.2040 C   0  0  0  0  0  0  0  0  0  0  0  0
   39.5630   29.9790   53.1520 O   0  0  0  0  0  0  0  0  0  0  0  0
   39.9010   30.5280   52.0450 C   0  0  0  0  0  0  0  0  0  0  0  0
   41.3296   30.6740   50.6416 H   0  0  0  0  0  0  0  0  0  0  0  0
   39.5649   30.9833   50.1531 H   0  0  0  0  0  0  0  0  0  0  0  0
   39.3478   29.1228   49.4652 H   0  0  0  0  0  0  0  0  0  0  0  0
   41.1195   28.8740   49.7077 H   0  0  0  0  0  0  0  0  0  0  0  0
   38.0439   29.0563   51.2794 H   0  0  0  0  0  0  0  0  0  0  0  0
   38.1109   27.3683   51.7534 H   0  0  0  0  0  0  0  0  0  0  0  0
   38.1009   28.7837   53.8122 H   0  0  0  0  0  0  0  0  0  0  0  0
   39.7255   28.0471   53.6589 H   0  0  0  0  0  0  0  0  0  0  0  0
   39.0297   31.1840   51.9017 H   0  0  0  0  0  0  0  0  0  0  0  0
   40.9573   30.4571   52.3435 H   0  0  0  0  0  0  0  0  0  0  0  0
  1  2  1  0
  2  3  1  0
  3  4  1  0
  4  5  1  0
  5  6  1  0
  6  7  1  0
  7  1  1  0
  1  8  1  0
  1  9  1  0
  2 10  1  0
  2 11  1  0
  4 12  1  0
  4 13  1  0
  5 14  1  0
  5 15  1  0
  7 16  1  0
  7 17  1  0
M  END
>  <ID>  (29) 
Pocket2Mol_35_0

>  <docking_score>  (29) 
-4.112

$$$$
Pocket2Mol_36
     RDKit          3D

 19 19  0  0  0  0  0  0  0  0999 V2000
   38.6620   27.1680   51.0600 O   0  0  0  0  0  0  0  0  0  0  0  0
   39.1610   28.2030   51.2570 C   0  0  0  0  0  0  0  0  0  0  0  0
   39.8400   28.9360   50.3130 C   0  0  0  0  0  0  0  0  0  0  0  0
   39.9710   30.3520   50.6840 C   0  0  0  0  0  0  0  0  0  0  0  0
   40.2570   30.4910   51.9490 C   0  0  0  0  0  0  0  0  0  0  0  0
   39.3070   29.8260   52.7750 C   0  0  0  0  0  0  0  0  0  0  0  0
   39.2270   28.5800   52.4890 C   0  0  0  0  0  0  0  0  0  0  0  0
   39.3630   26.4940   50.8750 H   0  0  0  0  0  0  0  0  0  0  0  0
   38.3835   28.6169   50.5981 H   0  0  0  0  0  0  0  0  0  0  0  0
   40.8465   28.5089   50.1922 H   0  0  0  0  0  0  0  0  0  0  0  0
   39.2642   28.8887   49.3769 H   0  0  0  0  0  0  0  0  0  0  0  0
   40.7738   30.8057   50.0843 H   0  0  0  0  0  0  0  0  0  0  0  0
   39.0089   30.8493   50.4914 H   0  0  0  0  0  0  0  0  0  0  0  0
   41.2542   30.0672   52.1386 H   0  0  0  0  0  0  0  0  0  0  0  0
   40.2346   31.5636   52.1920 H   0  0  0  0  0  0  0  0  0  0  0  0
   39.6112   29.9325   53.8267 H   0  0  0  0  0  0  0  0  0  0  0  0
   38.3212   30.2833   52.6043 H   0  0  0  0  0  0  0  0  0  0  0  0
   40.1160   28.0975   52.9213 H   0  0  0  0  0  0  0  0  0  0  0  0
   38.2462   28.2905   52.8944 H   0  0  0  0  0  0  0  0  0  0  0  0
  1  2  1  0
  2  3  1  0
  3  4  1  0
  4  5  1  0
  5  6  1  0
  6  7  1  0
  7  2  1  0
  1  8  1  0
  2  9  1  0
  3 10  1  0
  3 11  1  0
  4 12  1  0
  4 13  1  0
  5 14  1  0
  5 15  1  0
  6 16  1  0
  6 17  1  0
  7 18  1  0
  7 19  1  0
M  END
>  <ID>  (30) 
Pocket2Mol_36_0

>  <docking_score>  (30) 
-5.259

$$$$
Pocket2Mol_37
     RDKit          3D

 11 11  0  0  0  0  0  0  0  0999 V2000
   37.8590   27.6110   51.8910 O   0  0  0  0  0  0  0  0  0  0  0  0
   38.9300   28.4060   51.8590 C   0  0  0  0  0  0  0  0  0  0  0  0
   39.6450   28.4370   50.5940 C   0  0  0  0  0  0  0  0  0  0  0  0
   40.1600   29.5160   50.2790 C   0  0  0  0  0  0  0  0  0  0  0  0
   40.2580   30.4800   51.1550 C   0  0  0  0  0  0  0  0  0  0  0  0
   39.8070   30.4810   52.5260 C   0  0  0  0  0  0  0  0  0  0  0  0
   39.1980   29.1950   52.7800 O   0  0  0  0  0  0  0  0  0  0  0  0
   39.7238   27.5479   49.9511 H   0  0  0  0  0  0  0  0  0  0  0  0
   40.5373   29.6648   49.2565 H   0  0  0  0  0  0  0  0  0  0  0  0
   40.7432   31.4032   50.8053 H   0  0  0  0  0  0  0  0  0  0  0  0
   39.9080   31.3076   53.2447 H   0  0  0  0  0  0  0  0  0  0  0  0
  1  2  2  0
  2  3  1  0
  3  4  2  0
  4  5  1  0
  5  6  2  0
  6  7  1  0
  7  2  1  0
  3  8  1  0
  4  9  1  0
  5 10  1  0
  6 11  1  0
M  END
>  <ID>  (31) 
Pocket2Mol_37_0

>  <docking_score>  (31) 
-5.254

$$$$
Pocket2Mol_38
     RDKit          3D

 17 17  0  0  0  0  0  0  0  0999 V2000
   38.1370   27.5370   52.1300 O   0  0  0  0  0  0  0  0  0  0  0  0
   39.0610   28.3720   51.5980 C   0  0  0  0  0  0  0  0  0  0  0  0
   39.3640   29.3850   52.4200 C   0  0  0  0  0  0  0  0  0  0  0  0
   40.0460   30.5760   51.9500 C   0  0  0  0  0  0  0  0  0  0  0  0
   40.5350   30.2170   50.7940 C   0  0  0  0  0  0  0  0  0  0  0  0
   39.8350   29.0960   50.2690 C   0  0  0  0  0  0  0  0  0  0  0  0
   39.6610   27.9720   50.8710 C   0  0  0  0  0  0  0  0  0  0  0  0
   37.6680   27.7860   52.9650 H   0  0  0  0  0  0  0  0  0  0  0  0
   39.0877   29.3118   53.4822 H   0  0  0  0  0  0  0  0  0  0  0  0
   39.3407   31.4122   51.8349 H   0  0  0  0  0  0  0  0  0  0  0  0
   40.8190   30.9283   52.6489 H   0  0  0  0  0  0  0  0  0  0  0  0
   40.4472   31.0576   50.0899 H   0  0  0  0  0  0  0  0  0  0  0  0
   41.5899   29.9375   50.9320 H   0  0  0  0  0  0  0  0  0  0  0  0
   38.8232   29.4647   50.0446 H   0  0  0  0  0  0  0  0  0  0  0  0
   40.5360   28.7845   49.4806 H   0  0  0  0  0  0  0  0  0  0  0  0
   39.1481   27.2230   50.2499 H   0  0  0  0  0  0  0  0  0  0  0  0
   40.5509   27.4062   51.1839 H   0  0  0  0  0  0  0  0  0  0  0  0
  1  2  1  0
  2  3  2  0
  3  4  1  0
  4  5  1  0
  5  6  1  0
  6  7  1  0
  7  2  1  0
  1  8  1  0
  3  9  1  0
  4 10  1  0
  4 11  1  0
  5 12  1  0
  5 13  1  0
  6 14  1  0
  6 15  1  0
  7 16  1  0
  7 17  1  0
M  END
>  <ID>  (32) 
Pocket2Mol_38_0

>  <docking_score>  (32) 
-5.471

$$$$
Pocket2Mol_39
     RDKit          3D

 15 15  0  0  0  0  0  0  0  0999 V2000
   39.0260   27.8410   51.0530 C   0  0  0  0  0  0  0  0  0  0  0  0
   38.4100   28.1630   52.3200 C   0  0  0  0  0  0  0  0  0  0  0  0
   39.2000   28.5750   53.2690 O   0  0  0  0  0  0  0  0  0  0  0  0
   39.3830   30.1070   53.2100 C   0  0  0  0  0  0  0  0  0  0  0  0
   40.1570   30.7210   51.9940 O   0  0  0  0  0  0  0  0  0  0  0  0
   39.9850   29.9320   50.7750 C   0  0  0  0  0  0  0  0  0  0  0  0
   40.1500   28.7370   51.0440 O   0  0  0  0  0  0  0  0  0  0  0  0
   39.3496   26.7902   51.0192 H   0  0  0  0  0  0  0  0  0  0  0  0
   38.3563   27.9534   50.1876 H   0  0  0  0  0  0  0  0  0  0  0  0
   37.6680   28.9544   52.1377 H   0  0  0  0  0  0  0  0  0  0  0  0
   37.9914   27.2139   52.6859 H   0  0  0  0  0  0  0  0  0  0  0  0
   38.3782   30.5545   53.2148 H   0  0  0  0  0  0  0  0  0  0  0  0
   40.0193   30.3359   54.0776 H   0  0  0  0  0  0  0  0  0  0  0  0
   38.9709   30.0841   50.3769 H   0  0  0  0  0  0  0  0  0  0  0  0
   40.7196   30.2485   50.0199 H   0  0  0  0  0  0  0  0  0  0  0  0
  1  2  1  0
  2  3  1  0
  3  4  1  0
  4  5  1  0
  5  6  1  0
  6  7  1  0
  7  1  1  0
  1  8  1  0
  1  9  1  0
  2 10  1  0
  2 11  1  0
  4 12  1  0
  4 13  1  0
  6 14  1  0
  6 15  1  0
M  END
>  <ID>  (33) 
Pocket2Mol_39_0

>  <docking_score>  (33) 
-3.817

$$$$
Pocket2Mol_3
     RDKit          3D

  9  9  0  0  0  0  0  0  0  0999 V2000
   40.3360   30.2450   50.4080 C   0  0  0  0  0  0  0  0  0  0  0  0
   39.7850   28.7080   50.5380 C   0  0  0  0  0  0  0  0  0  0  0  0
   39.1850   28.5220   51.6770 C   0  0  0  0  0  0  0  0  0  0  0  0
   39.3980   29.6270   52.2730 O   0  0  0  0  0  0  0  0  0  0  0  0
   40.1140   30.4480   51.7450 C   0  0  0  0  0  0  0  0  0  0  0  0
   40.7250   30.8619   49.5845 H   0  0  0  0  0  0  0  0  0  0  0  0
   39.9063   27.9354   49.7645 H   0  0  0  0  0  0  0  0  0  0  0  0
   38.6354   27.6383   52.0334 H   0  0  0  0  0  0  0  0  0  0  0  0
   40.5529   31.2926   52.2964 H   0  0  0  0  0  0  0  0  0  0  0  0
  1  2  1  0
  2  3  2  0
  3  4  1  0
  4  5  1  0
  5  1  2  0
  1  6  1  0
  2  7  1  0
  3  8  1  0
  5  9  1  0
M  END
>  <ID>  (34) 
Pocket2Mol_3_0

>  <docking_score>  (34) 
-3.617

$$$$
Pocket2Mol_40
     RDKit          3D

 12 12  0  0  0  0  0  0  0  0999 V2000
   40.3630   30.2510   50.2130 C   0  0  0  0  0  0  0  0  0  0  0  0
   39.7750   29.6840   51.4690 C   0  0  0  0  0  0  0  0  0  0  0  0
   39.7910   30.4440   52.6170 C   0  0  0  0  0  0  0  0  0  0  0  0
   39.2740   29.8990   53.5860 C   0  0  0  0  0  0  0  0  0  0  0  0
   38.6730   28.7100   53.2900 N   0  0  0  0  0  0  0  0  0  0  0  0
   38.7850   28.3870   51.8280 C   0  0  0  0  0  0  0  0  0  0  0  0
   38.4820   27.6040   51.1090 O   0  0  0  0  0  0  0  0  0  0  0  0
   41.1327   30.9932   50.4710 H   0  0  0  0  0  0  0  0  0  0  0  0
   40.8174   29.4415   49.6229 H   0  0  0  0  0  0  0  0  0  0  0  0
   39.5705   30.7345   49.6229 H   0  0  0  0  0  0  0  0  0  0  0  0
   40.2293   31.4520   52.6610 H   0  0  0  0  0  0  0  0  0  0  0  0
   39.2928   30.3280   54.5987 H   0  0  0  0  0  0  0  0  0  0  0  0
  1  2  1  0
  2  3  2  0
  3  4  1  0
  4  5  2  0
  5  6  1  0
  6  7  2  0
  6  2  1  0
  1  8  1  0
  1  9  1  0
  1 10  1  0
  3 11  1  0
  4 12  1  0
M  END
>  <ID>  (35) 
Pocket2Mol_40_0

>  <docking_score>  (35) 
-5.111

$$$$
Pocket2Mol_41
     RDKit          3D

 15 15  0  0  0  0  0  0  0  0999 V2000
   37.9960   27.2050   53.8880 C   0  0  0  0  0  0  0  0  0  0  0  0
   38.7240   28.0450   52.8460 C   0  0  0  0  0  0  0  0  0  0  0  0
   38.9150   27.4450   51.6160 C   0  0  0  0  0  0  0  0  0  0  0  0
   39.4850   28.1970   50.7540 C   0  0  0  0  0  0  0  0  0  0  0  0
   39.9250   29.3790   51.1930 C   0  0  0  0  0  0  0  0  0  0  0  0
   40.6820   30.3800   50.2730 C   0  0  0  0  0  0  0  0  0  0  0  0
   39.1590   29.4480   53.0060 S   0  0  0  0  0  0  0  0  0  0  0  0
   38.2853   27.5388   54.8954 H   0  0  0  0  0  0  0  0  0  0  0  0
   36.9098   27.3231   53.7605 H   0  0  0  0  0  0  0  0  0  0  0  0
   38.2673   26.1466   53.7605 H   0  0  0  0  0  0  0  0  0  0  0  0
   38.6043   26.4125   51.3982 H   0  0  0  0  0  0  0  0  0  0  0  0
   39.6068   27.8869   49.7057 H   0  0  0  0  0  0  0  0  0  0  0  0
   41.2302   31.1049   50.8926 H   0  0  0  0  0  0  0  0  0  0  0  0
   41.3918   29.8296   49.6380 H   0  0  0  0  0  0  0  0  0  0  0  0
   39.9591   30.9131   49.6380 H   0  0  0  0  0  0  0  0  0  0  0  0
  1  2  1  0
  2  3  2  0
  3  4  1  0
  4  5  2  0
  5  6  1  0
  5  7  1  0
  7  2  1  0
  1  8  1  0
  1  9  1  0
  1 10  1  0
  3 11  1  0
  4 12  1  0
  6 13  1  0
  6 14  1  0
  6 15  1  0
M  END
>  <ID>  (36) 
Pocket2Mol_41_0

>  <docking_score>  (36) 
-5.104

$$$$
Pocket2Mol_42
     RDKit          3D

 10  9  0  0  0  0  0  0  0  0999 V2000
   39.0520   35.5160   46.6260 C   0  0  0  0  0  0  0  0  0  0  0  0
   37.9890   35.0030   47.4600 O   0  0  0  0  0  0  0  0  0  0  0  0
   38.2160   34.5090   48.5770 C   0  0  0  0  0  0  0  0  0  0  0  0
   38.4340   33.3040   48.8100 O   0  0  0  0  0  0  0  0  0  0  0  0
   37.6540   35.2180   49.7490 C   0  0  0  0  0  0  0  0  0  0  0  0
   36.5520   34.6430   50.2530 O   0  0  0  0  0  0  0  0  0  0  0  0
   37.8930   36.5920   49.8780 O   0  0  0  0  0  0  0  0  0  0  0  0
   39.8607   35.9063   47.2614 H   0  0  0  0  0  0  0  0  0  0  0  0
   39.4426   34.7072   45.9909 H   0  0  0  0  0  0  0  0  0  0  0  0
   38.6618   36.3250   45.9909 H   0  0  0  0  0  0  0  0  0  0  0  0
  1  2  1  0
  2  3  1  0
  3  4  2  0
  3  5  1  0
  5  6  2  0
  5  7  1  0
  1  8  1  0
  1  9  1  0
  1 10  1  0
M  CHG  1   7  -1
M  END
>  <ID>  (37) 
Pocket2Mol_42_0

>  <docking_score>  (37) 
-4.087

$$$$
Pocket2Mol_43
     RDKit          3D

 15 15  0  0  0  0  0  0  0  0999 V2000
   40.1760   30.4440   50.7210 C   0  0  0  0  0  0  0  0  0  0  0  0
   40.1610   29.2100   50.1760 C   0  0  0  0  0  0  0  0  0  0  0  0
   39.9550   28.2650   51.1320 O   0  0  0  0  0  0  0  0  0  0  0  0
   38.7070   28.2670   51.7310 C   0  0  0  0  0  0  0  0  0  0  0  0
   38.9960   28.7140   53.1620 C   0  0  0  0  0  0  0  0  0  0  0  0
   39.4580   29.9730   53.1330 O   0  0  0  0  0  0  0  0  0  0  0  0
   39.9160   30.5150   52.1630 C   0  0  0  0  0  0  0  0  0  0  0  0
   40.3717   31.3440   50.1195 H   0  0  0  0  0  0  0  0  0  0  0  0
   40.2968   28.9974   49.1053 H   0  0  0  0  0  0  0  0  0  0  0  0
   38.0310   28.9739   51.2277 H   0  0  0  0  0  0  0  0  0  0  0  0
   38.2078   27.2880   51.6817 H   0  0  0  0  0  0  0  0  0  0  0  0
   38.0717   28.6723   53.7569 H   0  0  0  0  0  0  0  0  0  0  0  0
   39.7446   28.0499   53.6188 H   0  0  0  0  0  0  0  0  0  0  0  0
   39.3479   31.4563   52.1975 H   0  0  0  0  0  0  0  0  0  0  0  0
   40.8864   30.0350   52.3577 H   0  0  0  0  0  0  0  0  0  0  0  0
  1  2  2  0
  2  3  1  0
  3  4  1  0
  4  5  1  0
  5  6  1  0
  6  7  1  0
  7  1  1  0
  1  8  1  0
  2  9  1  0
  4 10  1  0
  4 11  1  0
  5 12  1  0
  5 13  1  0
  7 14  1  0
  7 15  1  0
M  END
>  <ID>  (38) 
Pocket2Mol_43_0

>  <docking_score>  (38) 
-4.132

$$$$
Pocket2Mol_44
     RDKit          3D

 10  9  0  0  0  0  0  0  0  0999 V2000
   37.7660   34.3190   48.8840 C   0  0  0  0  0  0  0  0  0  0  0  0
   37.8520   34.9790   47.8070 O   0  0  0  0  0  0  0  0  0  0  0  0
   38.9960   35.3610   47.3160 C   0  0  0  0  0  0  0  0  0  0  0  0
   38.7960   36.0010   46.0740 O   0  0  0  0  0  0  0  0  0  0  0  0
   37.8551   35.0027   49.7411 H   0  0  0  0  0  0  0  0  0  0  0  0
   36.7935   33.8065   48.9233 H   0  0  0  0  0  0  0  0  0  0  0  0
   38.5747   33.5744   48.9233 H   0  0  0  0  0  0  0  0  0  0  0  0
   39.4768   36.0619   48.0142 H   0  0  0  0  0  0  0  0  0  0  0  0
   39.6397   34.4809   47.1704 H   0  0  0  0  0  0  0  0  0  0  0  0
   38.4390   36.9120   46.2270 H   0  0  0  0  0  0  0  0  0  0  0  0
  1  2  1  0
  2  3  1  0
  3  4  1  0
  1  5  1  0
  1  6  1  0
  1  7  1  0
  3  8  1  0
  3  9  1  0
  4 10  1  0
M  END
>  <ID>  (39) 
Pocket2Mol_44_0

>  <docking_score>  (39) 
-3.376

$$$$
Pocket2Mol_45
     RDKit          3D

 15 15  0  0  0  0  0  0  0  0999 V2000
   37.9080   27.5370   52.4580 O   0  0  0  0  0  0  0  0  0  0  0  0
   38.8070   28.3970   51.9740 C   0  0  0  0  0  0  0  0  0  0  0  0
   39.3920   28.0660   50.6930 C   0  0  0  0  0  0  0  0  0  0  0  0
   40.0040   29.3500   50.0870 C   0  0  0  0  0  0  0  0  0  0  0  0
   40.7820   30.3280   51.1130 C   0  0  0  0  0  0  0  0  0  0  0  0
   39.7510   30.5340   52.2160 C   0  0  0  0  0  0  0  0  0  0  0  0
   39.3950   29.2180   52.6950 O   0  0  0  0  0  0  0  0  0  0  0  0
   40.1780   27.3085   50.8286 H   0  0  0  0  0  0  0  0  0  0  0  0
   38.6216   27.6616   50.0200 H   0  0  0  0  0  0  0  0  0  0  0  0
   40.7185   29.0451   49.3082 H   0  0  0  0  0  0  0  0  0  0  0  0
   39.1492   29.9349   49.7165 H   0  0  0  0  0  0  0  0  0  0  0  0
   41.6928   29.8509   51.5039 H   0  0  0  0  0  0  0  0  0  0  0  0
   41.1244   31.2659   50.6513 H   0  0  0  0  0  0  0  0  0  0  0  0
   40.1821   31.1319   53.0325 H   0  0  0  0  0  0  0  0  0  0  0  0
   38.8687   31.0731   51.8405 H   0  0  0  0  0  0  0  0  0  0  0  0
  1  2  2  0
  2  3  1  0
  3  4  1  0
  4  5  1  0
  5  6  1  0
  6  7  1  0
  7  2  1  0
  3  8  1  0
  3  9  1  0
  4 10  1  0
  4 11  1  0
  5 12  1  0
  5 13  1  0
  6 14  1  0
  6 15  1  0
M  END
>  <ID>  (40) 
Pocket2Mol_45_0

>  <docking_score>  (40) 
-4.792

$$$$
Pocket2Mol_46
     RDKit          3D

 12 11  0  0  0  0  0  0  0  0999 V2000
   37.0970   35.1160   50.1700 C   0  0  0  0  0  0  0  0  0  0  0  0
   37.1240   34.9760   48.7320 O   0  0  0  0  0  0  0  0  0  0  0  0
   38.0930   34.4710   48.1430 C   0  0  0  0  0  0  0  0  0  0  0  0
   38.7460   33.4810   48.5290 O   0  0  0  0  0  0  0  0  0  0  0  0
   38.8900   35.3680   47.2740 C   0  0  0  0  0  0  0  0  0  0  0  0
   38.7110   35.2870   45.8880 N   0  0  0  0  0  0  0  0  0  0  0  0
   39.2680   36.5070   47.8720 O   0  0  0  0  0  0  0  0  0  0  0  0
   37.2856   34.1382   50.6372 H   0  0  0  0  0  0  0  0  0  0  0  0
   37.8743   35.8283   50.4837 H   0  0  0  0  0  0  0  0  0  0  0  0
   36.1105   35.4881   50.4837 H   0  0  0  0  0  0  0  0  0  0  0  0
   39.2530   35.9000   45.2620 H   0  0  0  0  0  0  0  0  0  0  0  0
   38.0370   34.6150   45.4940 H   0  0  0  0  0  0  0  0  0  0  0  0
  1  2  1  0
  2  3  1  0
  3  4  2  0
  3  5  1  0
  5  6  1  0
  5  7  2  0
  1  8  1  0
  1  9  1  0
  1 10  1  0
  6 11  1  0
  6 12  1  0
M  END
>  <ID>  (41) 
Pocket2Mol_46_0

>  <docking_score>  (41) 
-4.473

$$$$
Pocket2Mol_47
     RDKit          3D

 20 20  0  0  0  0  0  0  0  0999 V2000
   40.7710   30.3750   50.3420 C   0  0  0  0  0  0  0  0  0  0  0  0
   40.1450   29.7060   51.3070 C   0  0  1  0  0  0  0  0  0  0  0  0
   39.6950   30.4670   52.5740 C   0  0  0  0  0  0  0  0  0  0  0  0
   39.3160   29.4470   53.8770 C   0  0  0  0  0  0  0  0  0  0  0  0
   38.7080   28.4490   53.3740 O   0  0  0  0  0  0  0  0  0  0  0  0
   39.4010   27.3600   52.7220 C   0  0  0  0  0  0  0  0  0  0  0  0
   38.9920   27.5380   51.3360 C   0  0  0  0  0  0  0  0  0  0  0  0
   39.0520   28.9340   51.0310 O   0  0  0  0  0  0  0  0  0  0  0  0
   41.4574   31.1085   50.7902 H   0  0  0  0  0  0  0  0  0  0  0  0
   41.3424   29.6711   49.7191 H   0  0  0  0  0  0  0  0  0  0  0  0
   40.0307   30.8984   49.7191 H   0  0  0  0  0  0  0  0  0  0  0  0
   41.0401   29.0856   51.4615 H   0  0  0  0  0  0  0  0  0  0  0  0
   40.5084   31.1398   52.8835 H   0  0  0  0  0  0  0  0  0  0  0  0
   38.7772   31.0147   52.3139 H   0  0  0  0  0  0  0  0  0  0  0  0
   40.2345   29.1187   54.3855 H   0  0  0  0  0  0  0  0  0  0  0  0
   38.6959   29.9620   54.6255 H   0  0  0  0  0  0  0  0  0  0  0  0
   40.4912   27.4544   52.8337 H   0  0  0  0  0  0  0  0  0  0  0  0
   39.1627   26.3684   53.1342 H   0  0  0  0  0  0  0  0  0  0  0  0
   39.6707   26.9819   50.6726 H   0  0  0  0  0  0  0  0  0  0  0  0
   37.9698   27.1592   51.1886 H   0  0  0  0  0  0  0  0  0  0  0  0
  1  2  1  0
  2  3  1  0
  3  4  1  0
  4  5  1  0
  5  6  1  0
  6  7  1  0
  7  8  1  0
  8  2  1  0
  1  9  1  0
  1 10  1  0
  1 11  1  0
  2 12  1  1
  3 13  1  0
  3 14  1  0
  4 15  1  0
  4 16  1  0
  6 17  1  0
  6 18  1  0
  7 19  1  0
  7 20  1  0
M  END
>  <ID>  (42) 
Pocket2Mol_47_0

>  <docking_score>  (42) 
-4.768

$$$$
Pocket2Mol_48
     RDKit          3D

 13 13  0  0  0  0  0  0  0  0999 V2000
   37.1240   28.0880   52.6280 O   0  0  0  0  0  0  0  0  0  0  0  0
   38.4020   28.0100   52.5170 C   0  0  0  0  0  0  0  0  0  0  0  0
   39.0490   27.0880   53.1440 O   0  0  0  0  0  0  0  0  0  0  0  0
   39.1260   28.6360   51.6360 C   0  0  0  0  0  0  0  0  0  0  0  0
   39.6700   28.3660   50.3850 C   0  0  0  0  0  0  0  0  0  0  0  0
   40.3960   29.3680   49.8600 C   0  0  0  0  0  0  0  0  0  0  0  0
   40.5360   30.4410   50.7640 C   0  0  0  0  0  0  0  0  0  0  0  0
   39.8380   30.1250   52.0410 C   0  0  0  0  0  0  0  0  0  0  0  0
   39.5182   27.4081   49.8661 H   0  0  0  0  0  0  0  0  0  0  0  0
   40.8282   29.3528   48.8486 H   0  0  0  0  0  0  0  0  0  0  0  0
   41.0805   31.3740   50.5566 H   0  0  0  0  0  0  0  0  0  0  0  0
   40.5453   30.0240   52.8774 H   0  0  0  0  0  0  0  0  0  0  0  0
   39.1316   30.8957   52.3831 H   0  0  0  0  0  0  0  0  0  0  0  0
  1  2  2  0
  2  3  1  0
  2  4  1  0
  4  5  2  0
  5  6  1  0
  6  7  2  0
  7  8  1  0
  8  4  1  0
  5  9  1  0
  6 10  1  0
  7 11  1  0
  8 12  1  0
  8 13  1  0
M  CHG  1   3  -1
M  END
>  <ID>  (43) 
Pocket2Mol_48_0

>  <docking_score>  (43) 
-5.55

$$$$
Pocket2Mol_49
     RDKit          3D

 16 16  0  0  0  0  0  0  0  0999 V2000
   38.0210   27.5870   53.5370 C   0  0  0  0  0  0  0  0  0  0  0  0
   38.7940   28.6130   52.7190 C   0  0  0  0  0  0  0  0  0  0  0  0
   39.1830   29.7540   53.3940 C   0  0  0  0  0  0  0  0  0  0  0  0
   39.8700   30.5690   52.6890 C   0  0  0  0  0  0  0  0  0  0  0  0
   40.2340   30.3320   51.3350 C   0  0  0  0  0  0  0  0  0  0  0  0
   39.8160   29.1540   50.7070 C   0  0  0  0  0  0  0  0  0  0  0  0
   39.1510   28.3360   51.4970 C   0  0  0  0  0  0  0  0  0  0  0  0
   38.6890   27.1330   50.9000 O   0  0  0  0  0  0  0  0  0  0  0  0
   38.1701   27.7849   54.6087 H   0  0  0  0  0  0  0  0  0  0  0  0
   36.9500   27.6580   53.2965 H   0  0  0  0  0  0  0  0  0  0  0  0
   38.3846   26.5771   53.2965 H   0  0  0  0  0  0  0  0  0  0  0  0
   38.9241   29.9443   54.4460 H   0  0  0  0  0  0  0  0  0  0  0  0
   40.1989   31.5086   53.1569 H   0  0  0  0  0  0  0  0  0  0  0  0
   40.8391   31.0686   50.7861 H   0  0  0  0  0  0  0  0  0  0  0  0
   40.0236   28.9311   49.6500 H   0  0  0  0  0  0  0  0  0  0  0  0
   38.5460   27.0880   49.9220 H   0  0  0  0  0  0  0  0  0  0  0  0
  1  2  1  0
  2  3  2  0
  3  4  1  0
  4  5  2  0
  5  6  1  0
  6  7  2  0
  7  8  1  0
  7  2  1  0
  1  9  1  0
  1 10  1  0
  1 11  1  0
  3 12  1  0
  4 13  1  0
  5 14  1  0
  6 15  1  0
  8 16  1  0
M  END
>  <ID>  (44) 
Pocket2Mol_49_0

>  <docking_score>  (44) 
-5.771

$$$$
Pocket2Mol_4
     RDKit          3D

  9  9  0  0  0  0  0  0  0  0999 V2000
   40.4750   30.4320   50.6080 C   0  0  0  0  0  0  0  0  0  0  0  0
   39.9920   30.3980   51.8620 C   0  0  0  0  0  0  0  0  0  0  0  0
   39.4050   28.8420   52.1040 C   0  0  0  0  0  0  0  0  0  0  0  0
   39.4720   28.2870   50.7970 C   0  0  0  0  0  0  0  0  0  0  0  0
   40.2170   29.2290   49.9180 C   0  0  0  0  0  0  0  0  0  0  0  0
   39.9828   31.2254   52.5868 H   0  0  0  0  0  0  0  0  0  0  0  0
   39.0575   28.3726   53.0362 H   0  0  0  0  0  0  0  0  0  0  0  0
   39.0445   27.3221   50.4870 H   0  0  0  0  0  0  0  0  0  0  0  0
   40.5217   29.0181   48.8823 H   0  0  0  0  0  0  0  0  0  0  0  0
  1  2  2  0
  2  3  1  0
  3  4  2  0
  4  5  1  0
  5  1  2  0
  2  6  1  0
  3  7  1  0
  4  8  1  0
  5  9  1  0
M  END
>  <ID>  (45) 
Pocket2Mol_4_0

>  <docking_score>  (45) 
-4.281

$$$$
Pocket2Mol_50
     RDKit          3D

 14 14  0  0  0  0  0  0  0  0999 V2000
   38.5840   26.9900   51.0310 O   0  0  0  0  0  0  0  0  0  0  0  0
   39.2100   28.2480   51.1880 C   0  0  0  0  0  0  0  0  0  0  0  0
   39.8390   28.8970   50.2240 C   0  0  0  0  0  0  0  0  0  0  0  0
   40.3870   30.1540   50.3450 C   0  0  0  0  0  0  0  0  0  0  0  0
   40.3890   30.5920   51.4900 C   0  0  0  0  0  0  0  0  0  0  0  0
   39.7520   30.2310   52.5080 C   0  0  0  0  0  0  0  0  0  0  0  0
   39.6750   30.7130   53.8830 O   0  0  0  0  0  0  0  0  0  0  0  0
   39.0770   28.8740   52.5510 C   0  0  0  0  0  0  0  0  0  0  0  0
   37.6460   26.8650   51.3200 H   0  0  0  0  0  0  0  0  0  0  0  0
   39.9318   28.3942   49.2500 H   0  0  0  0  0  0  0  0  0  0  0  0
   40.7881   30.7164   49.4889 H   0  0  0  0  0  0  0  0  0  0  0  0
   41.0634   31.4458   51.6517 H   0  0  0  0  0  0  0  0  0  0  0  0
   40.1490   31.5430   54.1450 H   0  0  0  0  0  0  0  0  0  0  0  0
   38.5785   28.4262   53.4233 H   0  0  0  0  0  0  0  0  0  0  0  0
  1  2  1  0
  2  3  1  0
  3  4  2  0
  4  5  1  0
  5  6  2  0
  6  7  1  0
  6  8  1  0
  8  2  2  0
  1  9  1  0
  3 10  1  0
  4 11  1  0
  5 12  1  0
  7 13  1  0
  8 14  1  0
M  END
>  <ID>  (46) 
Pocket2Mol_50_0

>  <docking_score>  (46) 
-5.496

$$$$
Pocket2Mol_51
     RDKit          3D

 18 18  0  0  0  0  0  0  0  0999 V2000
   40.6510   30.3740   50.0060 C   0  0  0  0  0  0  0  0  0  0  0  0
   40.0120   29.6540   51.1870 C   0  0  0  0  0  0  0  0  0  0  0  0
   39.8610   30.4010   52.3390 C   0  0  0  0  0  0  0  0  0  0  0  0
   39.2790   29.7790   53.2910 C   0  0  0  0  0  0  0  0  0  0  0  0
   39.0250   28.4840   53.0880 C   0  0  0  0  0  0  0  0  0  0  0  0
   38.3660   27.5840   54.1720 C   0  0  0  0  0  0  0  0  0  0  0  0
   39.2850   27.7470   51.7670 C   0  0  0  0  0  0  0  0  0  0  0  0
   39.6860   28.4610   50.9860 C   0  0  0  0  0  0  0  0  0  0  0  0
   41.3384   31.1485   50.3770 H   0  0  0  0  0  0  0  0  0  0  0  0
   41.2097   29.6505   49.3942 H   0  0  0  0  0  0  0  0  0  0  0  0
   39.8662   30.8428   49.3942 H   0  0  0  0  0  0  0  0  0  0  0  0
   40.2111   31.4399   52.4288 H   0  0  0  0  0  0  0  0  0  0  0  0
   39.0018   30.2836   54.2283 H   0  0  0  0  0  0  0  0  0  0  0  0
   38.6377   27.9550   55.1713 H   0  0  0  0  0  0  0  0  0  0  0  0
   37.2725   27.6109   54.0557 H   0  0  0  0  0  0  0  0  0  0  0  0
   38.7218   26.5497   54.0557 H   0  0  0  0  0  0  0  0  0  0  0  0
   39.1064   26.6742   51.6024 H   0  0  0  0  0  0  0  0  0  0  0  0
   39.7993   28.0745   49.9624 H   0  0  0  0  0  0  0  0  0  0  0  0
  1  2  1  0
  2  3  1  0
  3  4  2  0
  4  5  1  0
  5  6  1  0
  5  7  2  0
  7  8  1  0
  8  2  2  0
  1  9  1  0
  1 10  1  0
  1 11  1  0
  3 12  1  0
  4 13  1  0
  6 14  1  0
  6 15  1  0
  6 16  1  0
  7 17  1  0
  8 18  1  0
M  END
>  <ID>  (47) 
Pocket2Mol_51_0

>  <docking_score>  (47) 
-6.161

$$$$
Pocket2Mol_52
     RDKit          3D

 16 16  0  0  0  0  0  0  0  0999 V2000
   39.4870   30.5930   54.1870 C   0  0  0  0  0  0  0  0  0  0  0  0
   39.6150   30.0700   52.7590 C   0  0  0  0  0  0  0  0  0  0  0  0
   40.2580   30.6330   51.7700 C   0  0  0  0  0  0  0  0  0  0  0  0
   40.3610   30.1270   50.6580 C   0  0  0  0  0  0  0  0  0  0  0  0
   39.7750   28.8880   50.3930 C   0  0  0  0  0  0  0  0  0  0  0  0
   39.1460   28.2270   51.3180 C   0  0  0  0  0  0  0  0  0  0  0  0
   38.5730   26.9570   51.1000 O   0  0  0  0  0  0  0  0  0  0  0  0
   39.0240   28.7760   52.5860 C   0  0  0  0  0  0  0  0  0  0  0  0
   39.6869   29.7761   54.8960 H   0  0  0  0  0  0  0  0  0  0  0  0
   40.2133   31.4035   54.3471 H   0  0  0  0  0  0  0  0  0  0  0  0
   38.4685   30.9764   54.3471 H   0  0  0  0  0  0  0  0  0  0  0  0
   40.7309   31.6108   51.9443 H   0  0  0  0  0  0  0  0  0  0  0  0
   40.9170   30.6510   49.8666 H   0  0  0  0  0  0  0  0  0  0  0  0
   39.8472   28.4629   49.3810 H   0  0  0  0  0  0  0  0  0  0  0  0
   37.9200   26.8270   50.3650 H   0  0  0  0  0  0  0  0  0  0  0  0
   38.5078   28.2528   53.4044 H   0  0  0  0  0  0  0  0  0  0  0  0
  1  2  1  0
  2  3  2  0
  3  4  1  0
  4  5  2  0
  5  6  1  0
  6  7  1  0
  6  8  2  0
  8  2  1  0
  1  9  1  0
  1 10  1  0
  1 11  1  0
  3 12  1  0
  4 13  1  0
  5 14  1  0
  7 15  1  0
  8 16  1  0
M  END
>  <ID>  (48) 
Pocket2Mol_52_0

>  <docking_score>  (48) 
-6.164

$$$$
Pocket2Mol_53
     RDKit          3D

 16 16  0  0  0  0  0  0  0  0999 V2000
   40.6790   30.3190   50.2970 C   0  0  0  0  0  0  0  0  0  0  0  0
   40.0060   29.6150   51.3430 C   0  0  0  0  0  0  0  0  0  0  0  0
   39.6870   30.1080   52.4450 C   0  0  0  0  0  0  0  0  0  0  0  0
   38.7950   29.2590   53.1630 C   0  0  0  0  0  0  0  0  0  0  0  0
   38.1520   28.1810   52.8020 C   0  0  0  0  0  0  0  0  0  0  0  0
   37.2330   27.4480   53.4940 N   0  0  0  0  0  0  0  0  0  0  0  0
   38.4900   27.7250   51.4800 N   0  0  0  0  0  0  0  0  0  0  0  0
   39.3780   28.4210   50.7160 C   0  0  0  0  0  0  0  0  0  0  0  0
   41.3761   31.0483   50.7354 H   0  0  0  0  0  0  0  0  0  0  0  0
   41.2386   29.6047   49.6753 H   0  0  0  0  0  0  0  0  0  0  0  0
   39.9402   30.8459   49.6753 H   0  0  0  0  0  0  0  0  0  0  0  0
   40.0496   31.0780   52.8160 H   0  0  0  0  0  0  0  0  0  0  0  0
   38.6169   29.5657   54.2042 H   0  0  0  0  0  0  0  0  0  0  0  0
   37.0240   26.4810   53.2090 H   0  0  0  0  0  0  0  0  0  0  0  0
   36.7470   27.8630   54.3030 H   0  0  0  0  0  0  0  0  0  0  0  0
   39.6185   28.1153   49.6871 H   0  0  0  0  0  0  0  0  0  0  0  0
  1  2  1  0
  2  3  2  0
  3  4  1  0
  4  5  2  0
  5  6  1  0
  5  7  1  0
  7  8  2  0
  8  2  1  0
  1  9  1  0
  1 10  1  0
  1 11  1  0
  3 12  1  0
  4 13  1  0
  6 14  1  0
  6 15  1  0
  8 16  1  0
M  END
>  <ID>  (49) 
Pocket2Mol_53_0

>  <docking_score>  (49) 
-5.769

$$$$
Pocket2Mol_54
     RDKit          3D

 17 17  0  0  0  0  0  0  0  0999 V2000
   39.5430   30.5810   54.2240 C   0  0  0  0  0  0  0  0  0  0  0  0
   39.6540   30.0660   52.8730 C   0  0  0  0  0  0  0  0  0  0  0  0
   40.2400   30.6810   51.8320 C   0  0  0  0  0  0  0  0  0  0  0  0
   40.1540   30.0620   50.6690 C   0  0  0  0  0  0  0  0  0  0  0  0
   39.8330   28.9930   50.3920 C   0  0  0  0  0  0  0  0  0  0  0  0
   39.2930   28.2600   51.3520 C   0  0  0  0  0  0  0  0  0  0  0  0
   38.6070   26.9470   51.2000 N   0  0  0  0  0  0  0  0  0  0  0  0
   39.0450   28.7460   52.6640 C   0  0  0  0  0  0  0  0  0  0  0  0
   39.7185   29.7667   54.9424 H   0  0  0  0  0  0  0  0  0  0  0  0
   40.2911   31.3727   54.3772 H   0  0  0  0  0  0  0  0  0  0  0  0
   38.5352   30.9943   54.3772 H   0  0  0  0  0  0  0  0  0  0  0  0
   40.7608   31.6436   51.9422 H   0  0  0  0  0  0  0  0  0  0  0  0
   40.4421   30.6822   49.8074 H   0  0  0  0  0  0  0  0  0  0  0  0
   39.9688   28.5976   49.3745 H   0  0  0  0  0  0  0  0  0  0  0  0
   38.0360   26.5730   51.9710 H   0  0  0  0  0  0  0  0  0  0  0  0
   38.7040   26.4130   50.3250 H   0  0  0  0  0  0  0  0  0  0  0  0
   38.4692   28.2019   53.4272 H   0  0  0  0  0  0  0  0  0  0  0  0
  1  2  1  0
  2  3  2  0
  3  4  1  0
  4  5  2  0
  5  6  1  0
  6  7  1  0
  6  8  2  0
  8  2  1  0
  1  9  1  0
  1 10  1  0
  1 11  1  0
  3 12  1  0
  4 13  1  0
  5 14  1  0
  7 15  1  0
  7 16  1  0
  8 17  1  0
M  END
>  <ID>  (50) 
Pocket2Mol_54_0

>  <docking_score>  (50) 
-5.9

$$$$
Pocket2Mol_55
     RDKit          3D

 11 11  0  0  0  0  0  0  0  0999 V2000
   39.1400   27.9430   50.9640 C   0  0  0  0  0  0  0  0  0  0  0  0
   39.7340   29.1380   51.4150 C   0  0  0  0  0  0  0  0  0  0  0  0
   39.3160   29.3780   52.7620 O   0  0  0  0  0  0  0  0  0  0  0  0
   38.2350   28.3650   52.8770 C   0  0  0  0  0  0  0  0  0  0  0  0
   38.0780   27.7260   51.7020 O   0  0  0  0  0  0  0  0  0  0  0  0
   38.8489   28.0439   49.9080 H   0  0  0  0  0  0  0  0  0  0  0  0
   39.8468   27.1043   51.0474 H   0  0  0  0  0  0  0  0  0  0  0  0
   40.8293   29.0436   51.3786 H   0  0  0  0  0  0  0  0  0  0  0  0
   39.4259   29.9757   50.7720 H   0  0  0  0  0  0  0  0  0  0  0  0
   38.5004   27.6354   53.6562 H   0  0  0  0  0  0  0  0  0  0  0  0
   37.2941   28.8685   53.1437 H   0  0  0  0  0  0  0  0  0  0  0  0
  1  2  1  0
  2  3  1  0
  3  4  1  0
  4  5  1  0
  5  1  1  0
  1  6  1  0
  1  7  1  0
  2  8  1  0
  2  9  1  0
  4 10  1  0
  4 11  1  0
M  END
>  <ID>  (51) 
Pocket2Mol_55_0

>  <docking_score>  (51) 
-3.106

$$$$
Pocket2Mol_56
     RDKit          3D

 17 17  0  0  0  0  0  0  0  0999 V2000
   40.7510   30.2910   50.1940 C   0  0  0  0  0  0  0  0  0  0  0  0
   39.8550   29.6450   51.2900 C   0  0  0  0  0  0  0  0  0  0  0  0
   39.7570   30.1510   52.5220 C   0  0  0  0  0  0  0  0  0  0  0  0
   38.9570   29.5550   53.3200 C   0  0  0  0  0  0  0  0  0  0  0  0
   38.4200   28.3880   52.8120 C   0  0  0  0  0  0  0  0  0  0  0  0
   37.5030   27.6130   53.7500 C   0  0  0  0  0  0  0  0  0  0  0  0
   38.5120   27.8660   51.6970 N   0  0  0  0  0  0  0  0  0  0  0  0
   39.1640   28.3560   50.8250 C   0  0  0  0  0  0  0  0  0  0  0  0
   41.5546   30.8704   50.6719 H   0  0  0  0  0  0  0  0  0  0  0  0
   41.1911   29.5011   49.5676 H   0  0  0  0  0  0  0  0  0  0  0  0
   40.1406   30.9582   49.5676 H   0  0  0  0  0  0  0  0  0  0  0  0
   40.3344   31.0340   52.8331 H   0  0  0  0  0  0  0  0  0  0  0  0
   38.7170   29.9373   54.3231 H   0  0  0  0  0  0  0  0  0  0  0  0
   37.7700   27.8386   54.7930 H   0  0  0  0  0  0  0  0  0  0  0  0
   36.4587   27.9064   53.5671 H   0  0  0  0  0  0  0  0  0  0  0  0
   37.6182   26.5344   53.5671 H   0  0  0  0  0  0  0  0  0  0  0  0
   39.2578   27.9353   49.8130 H   0  0  0  0  0  0  0  0  0  0  0  0
  1  2  1  0
  2  3  2  0
  3  4  1  0
  4  5  2  0
  5  6  1  0
  5  7  1  0
  7  8  2  0
  8  2  1  0
  1  9  1  0
  1 10  1  0
  1 11  1  0
  3 12  1  0
  4 13  1  0
  6 14  1  0
  6 15  1  0
  6 16  1  0
  8 17  1  0
M  END
>  <ID>  (52) 
Pocket2Mol_56_0

>  <docking_score>  (52) 
-5.69

$$$$
Pocket2Mol_57
     RDKit          3D

 16 16  0  0  0  0  0  0  0  0999 V2000
   40.6770   30.3690   49.9690 C   0  0  0  0  0  0  0  0  0  0  0  0
   39.9350   29.5800   51.0050 C   0  0  0  0  0  0  0  0  0  0  0  0
   39.8240   30.0520   52.2250 C   0  0  0  0  0  0  0  0  0  0  0  0
   39.1060   29.2410   53.0440 C   0  0  0  0  0  0  0  0  0  0  0  0
   38.7400   27.9580   52.8310 C   0  0  0  0  0  0  0  0  0  0  0  0
   38.0700   27.1780   53.7340 O   0  0  0  0  0  0  0  0  0  0  0  0
   39.0410   27.6270   51.5440 C   0  0  0  0  0  0  0  0  0  0  0  0
   39.6860   28.3250   50.6030 C   0  0  0  0  0  0  0  0  0  0  0  0
   41.3496   31.0842   50.4650 H   0  0  0  0  0  0  0  0  0  0  0  0
   41.2672   29.6856   49.3408 H   0  0  0  0  0  0  0  0  0  0  0  0
   39.9587   30.9162   49.3408 H   0  0  0  0  0  0  0  0  0  0  0  0
   40.2665   31.0052   52.5500 H   0  0  0  0  0  0  0  0  0  0  0  0
   38.7826   29.6829   53.9980 H   0  0  0  0  0  0  0  0  0  0  0  0
   37.5830   27.5990   54.4860 H   0  0  0  0  0  0  0  0  0  0  0  0
   38.7001   26.6295   51.2297 H   0  0  0  0  0  0  0  0  0  0  0  0
   39.9760   27.9204   49.6221 H   0  0  0  0  0  0  0  0  0  0  0  0
  1  2  1  0
  2  3  1  0
  3  4  2  0
  4  5  1  0
  5  6  1  0
  5  7  2  0
  7  8  1  0
  8  2  2  0
  1  9  1  0
  1 10  1  0
  1 11  1  0
  3 12  1  0
  4 13  1  0
  6 14  1  0
  7 15  1  0
  8 16  1  0
M  END
>  <ID>  (53) 
Pocket2Mol_57_0

>  <docking_score>  (53) 
-5.683

$$$$
Pocket2Mol_58
     RDKit          3D

 17 17  0  0  0  0  0  0  0  0999 V2000
   40.7400   30.3730   50.1810 C   0  0  0  0  0  0  0  0  0  0  0  0
   40.1170   29.6320   51.2320 C   0  0  0  0  0  0  0  0  0  0  0  0
   39.6980   30.1230   52.3010 C   0  0  0  0  0  0  0  0  0  0  0  0
   38.8890   29.1990   53.0240 C   0  0  0  0  0  0  0  0  0  0  0  0
   38.3950   28.0370   52.6860 C   0  0  0  0  0  0  0  0  0  0  0  0
   37.5460   27.2240   53.3780 N   0  0  0  0  0  0  0  0  0  0  0  0
   38.8470   27.5710   51.4060 C   0  0  0  0  0  0  0  0  0  0  0  0
   39.6630   28.3470   50.6350 C   0  0  0  0  0  0  0  0  0  0  0  0
   41.3908   31.1470   50.6139 H   0  0  0  0  0  0  0  0  0  0  0  0
   41.3419   29.6932   49.5600 H   0  0  0  0  0  0  0  0  0  0  0  0
   39.9670   30.8492   49.5600 H   0  0  0  0  0  0  0  0  0  0  0  0
   39.9255   31.1435   52.6427 H   0  0  0  0  0  0  0  0  0  0  0  0
   38.6360   29.5199   54.0453 H   0  0  0  0  0  0  0  0  0  0  0  0
   37.8100   26.8790   54.3120 H   0  0  0  0  0  0  0  0  0  0  0  0
   36.6410   26.9550   52.9660 H   0  0  0  0  0  0  0  0  0  0  0  0
   38.5333   26.5809   51.0437 H   0  0  0  0  0  0  0  0  0  0  0  0
   39.9692   28.0384   49.6245 H   0  0  0  0  0  0  0  0  0  0  0  0
  1  2  1  0
  2  3  1  0
  3  4  2  0
  4  5  1  0
  5  6  1  0
  5  7  2  0
  7  8  1  0
  8  2  2  0
  1  9  1  0
  1 10  1  0
  1 11  1  0
  3 12  1  0
  4 13  1  0
  6 14  1  0
  6 15  1  0
  7 16  1  0
  8 17  1  0
M  END
>  <ID>  (54) 
Pocket2Mol_58_0

>  <docking_score>  (54) 
-5.956

$$$$
Pocket2Mol_59
     RDKit          3D

 16 16  0  0  0  0  0  0  0  0999 V2000
   38.0740   27.4250   52.5480 N   0  0  0  0  0  0  0  0  0  0  0  0
   39.0200   28.3690   51.8900 C   0  0  0  0  0  0  0  0  0  0  0  0
   39.4830   28.2990   50.6520 C   0  0  0  0  0  0  0  0  0  0  0  0
   40.0570   29.2150   50.2570 C   0  0  0  0  0  0  0  0  0  0  0  0
   40.5000   30.3020   50.8600 C   0  0  0  0  0  0  0  0  0  0  0  0
   40.0030   30.4850   52.1510 C   0  0  0  0  0  0  0  0  0  0  0  0
   39.2190   29.5230   52.7000 C   0  0  0  0  0  0  0  0  0  0  0  0
   38.7020   29.6410   54.0000 N   0  0  0  0  0  0  0  0  0  0  0  0
   38.2820   26.4170   52.5650 H   0  0  0  0  0  0  0  0  0  0  0  0
   37.2130   27.7810   52.9860 H   0  0  0  0  0  0  0  0  0  0  0  0
   39.3263   27.4060   50.0291 H   0  0  0  0  0  0  0  0  0  0  0  0
   40.2765   29.1776   49.1798 H   0  0  0  0  0  0  0  0  0  0  0  0
   41.2013   31.0040   50.3854 H   0  0  0  0  0  0  0  0  0  0  0  0
   40.2436   31.3974   52.7164 H   0  0  0  0  0  0  0  0  0  0  0  0
   38.2850   28.8220   54.4650 H   0  0  0  0  0  0  0  0  0  0  0  0
   38.7390   30.5480   54.4880 H   0  0  0  0  0  0  0  0  0  0  0  0
  1  2  1  0
  2  3  2  0
  3  4  1  0
  4  5  2  0
  5  6  1  0
  6  7  2  0
  7  8  1  0
  7  2  1  0
  1  9  1  0
  1 10  1  0
  3 11  1  0
  4 12  1  0
  5 13  1  0
  6 14  1  0
  8 15  1  0
  8 16  1  0
M  END
>  <ID>  (55) 
Pocket2Mol_59_0

>  <docking_score>  (55) 
-5.36

$$$$
Pocket2Mol_5
     RDKit          3D

 13 13  0  0  0  0  0  0  0  0999 V2000
   40.2730   30.4580   50.1270 C   0  0  0  0  0  0  0  0  0  0  0  0
   39.9290   29.3250   49.8600 N   0  0  0  0  0  0  0  0  0  0  0  0
   39.4770   28.3800   50.7710 C   0  0  0  0  0  0  0  0  0  0  0  0
   39.5870   29.1880   51.8970 C   0  0  0  0  0  0  0  0  0  0  0  0
   40.1590   30.4330   51.5720 C   0  0  0  0  0  0  0  0  0  0  0  0
   40.5841   31.2750   49.4594 H   0  0  0  0  0  0  0  0  0  0  0  0
   39.9740   29.0400   48.8720 H   0  0  0  0  0  0  0  0  0  0  0  0
   38.4415   28.0645   50.5755 H   0  0  0  0  0  0  0  0  0  0  0  0
   40.0073   27.4165   50.7947 H   0  0  0  0  0  0  0  0  0  0  0  0
   38.5853   29.3522   52.3209 H   0  0  0  0  0  0  0  0  0  0  0  0
   40.2372   28.6840   52.6272 H   0  0  0  0  0  0  0  0  0  0  0  0
   39.5119   31.2524   51.9182 H   0  0  0  0  0  0  0  0  0  0  0  0
   41.1387   30.5635   52.0548 H   0  0  0  0  0  0  0  0  0  0  0  0
  1  2  2  0
  2  3  1  0
  3  4  1  0
  4  5  1  0
  5  1  1  0
  1  6  1  0
  2  7  1  0
  3  8  1  0
  3  9  1  0
  4 10  1  0
  4 11  1  0
  5 12  1  0
  5 13  1  0
M  CHG  1   2   1
M  END
>  <ID>  (56) 
Pocket2Mol_5_0

>  <docking_score>  (56) 
-3.704

$$$$
Pocket2Mol_60
     RDKit          3D

 11 11  0  0  0  0  0  0  0  0999 V2000
   37.2310   28.1040   52.5150 O   0  0  0  0  0  0  0  0  0  0  0  0
   38.4900   28.0770   52.6140 C   0  0  0  0  0  0  0  0  0  0  0  0
   39.0030   27.1910   53.4630 O   0  0  0  0  0  0  0  0  0  0  0  0
   39.3140   28.8450   51.7000 C   0  0  0  0  0  0  0  0  0  0  0  0
   39.8440   29.9850   51.7880 C   0  0  0  0  0  0  0  0  0  0  0  0
   40.5900   30.4340   50.7650 C   0  0  0  0  0  0  0  0  0  0  0  0
   40.3350   29.4580   49.9210 C   0  0  0  0  0  0  0  0  0  0  0  0
   39.4970   28.3910   50.3850 N   0  0  0  0  0  0  0  0  0  0  0  0
   39.6983   30.6018   52.6871 H   0  0  0  0  0  0  0  0  0  0  0  0
   41.2158   31.3331   50.6649 H   0  0  0  0  0  0  0  0  0  0  0  0
   40.7476   29.4602   48.9013 H   0  0  0  0  0  0  0  0  0  0  0  0
  1  2  2  0
  2  3  1  0
  2  4  1  0
  4  5  2  0
  5  6  1  0
  6  7  2  0
  7  8  1  0
  8  4  1  0
  5  9  1  0
  6 10  1  0
  7 11  1  0
M  CHG  2   3  -1   8  -1
M  END
>  <ID>  (57) 
Pocket2Mol_60_0

>  <docking_score>  (57) 
-4.873

$$$$
Pocket2Mol_61
     RDKit          3D

 16 16  0  0  0  0  0  0  0  0999 V2000
   37.5010   28.0360   52.2310 O   0  0  0  0  0  0  0  0  0  0  0  0
   38.6540   28.5200   52.6610 N   0  0  0  0  0  0  0  0  0  0  0  0
   38.7800   28.6100   53.9320 O   0  0  0  0  0  0  0  0  0  0  0  0
   39.4280   29.0070   51.7420 N   0  0  0  0  0  0  0  0  0  0  0  0
   39.9170   30.1540   51.7130 C   0  0  0  0  0  0  0  0  0  0  0  0
   40.6580   30.4490   50.6320 C   0  0  0  0  0  0  0  0  0  0  0  0
   40.2700   29.4440   49.8760 C   0  0  0  0  0  0  0  0  0  0  0  0
   39.6150   28.5680   50.6140 C   0  0  0  0  0  0  0  0  0  0  0  0
   39.0877   30.8752   51.7601 H   0  0  0  0  0  0  0  0  0  0  0  0
   40.6059   30.2055   52.5690 H   0  0  0  0  0  0  0  0  0  0  0  0
   40.3949   31.4249   50.1980 H   0  0  0  0  0  0  0  0  0  0  0  0
   41.7415   30.5448   50.7959 H   0  0  0  0  0  0  0  0  0  0  0  0
   39.6110   29.8177   49.0785 H   0  0  0  0  0  0  0  0  0  0  0  0
   41.1502   28.9609   49.4267 H   0  0  0  0  0  0  0  0  0  0  0  0
   38.6437   28.3541   50.1440 H   0  0  0  0  0  0  0  0  0  0  0  0
   40.2140   27.6483   50.6869 H   0  0  0  0  0  0  0  0  0  0  0  0
  1  2  2  0
  2  3  1  0
  2  4  1  0
  4  5  1  0
  5  6  1  0
  6  7  1  0
  7  8  1  0
  8  4  1  0
  5  9  1  0
  5 10  1  0
  6 11  1  0
  6 12  1  0
  7 13  1  0
  7 14  1  0
  8 15  1  0
  8 16  1  0
M  CHG  2   2   1   3  -1
M  END
>  <ID>  (58) 
Pocket2Mol_61_0

>  <docking_score>  (58) 
-4.991

$$$$
Pocket2Mol_62
     RDKit          3D

 20 19  0  0  0  0  0  0  0  0999 V2000
   37.4760   29.1700   54.6850 C   0  0  0  0  0  0  0  0  0  0  0  0
   37.6720   28.1580   53.7150 C   0  0  0  0  0  0  0  0  0  0  0  0
   37.4460   26.8700   54.4600 C   0  0  0  0  0  0  0  0  0  0  0  0
   36.6920   28.2390   52.6320 O   0  0  0  0  0  0  0  0  0  0  0  0
   38.8000   28.0250   53.2250 O   0  0  0  0  0  0  0  0  0  0  0  0
   39.2170   28.8720   52.1410 C   0  0  0  0  0  0  0  0  0  0  0  0
   39.5650   27.8990   51.1310 C   0  0  0  0  0  0  0  0  0  0  0  0
   38.5900   27.1950   50.6320 O   0  0  0  0  0  0  0  0  0  0  0  0
   37.5604   28.7344   55.6915 H   0  0  0  0  0  0  0  0  0  0  0  0
   38.2394   29.9518   54.5586 H   0  0  0  0  0  0  0  0  0  0  0  0
   36.4759   29.6103   54.5586 H   0  0  0  0  0  0  0  0  0  0  0  0
   37.4797   27.0619   55.5426 H   0  0  0  0  0  0  0  0  0  0  0  0
   36.4619   26.4586   54.1909 H   0  0  0  0  0  0  0  0  0  0  0  0
   38.2312   26.1482   54.1909 H   0  0  0  0  0  0  0  0  0  0  0  0
   35.9390   27.6260   52.8230 H   0  0  0  0  0  0  0  0  0  0  0  0
   38.3987   29.5254   51.8042 H   0  0  0  0  0  0  0  0  0  0  0  0
   40.0344   29.5611   52.3998 H   0  0  0  0  0  0  0  0  0  0  0  0
   40.0445   28.4384   50.3008 H   0  0  0  0  0  0  0  0  0  0  0  0
   40.2116   27.1715   51.6436 H   0  0  0  0  0  0  0  0  0  0  0  0
   38.0580   27.7600   50.0170 H   0  0  0  0  0  0  0  0  0  0  0  0
  1  2  1  0
  2  3  1  0
  2  4  1  0
  2  5  1  0
  5  6  1  0
  6  7  1  0
  7  8  1  0
  1  9  1  0
  1 10  1  0
  1 11  1  0
  3 12  1  0
  3 13  1  0
  3 14  1  0
  4 15  1  0
  6 16  1  0
  6 17  1  0
  7 18  1  0
  7 19  1  0
  8 20  1  0
M  END
>  <ID>  (59) 
Pocket2Mol_62_0

>  <docking_score>  (59) 
-4.249

$$$$
Pocket2Mol_63
     RDKit          3D

 14 14  0  0  0  0  0  0  0  0999 V2000
   37.1700   28.1480   52.5220 O   0  0  0  0  0  0  0  0  0  0  0  0
   38.3780   28.1820   52.6820 N   0  0  0  0  0  0  0  0  0  0  0  0
   38.9240   27.3590   53.6760 O   0  0  0  0  0  0  0  0  0  0  0  0
   39.0670   28.7740   52.1380 N   0  0  0  0  0  0  0  0  0  0  0  0
   39.6420   30.0100   52.3380 C   0  0  0  0  0  0  0  0  0  0  0  0
   40.1880   30.4780   51.2260 C   0  0  0  0  0  0  0  0  0  0  0  0
   40.1890   29.5440   50.2240 C   0  0  0  0  0  0  0  0  0  0  0  0
   39.5000   28.3020   50.6890 C   0  0  0  0  0  0  0  0  0  0  0  0
   38.8679   30.7131   52.6793 H   0  0  0  0  0  0  0  0  0  0  0  0
   40.4350   29.9031   53.0928 H   0  0  0  0  0  0  0  0  0  0  0  0
   40.5925   31.4954   51.1197 H   0  0  0  0  0  0  0  0  0  0  0  0
   40.6307   29.6867   49.2267 H   0  0  0  0  0  0  0  0  0  0  0  0
   38.6315   28.0543   50.0610 H   0  0  0  0  0  0  0  0  0  0  0  0
   40.1094   27.3868   50.6560 H   0  0  0  0  0  0  0  0  0  0  0  0
  1  2  2  0
  2  3  1  0
  2  4  1  0
  4  5  1  0
  5  6  1  0
  6  7  2  0
  7  8  1  0
  8  4  1  0
  5  9  1  0
  5 10  1  0
  6 11  1  0
  7 12  1  0
  8 13  1  0
  8 14  1  0
M  CHG  2   2   1   3  -1
M  END
>  <ID>  (60) 
Pocket2Mol_63_0

>  <docking_score>  (60) 
-4.913

$$$$
Pocket2Mol_64
     RDKit          3D

 15 15  0  0  0  0  0  0  0  0999 V2000
   38.7500   27.1840   50.8500 N   0  0  0  0  0  0  0  0  0  0  0  0
   39.0950   28.4090   51.6710 C   0  0  0  0  0  0  0  0  0  0  0  0
   39.8710   29.3690   50.7040 C   0  0  0  0  0  0  0  0  0  0  0  0
   40.1740   30.4450   51.4480 C   0  0  0  0  0  0  0  0  0  0  0  0
   39.8140   30.5190   52.7560 C   0  0  0  0  0  0  0  0  0  0  0  0
   39.1570   29.6800   53.4640 C   0  0  0  0  0  0  0  0  0  0  0  0
   38.7380   29.7480   54.8570 O   0  0  0  0  0  0  0  0  0  0  0  0
   38.6970   28.4070   52.8560 C   0  0  0  0  0  0  0  0  0  0  0  0
   38.1850   27.2800   49.9940 H   0  0  0  0  0  0  0  0  0  0  0  0
   39.0810   26.2550   51.1460 H   0  0  0  0  0  0  0  0  0  0  0  0
   40.1145   29.1980   49.6450 H   0  0  0  0  0  0  0  0  0  0  0  0
   40.7232   31.2811   50.9905 H   0  0  0  0  0  0  0  0  0  0  0  0
   40.1332   31.4311   53.2816 H   0  0  0  0  0  0  0  0  0  0  0  0
   39.4110   29.8980   55.5680 H   0  0  0  0  0  0  0  0  0  0  0  0
   38.1176   27.6145   53.3522 H   0  0  0  0  0  0  0  0  0  0  0  0
  1  2  1  0
  2  3  2  0
  3  4  1  0
  4  5  2  0
  5  6  1  0
  6  7  1  0
  6  8  2  0
  8  2  1  0
  1  9  1  0
  1 10  1  0
  3 11  1  0
  4 12  1  0
  5 13  1  0
  7 14  1  0
  8 15  1  0
M  END
>  <ID>  (61) 
Pocket2Mol_64_0

>  <docking_score>  (61) 
-5.156

$$$$
Pocket2Mol_65
     RDKit          3D

 21 21  0  0  0  0  0  0  0  0999 V2000
   36.8680   27.4400   53.5340 N   0  0  0  0  0  0  0  0  0  0  0  0
   38.2030   27.6720   53.0260 C   0  0  0  0  0  0  0  0  0  0  0  0
   38.3510   27.8030   51.7170 N   0  0  0  0  0  0  0  0  0  0  0  0
   39.4740   28.4090   51.5350 N   0  0  0  0  0  0  0  0  0  0  0  0
   39.4530   29.4260   52.2570 C   0  0  0  0  0  0  0  0  0  0  0  0
   40.1100   30.4970   51.7810 C   0  0  0  0  0  0  0  0  0  0  0  0
   40.2410   30.0840   50.5390 C   0  0  0  0  0  0  0  0  0  0  0  0
   39.9320   28.8020   50.4690 C   0  0  0  0  0  0  0  0  0  0  0  0
   36.7130   27.3320   54.5460 H   0  0  0  0  0  0  0  0  0  0  0  0
   36.0720   27.3800   52.8820 H   0  0  0  0  0  0  0  0  0  0  0  0
   39.0660   27.7373   53.7049 H   0  0  0  0  0  0  0  0  0  0  0  0
   37.6980   27.4820   50.9880 H   0  0  0  0  0  0  0  0  0  0  0  0
   40.0940   27.6070   51.7170 H   0  0  0  0  0  0  0  0  0  0  0  0
   38.4014   29.7135   52.4039 H   0  0  0  0  0  0  0  0  0  0  0  0
   39.9746   29.1442   53.1836 H   0  0  0  0  0  0  0  0  0  0  0  0
   39.5150   31.4193   51.8544 H   0  0  0  0  0  0  0  0  0  0  0  0
   41.0390   30.7693   52.3034 H   0  0  0  0  0  0  0  0  0  0  0  0
   39.5675   30.6601   49.8875 H   0  0  0  0  0  0  0  0  0  0  0  0
   41.2806   30.2303   50.2105 H   0  0  0  0  0  0  0  0  0  0  0  0
   39.1829   28.6537   49.6773 H   0  0  0  0  0  0  0  0  0  0  0  0
   40.8439   28.2298   50.2430 H   0  0  0  0  0  0  0  0  0  0  0  0
  1  2  1  0
  2  3  2  3
  3  4  1  0
  4  5  1  0
  5  6  1  0
  6  7  1  0
  7  8  1  0
  8  4  1  0
  1  9  1  0
  1 10  1  0
  2 11  1  0
  3 12  1  0
  4 13  1  0
  5 14  1  0
  5 15  1  0
  6 16  1  0
  6 17  1  0
  7 18  1  0
  7 19  1  0
  8 20  1  0
  8 21  1  0
M  CHG  2   3   1   4   1
M  END
>  <ID>  (62) 
Pocket2Mol_65_0

>  <docking_score>  (62) 
-5.242

$$$$
Pocket2Mol_66
     RDKit          3D

 13 12  0  0  0  0  0  0  0  0999 V2000
   37.0810   34.9030   49.6800 C   0  0  0  0  0  0  0  0  0  0  0  0
   37.3430   34.8520   48.4070 O   0  0  0  0  0  0  0  0  0  0  0  0
   38.5420   34.4940   47.9560 C   0  0  0  0  0  0  0  0  0  0  0  0
   39.1460   35.5960   47.3940 C   0  0  0  0  0  0  0  0  0  0  0  0
   38.7800   35.9260   46.0790 O   0  0  0  0  0  0  0  0  0  0  0  0
   38.0035   34.7234   50.2517 H   0  0  0  0  0  0  0  0  0  0  0  0
   36.6806   35.8959   49.9325 H   0  0  0  0  0  0  0  0  0  0  0  0
   36.3374   34.1327   49.9325 H   0  0  0  0  0  0  0  0  0  0  0  0
   39.1550   34.1199   48.7892 H   0  0  0  0  0  0  0  0  0  0  0  0
   38.4387   33.6974   47.2045 H   0  0  0  0  0  0  0  0  0  0  0  0
   38.9122   36.4624   48.0302 H   0  0  0  0  0  0  0  0  0  0  0  0
   40.2132   35.3361   47.3352 H   0  0  0  0  0  0  0  0  0  0  0  0
   38.1520   36.6900   46.0930 H   0  0  0  0  0  0  0  0  0  0  0  0
  1  2  1  0
  2  3  1  0
  3  4  1  0
  4  5  1  0
  1  6  1  0
  1  7  1  0
  1  8  1  0
  3  9  1  0
  3 10  1  0
  4 11  1  0
  4 12  1  0
  5 13  1  0
M  END
>  <ID>  (63) 
Pocket2Mol_66_0

>  <docking_score>  (63) 
-3.505

$$$$
Pocket2Mol_67
     RDKit          3D

 12 12  0  0  0  0  0  0  0  0999 V2000
   37.3590   27.9970   52.7480 O   0  0  0  0  0  0  0  0  0  0  0  0
   38.5480   28.5770   52.5770 C   0  0  0  0  0  0  0  0  0  0  0  0
   38.9460   29.5020   53.3030 O   0  0  0  0  0  0  0  0  0  0  0  0
   39.7610   30.5780   52.7860 C   0  0  0  0  0  0  0  0  0  0  0  0
   40.2040   30.1880   51.4700 C   0  0  0  0  0  0  0  0  0  0  0  0
   39.7810   29.1310   50.6990 C   0  0  0  0  0  0  0  0  0  0  0  0
   39.2570   28.1980   51.3650 C   0  0  0  0  0  0  0  0  0  0  0  0
   38.6770   27.0710   50.6550 O   0  0  0  0  0  0  0  0  0  0  0  0
   39.9993   31.5203   53.3011 H   0  0  0  0  0  0  0  0  0  0  0  0
   40.9849   30.8210   51.0233 H   0  0  0  0  0  0  0  0  0  0  0  0
   39.8896   29.1024   49.6048 H   0  0  0  0  0  0  0  0  0  0  0  0
   39.1620   26.6620   49.8950 H   0  0  0  0  0  0  0  0  0  0  0  0
  1  2  2  0
  2  3  1  0
  3  4  1  0
  4  5  2  0
  5  6  1  0
  6  7  2  0
  7  8  1  0
  7  2  1  0
  4  9  1  0
  5 10  1  0
  6 11  1  0
  8 12  1  0
M  END
>  <ID>  (64) 
Pocket2Mol_67_0

>  <docking_score>  (64) 
-5.295

$$$$
Pocket2Mol_68
     RDKit          3D

 19 20  0  0  0  0  0  0  0  0999 V2000
   39.8120   28.7870   50.3050 C   0  0  0  0  0  0  0  0  0  0  0  0
   40.2780   30.0050   50.3920 C   0  0  0  0  0  0  0  0  0  0  0  0
   40.1830   30.5710   51.6680 C   0  0  0  0  0  0  0  0  0  0  0  0
   39.5850   29.8260   52.5250 C   0  0  0  0  0  0  0  0  0  0  0  0
   39.1070   28.4940   52.3840 C   0  0  0  0  0  0  0  0  0  0  0  0
   39.1130   27.9780   51.2470 C   0  0  0  0  0  0  0  0  0  0  0  0
   38.2920   28.0600   53.4750 C   0  0  0  0  0  0  0  0  0  0  0  0
   38.4880   29.0540   54.5710 C   0  0  0  0  0  0  0  0  0  0  0  0
   39.4450   30.4320   53.9470 C   0  0  0  0  0  0  0  0  0  0  0  0
   39.9908   28.3012   49.3344 H   0  0  0  0  0  0  0  0  0  0  0  0
   40.7091   30.5406   49.5333 H   0  0  0  0  0  0  0  0  0  0  0  0
   40.5847   31.5649   51.9144 H   0  0  0  0  0  0  0  0  0  0  0  0
   38.6371   27.0169   51.0025 H   0  0  0  0  0  0  0  0  0  0  0  0
   37.2349   28.0316   53.1721 H   0  0  0  0  0  0  0  0  0  0  0  0
   38.5704   27.0472   53.8016 H   0  0  0  0  0  0  0  0  0  0  0  0
   37.5094   29.4138   54.9215 H   0  0  0  0  0  0  0  0  0  0  0  0
   39.0213   28.5815   55.4091 H   0  0  0  0  0  0  0  0  0  0  0  0
   38.8942   31.3841   53.9605 H   0  0  0  0  0  0  0  0  0  0  0  0
   40.3609   30.7176   54.4851 H   0  0  0  0  0  0  0  0  0  0  0  0
  1  2  2  0
  2  3  1  0
  3  4  2  0
  4  5  1  0
  5  6  2  0
  5  7  1  0
  7  8  1  0
  8  9  1  0
  6  1  1  0
  9  4  1  0
  1 10  1  0
  2 11  1  0
  3 12  1  0
  6 13  1  0
  7 14  1  0
  7 15  1  0
  8 16  1  0
  8 17  1  0
  9 18  1  0
  9 19  1  0
M  END
>  <ID>  (65) 
Pocket2Mol_68_0

>  <docking_score>  (65) 
-6.57

$$$$
Pocket2Mol_69
     RDKit          3D

 15 16  0  0  0  0  0  0  0  0999 V2000
   40.3810   30.2890   51.2100 C   0  0  0  0  0  0  0  0  0  0  0  0
   40.1410   29.3670   50.3080 C   0  0  0  0  0  0  0  0  0  0  0  0
   39.3770   28.2180   50.6050 C   0  0  0  0  0  0  0  0  0  0  0  0
   38.7970   28.1550   51.8840 C   0  0  0  0  0  0  0  0  0  0  0  0
   39.0450   29.2680   52.7420 C   0  0  0  0  0  0  0  0  0  0  0  0
   39.7850   30.3670   52.4410 C   0  0  0  0  0  0  0  0  0  0  0  0
   38.2960   28.9670   54.0960 O   0  0  0  0  0  0  0  0  0  0  0  0
   37.5890   27.8110   53.7110 C   0  0  0  0  0  0  0  0  0  0  0  0
   38.1060   27.3900   52.5820 O   0  0  0  0  0  0  0  0  0  0  0  0
   41.1212   31.0625   50.9572 H   0  0  0  0  0  0  0  0  0  0  0  0
   40.5461   29.4928   49.2931 H   0  0  0  0  0  0  0  0  0  0  0  0
   39.2418   27.4103   49.8706 H   0  0  0  0  0  0  0  0  0  0  0  0
   39.8941   31.2292   53.1153 H   0  0  0  0  0  0  0  0  0  0  0  0
   37.6905   27.0342   54.4832 H   0  0  0  0  0  0  0  0  0  0  0  0
   36.5191   28.0347   53.5873 H   0  0  0  0  0  0  0  0  0  0  0  0
  1  2  2  0
  2  3  1  0
  3  4  2  0
  4  5  1  0
  5  6  2  0
  5  7  1  0
  7  8  1  0
  8  9  1  0
  6  1  1  0
  9  4  1  0
  1 10  1  0
  2 11  1  0
  3 12  1  0
  6 13  1  0
  8 14  1  0
  8 15  1  0
M  END
>  <ID>  (66) 
Pocket2Mol_69_0

>  <docking_score>  (66) 
-5.998

$$$$
Pocket2Mol_6
     RDKit          3D

 11 10  0  0  0  0  0  0  0  0999 V2000
   39.1430   35.5160   46.9390 C   0  0  0  0  0  0  0  0  0  0  0  0
   37.9540   35.0100   47.5880 O   0  0  0  0  0  0  0  0  0  0  0  0
   38.0050   34.4380   48.6890 C   0  0  0  0  0  0  0  0  0  0  0  0
   37.2390   34.9880   49.8270 C   0  0  0  0  0  0  0  0  0  0  0  0
   38.5210   33.2900   48.7680 O   0  0  0  0  0  0  0  0  0  0  0  0
   39.8728   35.8266   47.7012 H   0  0  0  0  0  0  0  0  0  0  0  0
   39.5820   34.7267   46.3110 H   0  0  0  0  0  0  0  0  0  0  0  0
   38.8787   36.3796   46.3110 H   0  0  0  0  0  0  0  0  0  0  0  0
   37.6976   34.6587   50.7710 H   0  0  0  0  0  0  0  0  0  0  0  0
   37.2485   36.0869   49.7785 H   0  0  0  0  0  0  0  0  0  0  0  0
   36.2008   34.6278   49.7785 H   0  0  0  0  0  0  0  0  0  0  0  0
  1  2  1  0
  2  3  1  0
  3  4  1  0
  3  5  2  0
  1  6  1  0
  1  7  1  0
  1  8  1  0
  4  9  1  0
  4 10  1  0
  4 11  1  0
M  END
>  <ID>  (67) 
Pocket2Mol_6_0

>  <docking_score>  (67) 
-3.59

$$$$
Pocket2Mol_70
     RDKit          3D

 17 18  0  0  0  0  0  0  0  0999 V2000
   40.4470   30.3560   51.0680 C   0  0  0  0  0  0  0  0  0  0  0  0
   39.8160   30.3810   52.4190 C   0  0  0  0  0  0  0  0  0  0  0  0
   39.1170   29.4070   52.7740 C   0  0  0  0  0  0  0  0  0  0  0  0
   38.4510   29.2550   53.9320 C   0  0  0  0  0  0  0  0  0  0  0  0
   37.7030   27.9860   53.9670 N   0  0  0  0  0  0  0  0  0  0  0  0
   37.9920   27.4600   52.7200 N   0  0  0  0  0  0  0  0  0  0  0  0
   38.9320   28.3680   51.9200 C   0  0  2  0  0  0  0  0  0  0  0  0
   39.3910   28.2180   50.6860 C   0  0  0  0  0  0  0  0  0  0  0  0
   40.1210   29.1540   50.2900 C   0  0  0  0  0  0  0  0  0  0  0  0
   41.0947   31.1610   50.6904 H   0  0  0  0  0  0  0  0  0  0  0  0
   39.9627   31.2399   53.0904 H   0  0  0  0  0  0  0  0  0  0  0  0
   38.4630   29.9878   54.7523 H   0  0  0  0  0  0  0  0  0  0  0  0
   37.1210   27.5940   54.7210 H   0  0  0  0  0  0  0  0  0  0  0  0
   37.1130   27.3470   52.1940 H   0  0  0  0  0  0  0  0  0  0  0  0
   38.0652   28.9219   51.5303 H   0  0  0  0  0  0  0  0  0  0  0  0
   39.1506   27.3444   50.0623 H   0  0  0  0  0  0  0  0  0  0  0  0
   40.5517   29.0699   49.2813 H   0  0  0  0  0  0  0  0  0  0  0  0
  1  2  2  0
  2  3  1  0
  3  4  2  0
  4  5  1  0
  5  6  1  0
  6  7  1  0
  7  8  1  0
  8  9  2  0
  9  1  1  0
  7  3  1  0
  1 10  1  0
  2 11  1  0
  4 12  1  0
  5 13  1  0
  6 14  1  0
  7 15  1  1
  8 16  1  0
  9 17  1  0
M  END
>  <ID>  (68) 
Pocket2Mol_70_0

>  <docking_score>  (68) 
-6.077

$$$$
Pocket2Mol_71
     RDKit          3D

 17 17  0  0  0  0  0  0  0  0999 V2000
   40.3970   30.2520   50.2110 C   0  0  0  0  0  0  0  0  0  0  0  0
   39.9140   29.7060   51.5490 C   0  0  0  0  0  0  0  0  0  0  0  0
   39.8300   30.6230   52.5790 C   0  0  0  0  0  0  0  0  0  0  0  0
   39.3760   30.1390   53.6710 C   0  0  0  0  0  0  0  0  0  0  0  0
   38.9640   28.7880   53.8290 C   0  0  0  0  0  0  0  0  0  0  0  0
   38.4740   28.2510   55.0720 O   0  0  0  0  0  0  0  0  0  0  0  0
   39.0350   27.8850   52.7590 C   0  0  0  0  0  0  0  0  0  0  0  0
   39.4980   28.4750   51.6380 C   0  0  0  0  0  0  0  0  0  0  0  0
   39.6360   27.6190   50.5130 O   0  0  0  0  0  0  0  0  0  0  0  0
   41.1166   31.0655   50.3852 H   0  0  0  0  0  0  0  0  0  0  0  0
   40.8842   29.4473   49.6409 H   0  0  0  0  0  0  0  0  0  0  0  0
   39.5388   30.6374   49.6409 H   0  0  0  0  0  0  0  0  0  0  0  0
   40.1275   31.6762   52.4688 H   0  0  0  0  0  0  0  0  0  0  0  0
   39.2995   30.8080   54.5408 H   0  0  0  0  0  0  0  0  0  0  0  0
   39.0840   27.7540   55.6720 H   0  0  0  0  0  0  0  0  0  0  0  0
   38.7482   26.8251   52.8255 H   0  0  0  0  0  0  0  0  0  0  0  0
   39.9040   26.6740   50.6390 H   0  0  0  0  0  0  0  0  0  0  0  0
  1  2  1  0
  2  3  1  0
  3  4  2  0
  4  5  1  0
  5  6  1  0
  5  7  2  0
  7  8  1  0
  8  9  1  0
  8  2  2  0
  1 10  1  0
  1 11  1  0
  1 12  1  0
  3 13  1  0
  4 14  1  0
  6 15  1  0
  7 16  1  0
  9 17  1  0
M  END
>  <ID>  (69) 
Pocket2Mol_71_0

>  <docking_score>  (69) 
-5.837

$$$$
Pocket2Mol_72
     RDKit          3D

 15 16  0  0  0  0  0  0  0  0999 V2000
   39.6830   30.6820   53.6010 C   0  0  0  0  0  0  0  0  0  0  0  0
   39.2710   30.3190   54.9070 C   0  0  0  0  0  0  0  0  0  0  0  0
   38.8010   28.8890   54.3880 C   0  0  0  0  0  0  0  0  0  0  0  0
   39.3000   28.7380   52.5340 C   0  0  0  0  0  0  0  0  0  0  0  0
   39.1760   27.8270   51.5780 C   0  0  0  0  0  0  0  0  0  0  0  0
   39.6500   28.2610   50.3610 C   0  0  0  0  0  0  0  0  0  0  0  0
   40.1230   29.4710   50.2260 C   0  0  0  0  0  0  0  0  0  0  0  0
   40.1270   30.4530   51.3270 C   0  0  0  0  0  0  0  0  0  0  0  0
   39.7500   30.0140   52.4360 C   0  0  0  0  0  0  0  0  0  0  0  0
   39.2744   30.8222   55.8852 H   0  0  0  0  0  0  0  0  0  0  0  0
   38.2828   28.1227   54.9832 H   0  0  0  0  0  0  0  0  0  0  0  0
   38.7404   26.8301   51.7406 H   0  0  0  0  0  0  0  0  0  0  0  0
   39.6303   27.5833   49.4948 H   0  0  0  0  0  0  0  0  0  0  0  0
   40.5354   29.7702   49.2511 H   0  0  0  0  0  0  0  0  0  0  0  0
   40.4395   31.4978   51.1828 H   0  0  0  0  0  0  0  0  0  0  0  0
  1  2  2  0
  2  3  1  0
  3  4  2  0
  4  5  1  0
  5  6  2  0
  6  7  1  0
  7  8  2  0
  8  9  1  0
  9  1  2  0
  9  4  1  0
  2 10  1  0
  3 11  1  0
  5 12  1  0
  6 13  1  0
  7 14  1  0
  8 15  1  0
M  END
>  <ID>  (70) 
Pocket2Mol_72_0

>  <docking_score>  (70) 
-6.62

$$$$
Pocket2Mol_73
     RDKit          3D

 15 16  0  0  0  0  0  0  0  0999 V2000
   40.5670   30.2840   50.6710 C   0  0  0  0  0  0  0  0  0  0  0  0
   40.1620   30.6010   51.9840 C   0  0  0  0  0  0  0  0  0  0  0  0
   39.3860   29.6390   52.5110 C   0  0  0  0  0  0  0  0  0  0  0  0
   38.8420   29.4180   53.5920 N   0  0  0  0  0  0  0  0  0  0  0  0
   38.1700   28.1550   53.7470 C   0  0  0  0  0  0  0  0  0  0  0  0
   38.0610   27.2060   52.8800 N   0  0  0  0  0  0  0  0  0  0  0  0
   38.6660   27.4130   51.5760 C   0  0  0  0  0  0  0  0  0  0  0  0
   39.3580   28.3850   51.3930 C   0  0  0  0  0  0  0  0  0  0  0  0
   39.9930   28.9720   50.2650 C   0  0  0  0  0  0  0  0  0  0  0  0
   41.2119   30.9133   50.0400 H   0  0  0  0  0  0  0  0  0  0  0  0
   40.4465   31.5230   52.5121 H   0  0  0  0  0  0  0  0  0  0  0  0
   38.6544   27.6855   54.6159 H   0  0  0  0  0  0  0  0  0  0  0  0
   37.1306   28.5148   53.7343 H   0  0  0  0  0  0  0  0  0  0  0  0
   38.4954   26.6914   50.7634 H   0  0  0  0  0  0  0  0  0  0  0  0
   40.0507   28.5302   49.2593 H   0  0  0  0  0  0  0  0  0  0  0  0
  1  2  2  0
  2  3  1  0
  3  4  2  0
  4  5  1  0
  5  6  1  0
  6  7  2  0
  7  8  1  0
  8  9  2  0
  9  1  1  0
  8  3  1  0
  1 10  1  0
  2 11  1  0
  5 12  1  0
  5 13  1  0
  7 14  1  0
  9 15  1  0
M  END
>  <ID>  (71) 
Pocket2Mol_73_0

>  <docking_score>  (71) 
-5.874

$$$$
Pocket2Mol_74
     RDKit          3D

 16 17  0  0  0  0  0  0  0  0999 V2000
   38.8190   29.7300   53.7770 C   0  0  0  0  0  0  0  0  0  0  0  0
   39.4020   29.6480   52.5670 C   0  0  0  0  0  0  0  0  0  0  0  0
   40.1590   30.4830   52.0270 C   0  0  0  0  0  0  0  0  0  0  0  0
   40.4290   30.3530   50.6610 C   0  0  0  0  0  0  0  0  0  0  0  0
   40.1550   29.1040   50.0040 C   0  0  0  0  0  0  0  0  0  0  0  0
   39.3920   28.1570   50.6630 C   0  0  0  0  0  0  0  0  0  0  0  0
   39.0500   28.5250   51.8900 C   0  0  0  0  0  0  0  0  0  0  0  0
   38.1220   27.5740   52.5690 N   0  0  0  0  0  0  0  0  0  0  0  0
   37.9050   28.4140   53.9880 C   0  0  0  0  0  0  0  0  0  0  0  0
   38.9431   30.5512   54.4982 H   0  0  0  0  0  0  0  0  0  0  0  0
   40.6028   31.3015   52.6128 H   0  0  0  0  0  0  0  0  0  0  0  0
   40.8470   31.1983   50.0947 H   0  0  0  0  0  0  0  0  0  0  0  0
   40.5452   28.9049   48.9950 H   0  0  0  0  0  0  0  0  0  0  0  0
   39.0988   27.1963   50.2147 H   0  0  0  0  0  0  0  0  0  0  0  0
   36.8483   28.6853   54.1288 H   0  0  0  0  0  0  0  0  0  0  0  0
   38.1811   27.8339   54.8809 H   0  0  0  0  0  0  0  0  0  0  0  0
  1  2  2  0
  2  3  1  0
  3  4  2  0
  4  5  1  0
  5  6  2  0
  6  7  1  0
  7  8  2  0
  8  9  1  0
  9  1  1  0
  7  2  1  0
  1 10  1  0
  3 11  1  0
  4 12  1  0
  5 13  1  0
  6 14  1  0
  9 15  1  0
  9 16  1  0
M  END
>  <ID>  (72) 
Pocket2Mol_74_0

>  <docking_score>  (72) 
-6.274

$$$$
Pocket2Mol_75
     RDKit          3D

 22 23  0  0  0  0  0  0  0  0999 V2000
   38.0100   27.6040   53.2800 C   0  0  0  0  0  0  0  0  0  0  0  0
   37.9560   28.1290   52.0660 N   0  0  0  0  0  0  0  0  0  0  0  0
   39.1630   28.4600   51.7560 N   0  0  1  0  0  0  0  0  0  0  0  0
   39.6630   28.4460   50.6380 C   0  0  0  0  0  0  0  0  0  0  0  0
   40.1870   29.6230   50.3490 C   0  0  0  0  0  0  0  0  0  0  0  0
   40.1500   30.3920   51.4150 C   0  0  0  0  0  0  0  0  0  0  0  0
   39.3280   29.6300   52.1560 C   0  0  2  0  0  0  0  0  0  0  0  0
   39.2570   29.4410   53.4190 C   0  0  0  0  0  0  0  0  0  0  0  0
   38.5400   28.3440   54.0610 C   0  0  0  0  0  0  0  0  0  0  0  0
   37.6168   26.6103   53.5407 H   0  0  0  0  0  0  0  0  0  0  0  0
   39.6390   27.6520   52.1810 H   0  0  0  0  0  0  0  0  0  0  0  0
   40.4524   27.6807   50.6045 H   0  0  0  0  0  0  0  0  0  0  0  0
   38.8790   28.2161   49.9015 H   0  0  0  0  0  0  0  0  0  0  0  0
   41.2308   29.4910   50.0279 H   0  0  0  0  0  0  0  0  0  0  0  0
   39.6109   30.0921   49.5378 H   0  0  0  0  0  0  0  0  0  0  0  0
   41.1403   30.5121   51.8786 H   0  0  0  0  0  0  0  0  0  0  0  0
   39.8339   31.4331   51.2530 H   0  0  0  0  0  0  0  0  0  0  0  0
   38.6418   30.4692   51.9693 H   0  0  0  0  0  0  0  0  0  0  0  0
   40.2985   29.3511   53.7614 H   0  0  0  0  0  0  0  0  0  0  0  0
   38.6234   30.2911   53.7120 H   0  0  0  0  0  0  0  0  0  0  0  0
   39.2552   27.7635   54.6623 H   0  0  0  0  0  0  0  0  0  0  0  0
   37.7464   28.7898   54.6786 H   0  0  0  0  0  0  0  0  0  0  0  0
  1  2  2  0
  2  3  1  0
  3  4  1  0
  4  5  1  0
  5  6  1  0
  6  7  1  0
  7  8  1  0
  8  9  1  0
  9  1  1  0
  7  3  1  0
  1 10  1  0
  3 11  1  1
  4 12  1  0
  4 13  1  0
  5 14  1  0
  5 15  1  0
  6 16  1  0
  6 17  1  0
  7 18  1  6
  8 19  1  0
  8 20  1  0
  9 21  1  0
  9 22  1  0
M  CHG  1   3   1
M  END
>  <ID>  (73) 
Pocket2Mol_75_0

>  <docking_score>  (73) 
-5.73

$$$$
Pocket2Mol_76
     RDKit          3D

 12 12  0  0  0  0  0  0  0  0999 V2000
   37.2160   29.0760   54.1440 O   0  0  0  0  0  0  0  0  0  0  0  0
   38.4150   28.9550   53.9310 C   0  0  0  0  0  0  0  0  0  0  0  0
   39.1100   28.2760   54.7670 O   0  0  0  0  0  0  0  0  0  0  0  0
   39.0780   29.2720   52.7510 C   0  0  0  0  0  0  0  0  0  0  0  0
   39.8390   30.3000   52.3400 C   0  0  0  0  0  0  0  0  0  0  0  0
   40.3970   30.3110   51.1020 C   0  0  0  0  0  0  0  0  0  0  0  0
   39.7850   28.8310   50.5230 C   0  0  0  0  0  0  0  0  0  0  0  0
   39.0630   28.2690   51.5460 C   0  0  0  0  0  0  0  0  0  0  0  0
   38.2710   27.3730   51.4880 O   0  0  0  0  0  0  0  0  0  0  0  0
   40.0133   31.1481   53.0185 H   0  0  0  0  0  0  0  0  0  0  0  0
   41.0489   31.0533   50.6182 H   0  0  0  0  0  0  0  0  0  0  0  0
   39.9390   28.4063   49.5200 H   0  0  0  0  0  0  0  0  0  0  0  0
  1  2  2  0
  2  3  1  0
  2  4  1  0
  4  5  2  0
  5  6  1  0
  6  7  2  0
  7  8  1  0
  8  9  2  0
  8  4  1  0
  5 10  1  0
  6 11  1  0
  7 12  1  0
M  CHG  1   3  -1
M  END
>  <ID>  (74) 
Pocket2Mol_76_0

>  <docking_score>  (74) 
-5.598

$$$$
Pocket2Mol_77
     RDKit          3D

 15 15  0  0  0  0  0  0  0  0999 V2000
   40.5820   30.3410   50.6780 C   0  0  0  0  0  0  0  0  0  0  0  0
   40.1710   29.3260   50.0330 C   0  0  0  0  0  0  0  0  0  0  0  0
   39.4490   28.4170   50.6850 C   0  0  0  0  0  0  0  0  0  0  0  0
   39.7530   28.7690   51.9790 C   0  0  0  0  0  0  0  0  0  0  0  0
   39.9390   30.4430   51.9130 C   0  0  0  0  0  0  0  0  0  0  0  0
   41.6655   30.2477   50.8432 H   0  0  0  0  0  0  0  0  0  0  0  0
   40.3581   31.2437   50.0907 H   0  0  0  0  0  0  0  0  0  0  0  0
   39.5548   29.6961   49.2003 H   0  0  0  0  0  0  0  0  0  0  0  0
   41.0901   28.7923   49.7495 H   0  0  0  0  0  0  0  0  0  0  0  0
   38.3742   28.5188   50.4741 H   0  0  0  0  0  0  0  0  0  0  0  0
   39.6657   27.3712   50.4217 H   0  0  0  0  0  0  0  0  0  0  0  0
   38.9358   28.4930   52.6616 H   0  0  0  0  0  0  0  0  0  0  0  0
   40.6506   28.2578   52.3572 H   0  0  0  0  0  0  0  0  0  0  0  0
   38.9890   30.9964   51.8771 H   0  0  0  0  0  0  0  0  0  0  0  0
   40.4247   30.9758   52.7438 H   0  0  0  0  0  0  0  0  0  0  0  0
  1  2  1  0
  2  3  1  0
  3  4  1  0
  4  5  1  0
  5  1  1  0
  1  6  1  0
  1  7  1  0
  2  8  1  0
  2  9  1  0
  3 10  1  0
  3 11  1  0
  4 12  1  0
  4 13  1  0
  5 14  1  0
  5 15  1  0
M  END
>  <ID>  (75) 
Pocket2Mol_77_0

>  <docking_score>  (75) 
-4.272

$$$$
Pocket2Mol_78
     RDKit          3D

 14 14  0  0  0  0  0  0  0  0999 V2000
   39.8640   30.7520   54.7450 O   0  0  0  0  0  0  0  0  0  0  0  0
   39.1170   29.9400   54.0300 C   0  0  0  0  0  0  0  0  0  0  0  0
   38.1990   29.1910   54.5340 O   0  0  0  0  0  0  0  0  0  0  0  0
   39.4560   29.6880   52.6860 C   0  0  0  0  0  0  0  0  0  0  0  0
   40.1340   30.5350   51.8950 C   0  0  0  0  0  0  0  0  0  0  0  0
   40.4330   30.2110   50.6100 C   0  0  0  0  0  0  0  0  0  0  0  0
   39.9120   28.9040   50.3100 C   0  0  0  0  0  0  0  0  0  0  0  0
   39.3400   27.9760   50.9840 C   0  0  0  0  0  0  0  0  0  0  0  0
   39.0100   28.1510   52.1760 C   0  0  0  0  0  0  0  0  0  0  0  0
   40.4531   31.5089   52.2947 H   0  0  0  0  0  0  0  0  0  0  0  0
   40.9880   30.8497   49.9071 H   0  0  0  0  0  0  0  0  0  0  0  0
   40.0335   28.6377   49.2497 H   0  0  0  0  0  0  0  0  0  0  0  0
   39.1359   27.0076   50.5039 H   0  0  0  0  0  0  0  0  0  0  0  0
   38.4998   27.4046   52.8026 H   0  0  0  0  0  0  0  0  0  0  0  0
  1  2  2  0
  2  3  1  0
  2  4  1  0
  4  5  2  0
  5  6  1  0
  6  7  2  0
  7  8  1  0
  8  9  2  0
  9  4  1  0
  5 10  1  0
  6 11  1  0
  7 12  1  0
  8 13  1  0
  9 14  1  0
M  CHG  1   3  -1
M  END
>  <ID>  (76) 
Pocket2Mol_78_0

>  <docking_score>  (76) 
-5.946

$$$$
Pocket2Mol_79
     RDKit          3D

 17 18  0  0  0  0  0  0  0  0999 V2000
   39.7120   28.5080   50.3910 C   0  0  0  0  0  0  0  0  0  0  0  0
   39.2240   27.9510   51.5290 C   0  0  0  0  0  0  0  0  0  0  0  0
   39.2650   28.7590   52.6100 C   0  0  0  0  0  0  0  0  0  0  0  0
   38.7670   28.8460   54.4280 C   0  0  0  0  0  0  0  0  0  0  0  0
   39.2240   30.2470   55.0070 C   0  0  0  0  0  0  0  0  0  0  0  0
   39.6730   30.6660   53.7340 C   0  0  0  0  0  0  0  0  0  0  0  0
   39.7360   30.0300   52.5500 C   0  0  1  0  0  0  0  0  0  0  0  0
   40.1260   30.4930   51.4560 C   0  0  0  0  0  0  0  0  0  0  0  0
   40.1490   29.6630   50.3170 C   0  0  0  0  0  0  0  0  0  0  0  0
   39.7193   27.8942   49.4782 H   0  0  0  0  0  0  0  0  0  0  0  0
   38.8277   26.9256   51.5672 H   0  0  0  0  0  0  0  0  0  0  0  0
   38.2470   28.0566   54.9906 H   0  0  0  0  0  0  0  0  0  0  0  0
   39.2011   30.7104   56.0044 H   0  0  0  0  0  0  0  0  0  0  0  0
   40.0383   31.7032   53.7061 H   0  0  0  0  0  0  0  0  0  0  0  0
   38.7100   30.3540   52.3214 H   0  0  0  0  0  0  0  0  0  0  0  0
   40.4493   31.5419   51.3828 H   0  0  0  0  0  0  0  0  0  0  0  0
   40.5538   30.0406   49.3664 H   0  0  0  0  0  0  0  0  0  0  0  0
  1  2  2  0
  2  3  1  0
  3  4  2  0
  4  5  1  0
  5  6  2  0
  6  7  1  0
  7  8  1  0
  8  9  2  0
  9  1  1  0
  7  3  1  0
  1 10  1  0
  2 11  1  0
  4 12  1  0
  5 13  1  0
  6 14  1  0
  7 15  1  6
  8 16  1  0
  9 17  1  0
M  END
>  <ID>  (77) 
Pocket2Mol_79_0

>  <docking_score>  (77) 
-6.643

$$$$
Pocket2Mol_7
     RDKit          3D

 13 13  0  0  0  0  0  0  0  0999 V2000
   40.2090   29.3260   49.8940 C   0  0  0  0  0  0  0  0  0  0  0  0
   40.4960   30.4510   50.3570 C   0  0  0  0  0  0  0  0  0  0  0  0
   40.0950   30.4260   51.7010 C   0  0  0  0  0  0  0  0  0  0  0  0
   39.5380   29.2050   51.9610 C   0  0  0  0  0  0  0  0  0  0  0  0
   39.6500   28.4520   50.8310 C   0  0  0  0  0  0  0  0  0  0  0  0
   40.3809   29.0486   48.8435 H   0  0  0  0  0  0  0  0  0  0  0  0
   40.9663   31.2884   49.8208 H   0  0  0  0  0  0  0  0  0  0  0  0
   40.9675   30.5829   52.3523 H   0  0  0  0  0  0  0  0  0  0  0  0
   39.3631   31.2245   51.8926 H   0  0  0  0  0  0  0  0  0  0  0  0
   40.0718   28.7182   52.7905 H   0  0  0  0  0  0  0  0  0  0  0  0
   38.4820   29.3155   52.2485 H   0  0  0  0  0  0  0  0  0  0  0  0
   40.3091   27.5879   51.0011 H   0  0  0  0  0  0  0  0  0  0  0  0
   38.6853   28.0392   50.5009 H   0  0  0  0  0  0  0  0  0  0  0  0
  1  2  2  0
  2  3  1  0
  3  4  1  0
  4  5  1  0
  5  1  1  0
  1  6  1  0
  2  7  1  0
  3  8  1  0
  3  9  1  0
  4 10  1  0
  4 11  1  0
  5 12  1  0
  5 13  1  0
M  END
>  <ID>  (78) 
Pocket2Mol_7_0

>  <docking_score>  (78) 
-4.384

$$$$
Pocket2Mol_80
     RDKit          3D

 17 17  0  0  0  0  0  0  0  0999 V2000
   40.7570   30.3790   49.9370 C   0  0  0  0  0  0  0  0  0  0  0  0
   40.0090   29.5080   50.9390 C   0  0  0  0  0  0  0  0  0  0  0  0
   39.8090   30.0620   52.1890 C   0  0  0  0  0  0  0  0  0  0  0  0
   39.1360   29.3230   52.9850 C   0  0  0  0  0  0  0  0  0  0  0  0
   38.6920   28.0470   52.7770 C   0  0  0  0  0  0  0  0  0  0  0  0
   37.9960   27.2410   53.7330 C   0  0  0  0  0  0  0  0  0  0  0  0
   36.9530   27.1100   53.6280 O   0  0  0  0  0  0  0  0  0  0  0  0
   38.9220   27.5860   51.5400 C   0  0  0  0  0  0  0  0  0  0  0  0
   39.5590   28.2720   50.7740 C   0  0  0  0  0  0  0  0  0  0  0  0
   41.3813   31.1059   50.4773 H   0  0  0  0  0  0  0  0  0  0  0  0
   41.3962   29.7448   49.3052 H   0  0  0  0  0  0  0  0  0  0  0  0
   40.0335   30.9151   49.3052 H   0  0  0  0  0  0  0  0  0  0  0  0
   40.1951   31.0519   52.4737 H   0  0  0  0  0  0  0  0  0  0  0  0
   38.8825   29.7688   53.9581 H   0  0  0  0  0  0  0  0  0  0  0  0
   38.5382   26.7656   54.5637 H   0  0  0  0  0  0  0  0  0  0  0  0
   38.5392   26.6033   51.2274 H   0  0  0  0  0  0  0  0  0  0  0  0
   39.7979   27.8058   49.8067 H   0  0  0  0  0  0  0  0  0  0  0  0
  1  2  1  0
  2  3  1  0
  3  4  2  0
  4  5  1  0
  5  6  1  0
  6  7  2  0
  5  8  2  0
  8  9  1  0
  9  2  2  0
  1 10  1  0
  1 11  1  0
  1 12  1  0
  3 13  1  0
  4 14  1  0
  6 15  1  0
  8 16  1  0
  9 17  1  0
M  END
>  <ID>  (79) 
Pocket2Mol_80_0

>  <docking_score>  (79) 
-6.371

$$$$
Pocket2Mol_81
     RDKit          3D

 15 16  0  0  0  0  0  0  0  0999 V2000
   40.3870   30.2840   51.0600 C   0  0  0  0  0  0  0  0  0  0  0  0
   40.1000   29.1580   50.3000 C   0  0  0  0  0  0  0  0  0  0  0  0
   39.2940   28.1910   50.7390 C   0  0  0  0  0  0  0  0  0  0  0  0
   38.8900   28.3570   51.9910 C   0  0  0  0  0  0  0  0  0  0  0  0
   37.9660   27.4530   52.8130 N   0  0  0  0  0  0  0  0  0  0  0  0
   37.7470   28.0070   54.0920 N   0  0  0  0  0  0  0  0  0  0  0  0
   38.5050   29.2670   54.0140 C   0  0  0  0  0  0  0  0  0  0  0  0
   39.1230   29.4020   52.8260 C   0  0  0  0  0  0  0  0  0  0  0  0
   39.8150   30.3650   52.4320 C   0  0  0  0  0  0  0  0  0  0  0  0
   41.0179   31.0917   50.6604 H   0  0  0  0  0  0  0  0  0  0  0  0
   40.5528   29.0605   49.3023 H   0  0  0  0  0  0  0  0  0  0  0  0
   38.9918   27.3339   50.1193 H   0  0  0  0  0  0  0  0  0  0  0  0
   37.2000   27.6270   54.8780 H   0  0  0  0  0  0  0  0  0  0  0  0
   38.5594   30.0066   54.8264 H   0  0  0  0  0  0  0  0  0  0  0  0
   39.9947   31.2395   53.0746 H   0  0  0  0  0  0  0  0  0  0  0  0
  1  2  1  0
  2  3  2  0
  3  4  1  0
  4  5  2  0
  5  6  1  0
  6  7  1  0
  7  8  2  0
  8  9  1  0
  9  1  2  0
  8  4  1  0
  1 10  1  0
  2 11  1  0
  3 12  1  0
  6 13  1  0
  7 14  1  0
  9 15  1  0
M  END
>  <ID>  (80) 
Pocket2Mol_81_0

>  <docking_score>  (80) 
-6.068

$$$$
Pocket2Mol_82
     RDKit          3D

 16 16  0  0  0  0  0  0  0  0999 V2000
   36.9310   27.7820   53.0900 N   0  0  0  0  0  0  0  0  0  0  0  0
   38.1790   27.8960   53.1400 C   0  0  0  0  0  0  0  0  0  0  0  0
   38.7110   27.0550   54.1610 O   0  0  0  0  0  0  0  0  0  0  0  0
   38.9540   28.5430   52.3690 C   0  0  0  0  0  0  0  0  0  0  0  0
   39.2160   28.0370   51.2120 C   0  0  0  0  0  0  0  0  0  0  0  0
   39.9350   28.9510   50.2860 C   0  0  0  0  0  0  0  0  0  0  0  0
   40.3560   30.1210   50.5960 C   0  0  0  0  0  0  0  0  0  0  0  0
   40.1520   30.5690   51.8880 C   0  0  0  0  0  0  0  0  0  0  0  0
   39.4270   29.7140   52.7900 C   0  0  0  0  0  0  0  0  0  0  0  0
   36.4370   27.2170   53.7940 H   0  0  0  0  0  0  0  0  0  0  0  0
   36.4010   28.2540   52.3430 H   0  0  0  0  0  0  0  0  0  0  0  0
   38.9305   27.0120   50.9330 H   0  0  0  0  0  0  0  0  0  0  0  0
   40.1189   28.5975   49.2607 H   0  0  0  0  0  0  0  0  0  0  0  0
   40.8663   30.7523   49.8537 H   0  0  0  0  0  0  0  0  0  0  0  0
   40.5319   31.5479   52.2159 H   0  0  0  0  0  0  0  0  0  0  0  0
   39.2630   30.0290   53.8311 H   0  0  0  0  0  0  0  0  0  0  0  0
  1  2  1  0
  2  3  2  0
  2  4  1  0
  4  5  2  0
  5  6  1  0
  6  7  2  0
  7  8  1  0
  8  9  2  0
  9  4  1  0
  1 10  1  0
  1 11  1  0
  5 12  1  0
  6 13  1  0
  7 14  1  0
  8 15  1  0
  9 16  1  0
M  END
>  <ID>  (81) 
Pocket2Mol_82_0

>  <docking_score>  (81) 
-6.261

$$$$
Pocket2Mol_83
     RDKit          3D

 16 17  0  0  0  0  0  0  0  0999 V2000
   40.4350   30.4630   51.2270 C   0  0  0  0  0  0  0  0  0  0  0  0
   40.2620   29.6070   50.1950 C   0  0  0  0  0  0  0  0  0  0  0  0
   39.5150   28.5330   50.6040 C   0  0  0  0  0  0  0  0  0  0  0  0
   38.9110   28.3850   51.7380 C   0  0  0  0  0  0  0  0  0  0  0  0
   38.0420   27.5400   52.3810 N   0  0  0  0  0  0  0  0  0  0  0  0
   37.7820   28.1690   53.5490 C   0  0  0  0  0  0  0  0  0  0  0  0
   38.4720   29.1140   53.9260 C   0  0  0  0  0  0  0  0  0  0  0  0
   39.1940   29.3190   52.6790 C   0  0  0  0  0  0  0  0  0  0  0  0
   39.8230   30.4460   52.4380 C   0  0  0  0  0  0  0  0  0  0  0  0
   41.1613   31.2731   51.0651 H   0  0  0  0  0  0  0  0  0  0  0  0
   40.6607   29.7508   49.1799 H   0  0  0  0  0  0  0  0  0  0  0  0
   39.4184   27.7040   49.8874 H   0  0  0  0  0  0  0  0  0  0  0  0
   37.6730   26.6380   52.0510 H   0  0  0  0  0  0  0  0  0  0  0  0
   36.9406   27.8302   54.1713 H   0  0  0  0  0  0  0  0  0  0  0  0
   38.5262   29.6358   54.8929 H   0  0  0  0  0  0  0  0  0  0  0  0
   39.8510   31.2888   53.1443 H   0  0  0  0  0  0  0  0  0  0  0  0
  1  2  2  0
  2  3  1  0
  3  4  2  0
  4  5  1  0
  5  6  1  0
  6  7  2  0
  7  8  1  0
  8  9  2  0
  9  1  1  0
  8  4  1  0
  1 10  1  0
  2 11  1  0
  3 12  1  0
  5 13  1  0
  6 14  1  0
  7 15  1  0
  9 16  1  0
M  END
>  <ID>  (82) 
Pocket2Mol_83_0

>  <docking_score>  (82) 
-6.302

$$$$
Pocket2Mol_84
     RDKit          3D

 19 19  0  0  0  0  0  0  0  0999 V2000
   39.0120   27.9060   51.4460 C   0  0  0  0  0  0  0  0  0  0  0  0
   38.2780   28.0350   52.6230 C   0  0  2  0  0  0  0  0  0  0  0  0
   36.9290   28.1680   52.5250 O   0  0  0  0  0  0  0  0  0  0  0  0
   38.9900   29.2180   53.0220 C   0  0  0  0  0  0  0  0  0  0  0  0
   39.4060   29.5390   54.2560 C   0  0  0  0  0  0  0  0  0  0  0  0
   39.3010   28.4220   55.2230 O   0  0  0  0  0  0  0  0  0  0  0  0
   38.0230   28.0280   55.4400 C   0  0  0  0  0  0  0  0  0  0  0  0
   37.6260   26.9490   54.5640 C   0  0  0  0  0  0  0  0  0  0  0  0
   38.5120   27.1440   53.4480 O   0  0  0  0  0  0  0  0  0  0  0  0
   40.0682   27.7204   51.6910 H   0  0  0  0  0  0  0  0  0  0  0  0
   38.6182   27.0633   50.8588 H   0  0  0  0  0  0  0  0  0  0  0  0
   38.9292   28.8325   50.8588 H   0  0  0  0  0  0  0  0  0  0  0  0
   36.6880   29.1270   52.5720 H   0  0  0  0  0  0  0  0  0  0  0  0
   39.2196   29.9415   52.2258 H   0  0  0  0  0  0  0  0  0  0  0  0
   39.7881   30.5351   54.5239 H   0  0  0  0  0  0  0  0  0  0  0  0
   37.9291   27.6901   56.4826 H   0  0  0  0  0  0  0  0  0  0  0  0
   37.3665   28.8866   55.2356 H   0  0  0  0  0  0  0  0  0  0  0  0
   37.7851   25.9686   55.0367 H   0  0  0  0  0  0  0  0  0  0  0  0
   36.5591   26.9585   54.2963 H   0  0  0  0  0  0  0  0  0  0  0  0
  1  2  1  0
  2  3  1  6
  2  4  1  0
  4  5  2  0
  5  6  1  0
  6  7  1  0
  7  8  1  0
  8  9  1  0
  9  2  1  0
  1 10  1  0
  1 11  1  0
  1 12  1  0
  3 13  1  0
  4 14  1  0
  5 15  1  0
  7 16  1  0
  7 17  1  0
  8 18  1  0
  8 19  1  0
M  END
>  <ID>  (83) 
Pocket2Mol_84_0

>  <docking_score>  (83) 
-4.874

$$$$
Pocket2Mol_85
     RDKit          3D

 13 13  0  0  0  0  0  0  0  0999 V2000
   37.6180   28.0750   52.1150 O   0  0  0  0  0  0  0  0  0  0  0  0
   38.6620   27.5430   52.6190 C   0  0  0  0  0  0  0  0  0  0  0  0
   39.7150   27.4140   51.8820 O   0  0  0  0  0  0  0  0  0  0  0  0
   38.5310   26.7820   53.8520 C   0  0  0  0  0  0  0  0  0  0  0  0
   37.4960   26.5010   54.5130 C   0  0  0  0  0  0  0  0  0  0  0  0
   37.6120   25.7160   55.5980 C   0  0  0  0  0  0  0  0  0  0  0  0
   38.9260   25.6520   55.6270 C   0  0  0  0  0  0  0  0  0  0  0  0
   39.7780   24.9770   56.6940 O   0  0  0  0  0  0  0  0  0  0  0  0
   39.6850   26.2820   54.4920 C   0  0  0  0  0  0  0  0  0  0  0  0
   36.5140   26.8914   54.2075 H   0  0  0  0  0  0  0  0  0  0  0  0
   36.8502   25.2690   56.2536 H   0  0  0  0  0  0  0  0  0  0  0  0
   40.3733   27.0745   54.8209 H   0  0  0  0  0  0  0  0  0  0  0  0
   40.3636   25.6433   53.9075 H   0  0  0  0  0  0  0  0  0  0  0  0
  1  2  2  0
  2  3  1  0
  2  4  1  0
  4  5  2  0
  5  6  1  0
  6  7  2  0
  7  8  1  0
  7  9  1  0
  9  4  1  0
  5 10  1  0
  6 11  1  0
  9 12  1  0
  9 13  1  0
M  CHG  2   3  -1   8  -1
M  END
>  <ID>  (84) 
Pocket2Mol_85_0

>  <docking_score>  (84) 
-5.38

$$$$
Pocket2Mol_86
     RDKit          3D

 17 17  0  0  0  0  0  0  0  0999 V2000
   40.8810   30.4110   50.2500 C   0  0  0  0  0  0  0  0  0  0  0  0
   39.9310   29.5760   51.0510 C   0  0  0  0  0  0  0  0  0  0  0  0
   39.6110   28.3550   50.6020 C   0  0  0  0  0  0  0  0  0  0  0  0
   38.8310   27.5380   51.3650 C   0  0  0  0  0  0  0  0  0  0  0  0
   38.4110   27.9170   52.6000 C   0  0  0  0  0  0  0  0  0  0  0  0
   37.6180   27.1610   53.4380 O   0  0  0  0  0  0  0  0  0  0  0  0
   38.9430   29.2460   53.0260 C   0  0  0  0  0  0  0  0  0  0  0  0
   38.3850   29.6410   54.3450 O   0  0  0  0  0  0  0  0  0  0  0  0
   39.7140   30.0760   52.2570 C   0  0  0  0  0  0  0  0  0  0  0  0
   41.5304   30.9818   50.9300 H   0  0  0  0  0  0  0  0  0  0  0  0
   41.4982   29.7577   49.6157 H   0  0  0  0  0  0  0  0  0  0  0  0
   40.3123   31.1069   49.6157 H   0  0  0  0  0  0  0  0  0  0  0  0
   39.9760   28.0134   49.6222 H   0  0  0  0  0  0  0  0  0  0  0  0
   38.5361   26.5533   50.9733 H   0  0  0  0  0  0  0  0  0  0  0  0
   36.6390   27.1230   53.2920 H   0  0  0  0  0  0  0  0  0  0  0  0
   38.1960   28.9500   55.0290 H   0  0  0  0  0  0  0  0  0  0  0  0
   40.1067   31.0442   52.6010 H   0  0  0  0  0  0  0  0  0  0  0  0
  1  2  1  0
  2  3  1  0
  3  4  2  0
  4  5  1  0
  5  6  1  0
  5  7  2  0
  7  8  1  0
  7  9  1  0
  9  2  2  0
  1 10  1  0
  1 11  1  0
  1 12  1  0
  3 13  1  0
  4 14  1  0
  6 15  1  0
  8 16  1  0
  9 17  1  0
M  END
>  <ID>  (85) 
Pocket2Mol_86_0

>  <docking_score>  (85) 
-5.853

$$$$
Pocket2Mol_87
     RDKit          3D

 18 18  0  0  0  0  0  0  0  0999 V2000
   38.9680   27.0040   54.2320 C   0  0  0  0  0  0  0  0  0  0  0  0
   38.2180   27.6890   53.2790 C   0  0  0  0  0  0  0  0  0  0  0  0
   36.9040   27.7050   53.2800 N   0  0  0  0  0  0  0  0  0  0  0  0
   38.9240   28.5950   52.4620 C   0  0  0  0  0  0  0  0  0  0  0  0
   39.4060   29.7790   52.8710 C   0  0  0  0  0  0  0  0  0  0  0  0
   40.0890   30.5910   52.0230 C   0  0  0  0  0  0  0  0  0  0  0  0
   40.3300   30.0480   50.6950 C   0  0  0  0  0  0  0  0  0  0  0  0
   39.8880   28.7120   50.3600 C   0  0  0  0  0  0  0  0  0  0  0  0
   39.1840   27.8650   51.0500 C   0  0  0  0  0  0  0  0  0  0  0  0
   38.6415   27.3022   55.2392 H   0  0  0  0  0  0  0  0  0  0  0  0
   38.8217   25.9212   54.1047 H   0  0  0  0  0  0  0  0  0  0  0  0
   40.0331   27.2476   54.1047 H   0  0  0  0  0  0  0  0  0  0  0  0
   36.3810   27.0460   53.8750 H   0  0  0  0  0  0  0  0  0  0  0  0
   39.2450   30.0974   53.9115 H   0  0  0  0  0  0  0  0  0  0  0  0
   40.4364   31.5915   52.3202 H   0  0  0  0  0  0  0  0  0  0  0  0
   40.8512   30.6567   49.9415 H   0  0  0  0  0  0  0  0  0  0  0  0
   40.1960   28.3573   49.3653 H   0  0  0  0  0  0  0  0  0  0  0  0
   38.8408   26.8676   50.7379 H   0  0  0  0  0  0  0  0  0  0  0  0
  1  2  1  0
  2  3  2  3
  2  4  1  0
  4  5  2  0
  5  6  1  0
  6  7  2  0
  7  8  1  0
  8  9  2  0
  9  4  1  0
  1 10  1  0
  1 11  1  0
  1 12  1  0
  3 13  1  0
  5 14  1  0
  6 15  1  0
  7 16  1  0
  8 17  1  0
  9 18  1  0
M  END
>  <ID>  (86) 
Pocket2Mol_87_0

>  <docking_score>  (86) 
-6.37

$$$$
Pocket2Mol_88
     RDKit          3D

 15 15  0  0  0  0  0  0  0  0999 V2000
   39.5280   29.2100   51.9880 C   0  0  0  0  0  0  0  0  0  0  0  0
   40.0980   30.4690   51.6400 C   0  0  0  0  0  0  0  0  0  0  0  0
   40.4430   30.3710   50.1930 C   0  0  0  0  0  0  0  0  0  0  0  0
   39.8670   29.2840   49.8490 N   0  0  0  0  0  0  0  0  0  0  0  0
   39.5370   28.3970   50.9280 C   0  0  0  0  0  0  0  0  0  0  0  0
   40.1147   28.7563   52.8003 H   0  0  0  0  0  0  0  0  0  0  0  0
   38.4898   29.3620   52.3184 H   0  0  0  0  0  0  0  0  0  0  0  0
   39.3715   31.2779   51.8069 H   0  0  0  0  0  0  0  0  0  0  0  0
   40.9824   30.6970   52.2531 H   0  0  0  0  0  0  0  0  0  0  0  0
   40.0454   31.2281   49.6297 H   0  0  0  0  0  0  0  0  0  0  0  0
   41.5253   30.3773   49.9968 H   0  0  0  0  0  0  0  0  0  0  0  0
   40.4920   28.7810   49.2050 H   0  0  0  0  0  0  0  0  0  0  0  0
   38.9700   29.5590   49.4230 H   0  0  0  0  0  0  0  0  0  0  0  0
   38.5502   27.9359   50.7741 H   0  0  0  0  0  0  0  0  0  0  0  0
   40.2388   27.5561   51.0303 H   0  0  0  0  0  0  0  0  0  0  0  0
  1  2  1  0
  2  3  1  0
  3  4  1  0
  4  5  1  0
  5  1  1  0
  1  6  1  0
  1  7  1  0
  2  8  1  0
  2  9  1  0
  3 10  1  0
  3 11  1  0
  4 12  1  0
  4 13  1  0
  5 14  1  0
  5 15  1  0
M  CHG  1   4   1
M  END
>  <ID>  (87) 
Pocket2Mol_88_0

>  <docking_score>  (87) 
-3.659

$$$$
Pocket2Mol_89
     RDKit          3D

 17 18  0  0  0  0  0  0  0  0999 V2000
   38.9890   29.5340   54.9510 C   0  0  0  0  0  0  0  0  0  0  0  0
   39.6220   30.4860   54.0600 C   0  0  0  0  0  0  0  0  0  0  0  0
   39.5480   30.0080   52.7150 C   0  0  0  0  0  0  0  0  0  0  0  0
   40.1280   30.5290   51.7400 C   0  0  0  0  0  0  0  0  0  0  0  0
   40.0920   29.6830   50.5930 C   0  0  0  0  0  0  0  0  0  0  0  0
   39.7220   28.4380   50.4510 C   0  0  0  0  0  0  0  0  0  0  0  0
   39.1610   27.8640   51.5820 C   0  0  0  0  0  0  0  0  0  0  0  0
   39.1440   28.6480   52.6150 C   0  0  0  0  0  0  0  0  0  0  0  0
   38.5290   28.0430   53.9050 C   0  0  0  0  0  0  0  0  0  0  0  0
   38.8124   29.6600   56.0294 H   0  0  0  0  0  0  0  0  0  0  0  0
   40.0884   31.4323   54.3715 H   0  0  0  0  0  0  0  0  0  0  0  0
   40.6076   31.5187   51.7630 H   0  0  0  0  0  0  0  0  0  0  0  0
   40.4361   30.1626   49.6648 H   0  0  0  0  0  0  0  0  0  0  0  0
   39.8459   27.8874   49.5068 H   0  0  0  0  0  0  0  0  0  0  0  0
   38.7664   26.8374   51.6012 H   0  0  0  0  0  0  0  0  0  0  0  0
   37.4438   27.8775   53.8348 H   0  0  0  0  0  0  0  0  0  0  0  0
   38.8621   27.0467   54.2312 H   0  0  0  0  0  0  0  0  0  0  0  0
  1  2  2  0
  2  3  1  0
  3  4  2  0
  4  5  1  0
  5  6  2  0
  6  7  1  0
  7  8  2  0
  8  9  1  0
  9  1  1  0
  8  3  1  0
  1 10  1  0
  2 11  1  0
  4 12  1  0
  5 13  1  0
  6 14  1  0
  7 15  1  0
  9 16  1  0
  9 17  1  0
M  END
>  <ID>  (88) 
Pocket2Mol_89_0

>  <docking_score>  (88) 
-6.585

$$$$
Pocket2Mol_8
     RDKit          3D

 12 12  0  0  0  0  0  0  0  0999 V2000
   40.1680   29.2430   50.0680 C   0  0  0  0  0  0  0  0  0  0  0  0
   39.6060   28.1670   50.6760 C   0  0  0  0  0  0  0  0  0  0  0  0
   39.1650   28.4320   51.8850 C   0  0  0  0  0  0  0  0  0  0  0  0
   39.4160   29.5560   52.6120 C   0  0  0  0  0  0  0  0  0  0  0  0
   40.0670   30.4850   51.9140 C   0  0  0  0  0  0  0  0  0  0  0  0
   40.5400   30.4150   50.6310 C   0  0  0  0  0  0  0  0  0  0  0  0
   40.3419   29.1502   48.9858 H   0  0  0  0  0  0  0  0  0  0  0  0
   39.5279   27.1759   50.2052 H   0  0  0  0  0  0  0  0  0  0  0  0
   38.5289   27.6691   52.3577 H   0  0  0  0  0  0  0  0  0  0  0  0
   39.1138   29.6829   53.6620 H   0  0  0  0  0  0  0  0  0  0  0  0
   40.2488   31.4349   52.4380 H   0  0  0  0  0  0  0  0  0  0  0  0
   41.1338   31.1954   50.1327 H   0  0  0  0  0  0  0  0  0  0  0  0
  1  2  1  0
  2  3  2  0
  3  4  1  0
  4  5  2  0
  5  6  1  0
  6  1  2  0
  1  7  1  0
  2  8  1  0
  3  9  1  0
  4 10  1  0
  5 11  1  0
  6 12  1  0
M  END
>  <ID>  (89) 
Pocket2Mol_8_0

>  <docking_score>  (89) 
-5.026

$$$$
Pocket2Mol_90
     RDKit          3D

 14 14  0  0  0  0  0  0  0  0999 V2000
   37.8310   29.0210   54.0920 N   0  0  0  0  0  0  0  0  0  0  0  0
   38.8920   29.5320   53.7600 C   0  0  0  0  0  0  0  0  0  0  0  0
   39.6480   30.0920   54.6670 O   0  0  0  0  0  0  0  0  0  0  0  0
   39.4040   29.6030   52.4690 C   0  0  0  0  0  0  0  0  0  0  0  0
   40.1770   30.4770   51.8050 C   0  0  0  0  0  0  0  0  0  0  0  0
   40.5530   30.2490   50.5200 C   0  0  0  0  0  0  0  0  0  0  0  0
   39.7510   28.7680   50.2690 C   0  0  0  0  0  0  0  0  0  0  0  0
   39.1400   28.4380   51.4520 C   0  0  0  0  0  0  0  0  0  0  0  0
   38.2790   27.6280   51.6400 O   0  0  0  0  0  0  0  0  0  0  0  0
   37.5460   29.0230   55.0820 H   0  0  0  0  0  0  0  0  0  0  0  0
   37.2210   28.5900   53.3810 H   0  0  0  0  0  0  0  0  0  0  0  0
   40.5119   31.3945   52.3109 H   0  0  0  0  0  0  0  0  0  0  0  0
   41.1858   30.8429   49.8441 H   0  0  0  0  0  0  0  0  0  0  0  0
   39.7274   28.1864   49.3356 H   0  0  0  0  0  0  0  0  0  0  0  0
  1  2  1  0
  2  3  2  0
  2  4  1  0
  4  5  2  0
  5  6  1  0
  6  7  2  0
  7  8  1  0
  8  9  2  0
  8  4  1  0
  1 10  1  0
  1 11  1  0
  5 12  1  0
  6 13  1  0
  7 14  1  0
M  END
>  <ID>  (90) 
Pocket2Mol_90_0

>  <docking_score>  (90) 
-5.782

$$$$
Pocket2Mol_91
     RDKit          3D

 14 15  0  0  0  0  0  0  0  0999 V2000
   37.9010   27.9660   53.6720 C   0  0  0  0  0  0  0  0  0  0  0  0
   38.8490   29.6030   53.8130 C   0  0  0  0  0  0  0  0  0  0  0  0
   39.3360   29.5660   52.4910 C   0  0  0  0  0  0  0  0  0  0  0  0
   40.1440   30.4900   51.9470 C   0  0  0  0  0  0  0  0  0  0  0  0
   40.5820   30.3740   50.6660 C   0  0  0  0  0  0  0  0  0  0  0  0
   40.1720   29.2580   49.9390 C   0  0  0  0  0  0  0  0  0  0  0  0
   39.4350   28.2200   50.5110 C   0  0  0  0  0  0  0  0  0  0  0  0
   39.0140   28.3690   51.7520 C   0  0  0  0  0  0  0  0  0  0  0  0
   38.2370   27.4340   52.3730 N   0  0  0  0  0  0  0  0  0  0  0  0
   38.9741   30.3242   54.6341 H   0  0  0  0  0  0  0  0  0  0  0  0
   40.4569   31.3560   52.5488 H   0  0  0  0  0  0  0  0  0  0  0  0
   41.2379   31.1351   50.2181 H   0  0  0  0  0  0  0  0  0  0  0  0
   40.4394   29.1928   48.8740 H   0  0  0  0  0  0  0  0  0  0  0  0
   39.2118   27.3045   49.9435 H   0  0  0  0  0  0  0  0  0  0  0  0
  1  2  2  0
  2  3  1  0
  3  4  2  0
  4  5  1  0
  5  6  2  0
  6  7  1  0
  7  8  2  0
  8  9  1  0
  9  1  2  0
  8  3  1  0
  2 10  1  0
  4 11  1  0
  5 12  1  0
  6 13  1  0
  7 14  1  0
M  END
>  <ID>  (91) 
Pocket2Mol_91_0

>  <docking_score>  (91) 
-6.294

$$$$
Pocket2Mol_92
     RDKit          3D

 18 19  0  0  0  0  0  0  0  0999 V2000
   40.2370   30.1080   50.3680 C   0  0  0  0  0  0  0  0  0  0  0  0
   39.8440   28.8200   50.2760 C   0  0  0  0  0  0  0  0  0  0  0  0
   39.4350   28.1770   51.3470 C   0  0  0  0  0  0  0  0  0  0  0  0
   39.3400   28.7720   52.6860 C   0  0  0  0  0  0  0  0  0  0  0  0
   38.9020   28.0240   53.7220 C   0  0  0  0  0  0  0  0  0  0  0  0
   38.8990   28.5920   54.9040 C   0  0  0  0  0  0  0  0  0  0  0  0
   39.3090   29.9440   55.1340 C   0  0  0  0  0  0  0  0  0  0  0  0
   39.6940   30.5920   53.9680 C   0  0  0  0  0  0  0  0  0  0  0  0
   39.7210   30.0660   52.8340 C   0  0  0  0  0  0  0  0  0  0  0  0
   40.1390   30.6210   51.6820 C   0  0  0  0  0  0  0  0  0  0  0  0
   40.5958   30.6967   49.5109 H   0  0  0  0  0  0  0  0  0  0  0  0
   39.8660   28.3075   49.3029 H   0  0  0  0  0  0  0  0  0  0  0  0
   39.1444   27.1223   51.2325 H   0  0  0  0  0  0  0  0  0  0  0  0
   38.5636   26.9869   53.5808 H   0  0  0  0  0  0  0  0  0  0  0  0
   38.5630   27.9969   55.7659 H   0  0  0  0  0  0  0  0  0  0  0  0
   39.3181   30.4180   56.1266 H   0  0  0  0  0  0  0  0  0  0  0  0
   39.9978   31.6462   54.0478 H   0  0  0  0  0  0  0  0  0  0  0  0
   40.4647   31.6671   51.7805 H   0  0  0  0  0  0  0  0  0  0  0  0
  1  2  2  0
  2  3  1  0
  3  4  2  0
  4  5  1  0
  5  6  2  0
  6  7  1  0
  7  8  2  0
  8  9  1  0
  9 10  2  0
 10  1  1  0
  9  4  1  0
  1 11  1  0
  2 12  1  0
  3 13  1  0
  5 14  1  0
  6 15  1  0
  7 16  1  0
  8 17  1  0
 10 18  1  0
M  END
>  <ID>  (92) 
Pocket2Mol_92_0

>  <docking_score>  (92) 
-7.187

$$$$
Pocket2Mol_93
     RDKit          3D

 17 18  0  0  0  0  0  0  0  0999 V2000
   40.3550   30.4180   50.9920 C   0  0  0  0  0  0  0  0  0  0  0  0
   40.1050   29.2890   50.2280 C   0  0  0  0  0  0  0  0  0  0  0  0
   39.3210   28.2270   50.6940 C   0  0  0  0  0  0  0  0  0  0  0  0
   38.9320   28.4080   51.9490 C   0  0  0  0  0  0  0  0  0  0  0  0
   38.0930   27.2960   52.4870 N   0  0  0  0  0  0  0  0  0  0  0  0
   37.5790   27.3890   53.6920 C   0  0  0  0  0  0  0  0  0  0  0  0
   37.7700   28.3560   54.5000 C   0  0  0  0  0  0  0  0  0  0  0  0
   38.5670   29.3430   53.9640 C   0  0  0  0  0  0  0  0  0  0  0  0
   39.1680   29.4650   52.7660 C   0  0  0  0  0  0  0  0  0  0  0  0
   39.8470   30.4290   52.3490 C   0  0  0  0  0  0  0  0  0  0  0  0
   40.9166   31.2716   50.5845 H   0  0  0  0  0  0  0  0  0  0  0  0
   40.5383   29.2251   49.2190 H   0  0  0  0  0  0  0  0  0  0  0  0
   39.0584   27.3458   50.0902 H   0  0  0  0  0  0  0  0  0  0  0  0
   36.9319   26.5666   54.0310 H   0  0  0  0  0  0  0  0  0  0  0  0
   37.3451   28.3977   55.5138 H   0  0  0  0  0  0  0  0  0  0  0  0
   38.7459   30.1904   54.6421 H   0  0  0  0  0  0  0  0  0  0  0  0
   40.0579   31.2824   53.0102 H   0  0  0  0  0  0  0  0  0  0  0  0
  1  2  2  0
  2  3  1  0
  3  4  2  0
  4  5  1  0
  5  6  2  0
  6  7  1  0
  7  8  2  0
  8  9  1  0
  9 10  2  0
 10  1  1  0
  9  4  1  0
  1 11  1  0
  2 12  1  0
  3 13  1  0
  6 14  1  0
  7 15  1  0
  8 16  1  0
 10 17  1  0
M  END
>  <ID>  (93) 
Pocket2Mol_93_0

>  <docking_score>  (93) 
-6.78

$$$$
Pocket2Mol_94
     RDKit          3D

 16 17  0  0  0  0  0  0  0  0999 V2000
   38.2520   27.6150   55.6050 O   0  0  0  0  0  0  0  0  0  0  0  0
   38.7820   28.4530   54.6170 C   0  0  0  0  0  0  0  0  0  0  0  0
   39.1180   29.7500   54.8960 C   0  0  0  0  0  0  0  0  0  0  0  0
   39.6620   30.5240   53.6660 C   0  0  0  0  0  0  0  0  0  0  0  0
   39.6880   29.9660   52.5470 C   0  0  0  0  0  0  0  0  0  0  0  0
   39.3020   28.6690   52.4360 C   0  0  0  0  0  0  0  0  0  0  0  0
   38.8880   27.8430   53.3870 C   0  0  0  0  0  0  0  0  0  0  0  0
   39.7580   28.5280   50.5700 C   0  0  0  0  0  0  0  0  0  0  0  0
   40.2060   29.9700   50.0650 C   0  0  0  0  0  0  0  0  0  0  0  0
   40.1100   30.4860   51.3810 C   0  0  0  0  0  0  0  0  0  0  0  0
   38.6390   26.7140   55.7480 H   0  0  0  0  0  0  0  0  0  0  0  0
   39.0127   30.1997   55.8943 H   0  0  0  0  0  0  0  0  0  0  0  0
   40.0226   31.5572   53.7776 H   0  0  0  0  0  0  0  0  0  0  0  0
   38.6540   26.7825   53.2119 H   0  0  0  0  0  0  0  0  0  0  0  0
   40.4798   30.3946   49.0879 H   0  0  0  0  0  0  0  0  0  0  0  0
   40.4515   31.5281   51.4666 H   0  0  0  0  0  0  0  0  0  0  0  0
  1  2  1  0
  2  3  1  0
  3  4  2  0
  4  5  1  0
  5  6  1  0
  6  7  1  0
  6  8  2  0
  8  9  2  0
  9 10  1  0
  7  2  2  0
 10  5  2  0
  1 11  1  0
  3 12  1  0
  4 13  1  0
  7 14  1  0
  9 15  1  0
 10 16  1  0
M  END
>  <ID>  (94) 
Pocket2Mol_94_0

>  <docking_score>  (94) 
-6.577

$$$$
Pocket2Mol_95
     RDKit          3D

 14 15  0  0  0  0  0  0  0  0999 V2000
   38.9010   31.0420   54.3240 O   0  0  0  0  0  0  0  0  0  0  0  0
   38.9050   29.8640   53.8470 C   0  0  0  0  0  0  0  0  0  0  0  0
   38.0470   28.8110   54.2490 N   0  0  0  0  0  0  0  0  0  0  0  0
   37.7910   27.6910   53.4490 C   0  0  0  0  0  0  0  0  0  0  0  0
   38.3040   27.5070   52.1570 N   0  0  0  0  0  0  0  0  0  0  0  0
   39.0550   28.4870   51.6870 C   0  0  0  0  0  0  0  0  0  0  0  0
   39.6660   28.6350   50.4670 C   0  0  0  0  0  0  0  0  0  0  0  0
   40.5520   30.0880   50.5280 C   0  0  0  0  0  0  0  0  0  0  0  0
   40.2100   30.4910   51.7800 C   0  0  0  0  0  0  0  0  0  0  0  0
   39.4000   29.7490   52.5520 C   0  0  0  0  0  0  0  0  0  0  0  0
   37.1442   26.9026   53.8615 H   0  0  0  0  0  0  0  0  0  0  0  0
   39.5966   27.9460   49.6123 H   0  0  0  0  0  0  0  0  0  0  0  0
   41.2052   30.5591   49.7787 H   0  0  0  0  0  0  0  0  0  0  0  0
   40.6038   31.4421   52.1678 H   0  0  0  0  0  0  0  0  0  0  0  0
  1  2  2  0
  2  3  1  0
  3  4  2  0
  4  5  1  0
  5  6  2  0
  6  7  1  0
  7  8  2  0
  8  9  1  0
  9 10  2  0
 10  2  1  0
 10  6  1  0
  4 11  1  0
  7 12  1  0
  8 13  1  0
  9 14  1  0
M  END
>  <ID>  (95) 
Pocket2Mol_95_0

>  <docking_score>  (95) 
-6.335

$$$$
Pocket2Mol_96
     RDKit          3D

 18 19  0  0  0  0  0  0  0  0999 V2000
   39.5500   30.6650   54.4190 O   0  0  0  0  0  0  0  0  0  0  0  0
   39.2110   29.6570   53.6900 C   0  0  0  0  0  0  0  0  0  0  0  0
   38.6940   28.4820   54.2280 N   0  0  0  0  0  0  0  0  0  0  0  0
   38.4490   27.3970   53.2330 C   0  0  0  0  0  0  0  0  0  0  0  0
   38.8090   27.5310   51.7030 C   0  0  0  0  0  0  0  0  0  0  0  0
   39.3260   28.4880   51.5490 N   0  0  0  0  0  0  0  0  0  0  0  0
   39.9030   28.9110   50.3060 C   0  0  0  0  0  0  0  0  0  0  0  0
   40.4250   30.1180   50.2650 C   0  0  0  0  0  0  0  0  0  0  0  0
   40.1250   30.4850   51.5220 C   0  0  0  0  0  0  0  0  0  0  0  0
   39.6310   29.6300   52.3050 C   0  0  0  0  0  0  0  0  0  0  0  0
   38.4970   28.3710   55.2320 H   0  0  0  0  0  0  0  0  0  0  0  0
   39.0046   26.5208   53.5985 H   0  0  0  0  0  0  0  0  0  0  0  0
   37.3497   27.3781   53.1974 H   0  0  0  0  0  0  0  0  0  0  0  0
   39.4662   26.7017   51.4024 H   0  0  0  0  0  0  0  0  0  0  0  0
   37.8925   27.4958   51.0957 H   0  0  0  0  0  0  0  0  0  0  0  0
   39.9089   28.2538   49.4239 H   0  0  0  0  0  0  0  0  0  0  0  0
   40.9429   30.6561   49.4574 H   0  0  0  0  0  0  0  0  0  0  0  0
   40.3076   31.5150   51.8622 H   0  0  0  0  0  0  0  0  0  0  0  0
  1  2  2  0
  2  3  1  0
  3  4  1  0
  4  5  1  0
  5  6  1  0
  6  7  1  0
  7  8  2  0
  8  9  1  0
  9 10  2  0
 10  2  1  0
 10  6  1  0
  3 11  1  0
  4 12  1  0
  4 13  1  0
  5 14  1  0
  5 15  1  0
  7 16  1  0
  8 17  1  0
  9 18  1  0
M  END
>  <ID>  (96) 
Pocket2Mol_96_0

>  <docking_score>  (96) 
-5.763

$$$$
Pocket2Mol_97
     RDKit          3D

 17 18  0  0  0  0  0  0  0  0999 V2000
   40.2090   29.7870   50.3760 C   0  0  0  0  0  0  0  0  0  0  0  0
   39.7390   28.5750   50.3870 C   0  0  0  0  0  0  0  0  0  0  0  0
   39.2000   27.9810   51.4810 C   0  0  0  0  0  0  0  0  0  0  0  0
   39.2090   28.7450   52.5950 C   0  0  0  0  0  0  0  0  0  0  0  0
   38.6880   28.2880   53.8710 C   0  0  0  0  0  0  0  0  0  0  0  0
   38.6230   28.8980   54.9710 N   0  0  0  0  0  0  0  0  0  0  0  0
   39.0930   30.1380   55.0460 C   0  0  0  0  0  0  0  0  0  0  0  0
   39.5960   30.6010   53.8080 C   0  0  0  0  0  0  0  0  0  0  0  0
   39.6980   30.0110   52.6040 C   0  0  0  0  0  0  0  0  0  0  0  0
   40.1360   30.5110   51.5450 C   0  0  0  0  0  0  0  0  0  0  0  0
   40.6494   30.2188   49.4652 H   0  0  0  0  0  0  0  0  0  0  0  0
   39.7809   27.9961   49.4526 H   0  0  0  0  0  0  0  0  0  0  0  0
   38.7892   26.9607   51.4625 H   0  0  0  0  0  0  0  0  0  0  0  0
   38.2933   27.2613   53.8779 H   0  0  0  0  0  0  0  0  0  0  0  0
   39.0912   30.7378   55.9681 H   0  0  0  0  0  0  0  0  0  0  0  0
   39.9733   31.6339   53.8350 H   0  0  0  0  0  0  0  0  0  0  0  0
   40.4724   31.5583   51.5472 H   0  0  0  0  0  0  0  0  0  0  0  0
  1  2  1  0
  2  3  2  0
  3  4  1  0
  4  5  2  0
  5  6  1  0
  6  7  2  0
  7  8  1  0
  8  9  2  0
  9 10  1  0
 10  1  2  0
  9  4  1  0
  1 11  1  0
  2 12  1  0
  3 13  1  0
  5 14  1  0
  7 15  1  0
  8 16  1  0
 10 17  1  0
M  END
>  <ID>  (97) 
Pocket2Mol_97_0

>  <docking_score>  (97) 
-6.755

$$$$
Pocket2Mol_98
     RDKit          3D

 18 19  0  0  0  0  0  0  0  0999 V2000
   40.4660   30.0140   49.9770 C   0  0  0  0  0  0  0  0  0  0  0  0
   39.8480   29.7930   51.2710 C   0  0  0  0  0  0  0  0  0  0  0  0
   40.0410   30.5750   52.3390 C   0  0  0  0  0  0  0  0  0  0  0  0
   39.4260   30.3060   53.5680 C   0  0  0  0  0  0  0  0  0  0  0  0
   38.7090   29.1590   53.6820 C   0  0  0  0  0  0  0  0  0  0  0  0
   38.5880   28.3580   52.5080 C   0  0  0  0  0  0  0  0  0  0  0  0
   39.1670   28.6050   51.3030 C   0  0  0  0  0  0  0  0  0  0  0  0
   37.6570   27.1430   52.8850 O   0  0  0  0  0  0  0  0  0  0  0  0
   37.5560   27.3600   54.2740 C   0  0  0  0  0  0  0  0  0  0  0  0
   37.9970   28.5700   54.5180 O   0  0  0  0  0  0  0  0  0  0  0  0
   41.4931   30.3813   50.1191 H   0  0  0  0  0  0  0  0  0  0  0  0
   40.4891   29.0684   49.4154 H   0  0  0  0  0  0  0  0  0  0  0  0
   39.8843   30.7598   49.4154 H   0  0  0  0  0  0  0  0  0  0  0  0
   40.6995   31.4516   52.2496 H   0  0  0  0  0  0  0  0  0  0  0  0
   39.5209   31.0022   54.4143 H   0  0  0  0  0  0  0  0  0  0  0  0
   39.0960   27.9221   50.4435 H   0  0  0  0  0  0  0  0  0  0  0  0
   36.5068   27.2716   54.5924 H   0  0  0  0  0  0  0  0  0  0  0  0
   38.1468   26.6142   54.8260 H   0  0  0  0  0  0  0  0  0  0  0  0
  1  2  1  0
  2  3  1  0
  3  4  2  0
  4  5  1  0
  5  6  2  0
  6  7  1  0
  6  8  1  0
  8  9  1  0
  9 10  1  0
  7  2  2  0
 10  5  1  0
  1 11  1  0
  1 12  1  0
  1 13  1  0
  3 14  1  0
  4 15  1  0
  7 16  1  0
  9 17  1  0
  9 18  1  0
M  END
>  <ID>  (98) 
Pocket2Mol_98_0

>  <docking_score>  (98) 
-6.647

$$$$
Pocket2Mol_99
     RDKit          3D

 13 13  0  0  0  0  0  0  0  0999 V2000
   40.5850   30.2210   50.6160 C   0  0  0  0  0  0  0  0  0  0  0  0
   39.6880   28.5900   50.5640 C   0  0  0  0  0  0  0  0  0  0  0  0
   39.4330   28.3300   51.8480 C   0  0  0  0  0  0  0  0  0  0  0  0
   39.5490   29.4400   52.4170 O   0  0  0  0  0  0  0  0  0  0  0  0
   39.9630   30.5090   51.7810 C   0  0  0  0  0  0  0  0  0  0  0  0
   41.6784   30.1326   50.6977 H   0  0  0  0  0  0  0  0  0  0  0  0
   40.5362   30.9169   49.7655 H   0  0  0  0  0  0  0  0  0  0  0  0
   38.7549   28.6734   49.9875 H   0  0  0  0  0  0  0  0  0  0  0  0
   40.2726   27.7965   50.0756 H   0  0  0  0  0  0  0  0  0  0  0  0
   38.4142   27.9337   51.9706 H   0  0  0  0  0  0  0  0  0  0  0  0
   40.1102   27.5705   52.2658 H   0  0  0  0  0  0  0  0  0  0  0  0
   39.0938   31.1480   51.5660 H   0  0  0  0  0  0  0  0  0  0  0  0
   40.6938   31.0156   52.4285 H   0  0  0  0  0  0  0  0  0  0  0  0
  1  2  1  0
  2  3  1  0
  3  4  1  0
  4  5  1  0
  5  1  1  0
  1  6  1  0
  1  7  1  0
  2  8  1  0
  2  9  1  0
  3 10  1  0
  3 11  1  0
  5 12  1  0
  5 13  1  0
M  END
>  <ID>  (99) 
Pocket2Mol_99_0

>  <docking_score>  (99) 
-3.602

$$$$
Pocket2Mol_9
     RDKit          3D

 11 11  0  0  0  0  0  0  0  0999 V2000
   38.3880   27.5680   51.5360 O   0  0  0  0  0  0  0  0  0  0  0  0
   39.0990   28.5330   51.3300 C   0  0  0  0  0  0  0  0  0  0  0  0
   39.8910   28.8850   50.2790 C   0  0  0  0  0  0  0  0  0  0  0  0
   40.4480   30.1070   50.6660 C   0  0  0  0  0  0  0  0  0  0  0  0
   40.1350   30.4620   51.8240 C   0  0  0  0  0  0  0  0  0  0  0  0
   39.3940   29.6080   52.2290 N   0  0  0  0  0  0  0  0  0  0  0  0
   40.6764   28.1330   50.1129 H   0  0  0  0  0  0  0  0  0  0  0  0
   39.3319   28.9562   49.3344 H   0  0  0  0  0  0  0  0  0  0  0  0
   41.5434   30.0204   50.6143 H   0  0  0  0  0  0  0  0  0  0  0  0
   40.0523   30.8702   49.9798 H   0  0  0  0  0  0  0  0  0  0  0  0
   40.4677   31.3644   52.3578 H   0  0  0  0  0  0  0  0  0  0  0  0
  1  2  2  0
  2  3  1  0
  3  4  1  0
  4  5  1  0
  5  6  2  0
  6  2  1  0
  3  7  1  0
  3  8  1  0
  4  9  1  0
  4 10  1  0
  5 11  1  0
M  END
>  <ID>  (100) 
Pocket2Mol_9_0

>  <docking_score>  (100) 
-4.317

$$$$
