DiffSBDD_41_num_sample_50
     RDKit          3D

  0  0  0  0  0  0  0  0  0  0999 V3000
M  V30 BEGIN CTAB
M  V30 COUNTS 83 87 0 0 1
M  V30 BEGIN ATOM
M  V30 1 C 42.417578 32.839163 66.337947 0
M  V30 2 C 41.771994 33.793552 65.309740 0 CFG=1
M  V30 3 C 38.523190 29.138269 58.418896 0
M  V30 4 C 38.818282 31.814305 54.178975 0
M  V30 5 C 40.393371 34.778632 67.214479 0 CFG=1
M  V30 6 O 39.864330 35.964737 67.785982 0
M  V30 7 O 40.892381 34.081724 69.453591 0
M  V30 8 C 39.042238 28.079780 52.366447 0
M  V30 9 C 40.303622 34.117941 63.322798 0
M  V30 10 C 39.132719 27.004415 57.392227 0
M  V30 11 C 36.495240 31.820341 60.137735 0
M  V30 12 C 39.350377 31.689166 61.739267 0
M  V30 13 C 40.725302 33.129801 64.345489 0 CFG=1
M  V30 14 C 37.915214 27.196616 54.477714 0
M  V30 15 F 39.867311 27.749933 51.376305 0
M  V30 16 O 39.887998 30.033604 60.190244 0
M  V30 17 C 37.632808 30.368645 58.437744 0 CFG=2
M  V30 18 C 39.980038 30.997411 62.965239 0
M  V30 19 C 40.239954 26.912476 58.254203 0
M  V30 20 C 41.218990 35.091756 65.969735 0 CFG=1
M  V30 21 O 42.267415 35.988904 66.253474 0
M  V30 22 F 37.839581 28.302167 51.853953 0
M  V30 23 C 38.002986 32.574730 57.255171 0 CFG=1
M  V30 24 C 38.756367 30.717481 60.714974 0 CFG=2
M  V30 25 C 37.804934 26.088079 55.556145 0
M  V30 26 N 35.868641 31.221525 61.053493 0
M  V30 27 F 39.468050 29.208178 52.925200 0
M  V30 28 O 38.262714 32.933206 54.851055 0
M  V30 29 C 42.106925 32.925874 67.730445 0
M  V30 30 C 39.629136 29.042131 59.284019 0
M  V30 31 C 37.868103 31.071558 57.090849 0
M  V30 32 C 43.971832 31.008867 66.819123 0
M  V30 33 C 38.268549 28.118190 57.489271 0
M  V30 34 O 38.915860 26.011393 56.453092 0
M  V30 35 C 37.863175 31.372069 59.607488 0 CFG=2
M  V30 36 S 38.675626 32.832203 58.893286 0
M  V30 37 C 43.668836 31.098494 68.186487 0
M  V30 38 C 39.988066 34.959100 62.494615 0
M  V30 39 C 41.127448 33.929119 68.255055 0
M  V30 40 C 38.798981 33.233553 56.131443 0
M  V30 41 C 41.108923 31.777413 63.685106 0
M  V30 42 C 38.980221 26.950882 53.409015 0
M  V30 43 C 40.485582 27.929008 59.202927 0
M  V30 44 C 43.352190 31.873407 65.899169 0
M  V30 45 C 42.741024 32.050855 68.643013 0
M  V30 46 H 42.601710 34.101309 64.668338 0
M  V30 47 H 38.669355 31.944339 53.108530 0
M  V30 48 H 39.888975 31.702146 54.349640 0
M  V30 49 H 38.322590 30.887384 54.456568 0
M  V30 50 H 39.533946 34.193738 66.903544 0
M  V30 51 H 39.385792 36.440900 67.125504 0
M  V30 52 H 36.085948 32.711964 59.655197 0
M  V30 53 H 38.572108 32.373767 62.076962 0
M  V30 54 H 40.114011 32.281756 61.235536 0
M  V30 55 H 39.867445 32.869279 64.956566 0
M  V30 56 H 36.948391 27.278174 53.982422 0
M  V30 57 H 38.101655 28.181436 54.896539 0
M  V30 58 H 36.605533 29.997207 58.451176 0
M  V30 59 H 40.407525 30.043419 62.653914 0
M  V30 60 H 39.193263 30.734995 63.672163 0
M  V30 61 H 40.904232 26.063591 58.188665 0
M  V30 62 H 40.584548 35.670155 65.301191 0
M  V30 63 H 42.266711 36.687402 65.606511 0
M  V30 64 H 37.060305 33.081835 57.286336 0
M  V30 65 H 38.172207 29.986345 61.263288 0
M  V30 66 H 37.722059 25.119843 55.061181 0
M  V30 67 H 36.879552 26.187074 56.124282 0
M  V30 68 H 34.978242 31.659203 61.247607 0
M  V30 69 H 38.820443 30.732316 56.680819 0
M  V30 70 H 37.108067 30.799754 56.358076 0
M  V30 71 H 44.683669 30.274004 66.472593 0
M  V30 72 H 37.427075 28.209489 56.838172 0
M  V30 73 H 44.148521 30.432895 68.889088 0
M  V30 74 H 39.717599 35.684425 61.760983 0
M  V30 75 H 38.667328 34.308735 56.249118 0
M  V30 76 H 39.865450 33.018271 56.193915 0
M  V30 77 H 41.953362 31.916586 63.008942 0
M  V30 78 H 41.443446 31.088415 64.456245 0
M  V30 79 H 39.953359 26.809087 53.878215 0
M  V30 80 H 38.746251 26.021490 52.910450 0
M  V30 81 H 41.337802 27.854981 59.864050 0
M  V30 82 H 43.590575 31.794493 64.853621 0
M  V30 83 H 42.512998 32.111063 69.696781 0
M  V30 END ATOM
M  V30 BEGIN BOND
M  V30 1 1 2 1
M  V30 2 1 6 5
M  V30 3 1 13 2
M  V30 4 1 13 9
M  V30 5 1 15 8
M  V30 6 1 17 3
M  V30 7 1 18 12
M  V30 8 1 19 10
M  V30 9 1 20 2
M  V30 10 1 20 5
M  V30 11 1 21 20
M  V30 12 1 22 8
M  V30 13 1 24 12
M  V30 14 1 24 16
M  V30 15 1 25 14
M  V30 16 2 26 11
M  V30 17 1 27 8
M  V30 18 1 28 4
M  V30 19 1 29 1
M  V30 20 2 30 3
M  V30 21 1 30 16
M  V30 22 1 31 17
M  V30 23 1 31 23
M  V30 24 1 33 3
M  V30 25 2 33 10
M  V30 26 1 34 10
M  V30 27 1 34 25
M  V30 28 1 35 11 CFG=1
M  V30 29 1 35 17
M  V30 30 1 35 24
M  V30 31 1 36 23
M  V30 32 1 36 35
M  V30 33 2 37 32
M  V30 34 3 38 9
M  V30 35 1 39 5
M  V30 36 2 39 7
M  V30 37 1 39 29
M  V30 38 1 40 23
M  V30 39 1 40 28
M  V30 40 1 41 13
M  V30 41 1 41 18
M  V30 42 1 42 8
M  V30 43 1 42 14
M  V30 44 2 43 19
M  V30 45 1 43 30
M  V30 46 2 44 1
M  V30 47 1 44 32
M  V30 48 2 45 29
M  V30 49 1 45 37
M  V30 50 1 2 46 CFG=3
M  V30 51 1 47 4
M  V30 52 1 48 4
M  V30 53 1 49 4
M  V30 54 1 5 50 CFG=3
M  V30 55 1 51 6
M  V30 56 1 52 11
M  V30 57 1 53 12
M  V30 58 1 54 12
M  V30 59 1 13 55 CFG=1
M  V30 60 1 56 14
M  V30 61 1 57 14
M  V30 62 1 17 58 CFG=3
M  V30 63 1 59 18
M  V30 64 1 60 18
M  V30 65 1 61 19
M  V30 66 1 20 62 CFG=3
M  V30 67 1 63 21
M  V30 68 1 23 64 CFG=1
M  V30 69 1 24 65 CFG=1
M  V30 70 1 66 25
M  V30 71 1 67 25
M  V30 72 1 68 26
M  V30 73 1 69 31
M  V30 74 1 70 31
M  V30 75 1 71 32
M  V30 76 1 72 33
M  V30 77 1 73 37
M  V30 78 1 74 38
M  V30 79 1 75 40
M  V30 80 1 76 40
M  V30 81 1 77 41
M  V30 82 1 78 41
M  V30 83 1 79 42
M  V30 84 1 80 42
M  V30 85 1 81 43
M  V30 86 1 82 44
M  V30 87 1 83 45
M  V30 END BOND
M  V30 END CTAB
M  END
>  <i_epik_Tot_Q>  (1) 
0

>  <i_epik_Tot_abs_Q>  (1) 
0

>  <i_i_glide_confnum>  (1) 
2392

>  <i_i_glide_lignum>  (1) 
96

>  <i_i_glide_posenum>  (1) 
289

>  <i_i_glide_rotatable_bonds>  (1) 
16

>  <i_lp_mmshare_version>  (1) 
72125

>  <i_m_source_file_index>  (1) 
42

>  <i_f3d_flags>  (1) 
0

>  <num_sample>  (1) 
50

>  <b_lp_Chiralities_Consistent>  (1) 
1

>  <r_epik_Charging_Adjusted_Penalty>  (1) 
0.41067983895260396

>  <r_epik_Ionization_Penalty>  (1) 
0.0048607436090088536

>  <r_epik_Ionization_Penalty_Charging>  (1) 
0

>  <r_epik_Ionization_Penalty_Neutral>  (1) 
0.0048607436090088536

>  <r_epik_State_Penalty>  (1) 
0.41067983895260396

>  <r_glide_ring_energy>  (1) 
1.8793194922327243

>  <r_i_docking_score>  (1) 
-10.805839847395477

>  <r_i_glide_ecoul>  (1) 
-9.6650520713551149

>  <r_i_glide_eff_state_penalty>  (1) 
0.41067983895260396

>  <r_i_glide_einternal>  (1) 
8.0398204553116663

>  <r_i_glide_emodel>  (1) 
-80.900866528737069

>  <r_i_glide_emodel_strain>  (1) 
2.1192953532483472

>  <r_i_glide_energy>  (1) 
-59.667713688067316

>  <r_i_glide_erotb>  (1) 
0.41134081239429626

>  <r_i_glide_esite>  (1) 
-0.066159273069397215

>  <r_i_glide_evdw>  (1) 
-50.002661616712203

>  <r_i_glide_gscore>  (1) 
-11.21651968634808

>  <r_i_glide_gscore_strain>  (1) 
0

>  <r_i_glide_hbond>  (1) 
-0.60799999999999998

>  <r_i_glide_ligand_efficiency>  (1) 
-0.24012977438656616

>  <r_i_glide_ligand_efficiency_ln>  (1) 
-2.2480962352552907

>  <r_i_glide_ligand_efficiency_sa>  (1) 
-0.85411598672428657

>  <r_i_glide_lipo>  (1) 
-4.9488150856701916

>  <r_i_glide_metal>  (1) 
-0

>  <r_i_glide_rewards>  (1) 
-2.0549952484639107

>  <r_lp_Energy>  (1) 
42.968447999999995

>  <r_lp_tautomer_probability>  (1) 
0.5

>  <s_epik_Chemistry_Notes>  (1) 
This compound has an imine and may undergo hydrolysis.

>  <s_epik_cmdline>  (1) 
J2VwaWtfcHl0aG9uJywgJy1waHQnLCAnMS4wJywgJy1waCcsICc3LjQnLCAnLXRuJywgJzgnLCAnLW1hJywgJzUwMCcsICctaW1hZScsICc8aW5maWxlLm1hZT4nLCAnLW9tYWUnLCAnPG91dGZpbGUubWFlPic=

>  <s_epik_input>  (1) 
W2NIXTFbY0hdW2NIXVtjSF1jKGMxMilDKD1PKVtDQEBIXShbT0hdKVtDQEBIXShbT0hdKVtDQEBIXTJbQ0BASF0oQyNbQ0hdKVtDSDJdW0NIMl1bQ0gyXVtDQEBIXTNPYyhjNFtDQEBIXShbQ0BAXTM1L1tDSF09Ti9bSF0pW0NIMl1bQ0BASF0oUzUpW0NIMl1PW0NIM10pW2NIXVtjSF1jKFtjSF00KU9bQ0gyXVtDSDJdW0NIMl1DKEYpKEYpRg==

>  <s_glide_docking_method>  (1) 
confgen

>  <s_i_glide_gridfile>  (1) 
gpcr_5ht2c_6bqh_protein_autoprepared_prepared

>  <s_lp_Force_Field>  (1) 
S-OPLS

>  <s_lp_Variant>  (1) 
DiffSBDD_41_num_sample_50-1

>  <s_m_source_file>  (1) 
generated__ligand_DiffSBDD_2026-05-06_prepared.sdf

>  <GenAI_Model>  (1) 
DiffSBDD

>  <Protein>  (1) 
GPCR_5HT2C

$$$$
DiffSBDD_41_num_sample_50
     RDKit          3D

  0  0  0  0  0  0  0  0  0  0999 V3000
M  V30 BEGIN CTAB
M  V30 COUNTS 83 87 0 0 1
M  V30 BEGIN ATOM
M  V30 1 C 38.626478 33.764913 61.331986 0
M  V30 2 C 37.476425 32.815864 61.022184 0 CFG=2
M  V30 3 C 38.868943 27.965706 55.471142 0
M  V30 4 C 36.035949 22.126995 55.787438 0
M  V30 5 C 36.126190 34.765019 60.143981 0 CFG=1
M  V30 6 O 36.189141 34.415651 58.777402 0
M  V30 7 O 37.095853 36.954519 60.278589 0
M  V30 8 C 40.550355 30.703680 50.367716 0
M  V30 9 C 38.472464 32.374137 58.647827 0
M  V30 10 C 38.270543 29.141066 53.463785 0
M  V30 11 C 41.068950 26.668786 57.940698 0
M  V30 12 C 39.235992 28.409645 59.753241 0
M  V30 13 C 37.623744 31.900899 59.761749 0 CFG=1
M  V30 14 C 40.102442 28.209228 50.756365 0
M  V30 15 F 39.890380 31.621438 49.661900 0
M  V30 16 O 38.127721 28.804067 57.614078 0
M  V30 17 C 39.522004 26.801690 56.099821 0 CFG=2
M  V30 18 C 39.127398 29.829240 60.320880 0
M  V30 19 C 37.623711 30.137846 54.253481 0
M  V30 20 C 36.149772 33.562235 61.079859 0 CFG=1
M  V30 21 O 35.067334 32.700151 60.850092 0
M  V30 22 F 40.226392 30.821375 51.650716 0
M  V30 23 C 38.457787 24.655674 56.842329 0 CFG=1
M  V30 24 C 39.318353 28.358850 58.198787 0 CFG=2
M  V30 25 C 38.666742 28.130245 51.277933 0
M  V30 26 N 42.000866 27.524782 57.853630 0
M  V30 27 F 41.866297 30.821437 50.254111 0
M  V30 28 O 36.917522 23.221664 55.584033 0
M  V30 29 C 38.500405 35.166435 61.101137 0
M  V30 30 C 38.196234 28.932034 56.257095 0
M  V30 31 C 38.762312 25.530313 55.650559 0
M  V30 32 C 40.879067 34.115325 62.204776 0
M  V30 33 C 38.901172 28.076609 54.090493 0
M  V30 34 O 38.267265 29.221425 52.094356 0
M  V30 35 C 39.647237 26.957034 57.622056 0 CFG=2
M  V30 36 S 38.481320 25.742059 58.253518 0
M  V30 37 C 40.751051 35.500043 61.992890 0
M  V30 38 C 39.067388 32.808472 57.674286 0
M  V30 39 C 37.247041 35.752791 60.497977 0
M  V30 40 C 37.087826 23.979748 56.773795 0
M  V30 41 C 37.718413 30.415531 60.141987 0
M  V30 42 C 40.267393 29.356217 49.741413 0
M  V30 43 C 37.586763 30.020347 55.641050 0
M  V30 44 C 39.819532 33.251097 61.879163 0
M  V30 45 C 39.566564 36.024945 61.445337 0
M  V30 46 H 37.447225 32.168236 61.898348 0
M  V30 47 H 36.148320 21.410039 54.978933 0
M  V30 48 H 36.267426 21.567013 56.694049 0
M  V30 49 H 35.001425 22.464609 55.833517 0
M  V30 50 H 35.156234 35.221579 60.253485 0
M  V30 51 H 36.099154 35.189496 58.232031 0
M  V30 52 H 41.264130 25.643136 58.253483 0
M  V30 53 H 40.136383 27.961348 60.174326 0
M  V30 54 H 38.405478 27.812666 60.128423 0
M  V30 55 H 36.670603 31.917958 59.234939 0
M  V30 56 H 40.817438 28.291824 51.573614 0
M  V30 57 H 40.292744 27.263825 50.253335 0
M  V30 58 H 40.503807 26.763374 55.618402 0
M  V30 59 H 39.891395 30.447243 59.856595 0
M  V30 60 H 39.368564 29.816168 61.384420 0
M  V30 61 H 37.147770 30.981434 53.798593 0
M  V30 62 H 36.009560 33.929877 62.098868 0
M  V30 63 H 35.073712 32.481097 59.926657 0
M  V30 64 H 39.253918 23.925720 56.982130 0
M  V30 65 H 40.066715 29.094422 57.892201 0
M  V30 66 H 38.398413 27.151673 51.673140 0
M  V30 67 H 38.062975 28.250245 50.402339 0
M  V30 68 H 42.902838 27.135398 58.095897 0
M  V30 69 H 37.810697 25.803263 55.186372 0
M  V30 70 H 39.317645 24.973711 54.893869 0
M  V30 71 H 41.789848 33.716724 62.625162 0
M  V30 72 H 39.407304 27.321753 53.510436 0
M  V30 73 H 41.563521 36.161948 62.252557 0
M  V30 74 H 39.566939 33.190011 56.811710 0
M  V30 75 H 37.060553 23.347551 57.660605 0
M  V30 76 H 36.280599 24.711476 56.844616 0
M  V30 77 H 37.143794 30.240337 61.046642 0
M  V30 78 H 37.155990 29.852802 59.403739 0
M  V30 79 H 41.064496 29.221433 49.016962 0
M  V30 80 H 39.443805 29.405197 49.058867 0
M  V30 81 H 37.079711 30.766494 56.235286 0
M  V30 82 H 39.917567 32.191025 62.053335 0
M  V30 83 H 39.474359 37.089855 61.288246 0
M  V30 END ATOM
M  V30 BEGIN BOND
M  V30 1 1 2 1
M  V30 2 1 6 5
M  V30 3 1 13 2
M  V30 4 1 13 9
M  V30 5 1 15 8
M  V30 6 1 17 3
M  V30 7 1 18 12
M  V30 8 1 19 10
M  V30 9 1 20 2
M  V30 10 1 20 5
M  V30 11 1 21 20
M  V30 12 1 22 8
M  V30 13 1 24 12
M  V30 14 1 24 16
M  V30 15 1 25 14
M  V30 16 2 26 11
M  V30 17 1 27 8
M  V30 18 1 28 4
M  V30 19 1 29 1
M  V30 20 2 30 3
M  V30 21 1 30 16
M  V30 22 1 31 17
M  V30 23 1 31 23
M  V30 24 1 33 3
M  V30 25 2 33 10
M  V30 26 1 34 10
M  V30 27 1 34 25
M  V30 28 1 35 11 CFG=1
M  V30 29 1 35 17
M  V30 30 1 35 24
M  V30 31 1 36 23
M  V30 32 1 36 35
M  V30 33 2 37 32
M  V30 34 3 38 9
M  V30 35 1 39 5
M  V30 36 2 39 7
M  V30 37 1 39 29
M  V30 38 1 40 23
M  V30 39 1 40 28
M  V30 40 1 41 13
M  V30 41 1 41 18
M  V30 42 1 42 8
M  V30 43 1 42 14
M  V30 44 2 43 19
M  V30 45 1 43 30
M  V30 46 2 44 1
M  V30 47 1 44 32
M  V30 48 2 45 29
M  V30 49 1 45 37
M  V30 50 1 2 46 CFG=1
M  V30 51 1 47 4
M  V30 52 1 48 4
M  V30 53 1 49 4
M  V30 54 1 5 50 CFG=3
M  V30 55 1 51 6
M  V30 56 1 52 11
M  V30 57 1 53 12
M  V30 58 1 54 12
M  V30 59 1 13 55 CFG=3
M  V30 60 1 56 14
M  V30 61 1 57 14
M  V30 62 1 17 58 CFG=3
M  V30 63 1 59 18
M  V30 64 1 60 18
M  V30 65 1 61 19
M  V30 66 1 20 62 CFG=1
M  V30 67 1 63 21
M  V30 68 1 23 64 CFG=1
M  V30 69 1 24 65 CFG=3
M  V30 70 1 66 25
M  V30 71 1 67 25
M  V30 72 1 68 26
M  V30 73 1 69 31
M  V30 74 1 70 31
M  V30 75 1 71 32
M  V30 76 1 72 33
M  V30 77 1 73 37
M  V30 78 1 74 38
M  V30 79 1 75 40
M  V30 80 1 76 40
M  V30 81 1 77 41
M  V30 82 1 78 41
M  V30 83 1 79 42
M  V30 84 1 80 42
M  V30 85 1 81 43
M  V30 86 1 82 44
M  V30 87 1 83 45
M  V30 END BOND
M  V30 END CTAB
M  END
>  <i_epik_Tot_Q>  (1) 
0

>  <i_epik_Tot_abs_Q>  (1) 
0

>  <i_i_glide_confnum>  (1) 
2995

>  <i_i_glide_lignum>  (1) 
97

>  <i_i_glide_posenum>  (1) 
47

>  <i_i_glide_rotatable_bonds>  (1) 
16

>  <i_lp_mmshare_version>  (1) 
72125

>  <i_m_source_file_index>  (1) 
42

>  <i_f3d_flags>  (1) 
0

>  <num_sample>  (1) 
50

>  <b_lp_Chiralities_Consistent>  (1) 
1

>  <r_epik_Charging_Adjusted_Penalty>  (1) 
0.41067983895260396

>  <r_epik_Ionization_Penalty>  (1) 
0.0048607436090088536

>  <r_epik_Ionization_Penalty_Charging>  (1) 
0

>  <r_epik_Ionization_Penalty_Neutral>  (1) 
0.0048607436090088536

>  <r_epik_State_Penalty>  (1) 
0.41067983895260396

>  <r_glide_ring_energy>  (1) 
0.56107915077030179

>  <r_i_docking_score>  (1) 
-10.044031885054538

>  <r_i_glide_ecoul>  (1) 
-4.7840126993245384

>  <r_i_glide_eff_state_penalty>  (1) 
0.41067983895260396

>  <r_i_glide_einternal>  (1) 
17.892807334546141

>  <r_i_glide_emodel>  (1) 
-66.004184498679024

>  <r_i_glide_emodel_strain>  (1) 
5.2950661705862245

>  <r_i_glide_energy>  (1) 
-47.498693598881914

>  <r_i_glide_erotb>  (1) 
0.41134081239429626

>  <r_i_glide_esite>  (1) 
-0.014492811589705704

>  <r_i_glide_evdw>  (1) 
-42.714680899557379

>  <r_i_glide_gscore>  (1) 
-10.454711724007142

>  <r_i_glide_gscore_strain>  (1) 
0.32376654264655613

>  <r_i_glide_hbond>  (1) 
-0.29822413213576915

>  <r_i_glide_ligand_efficiency>  (1) 
-0.22320070855676752

>  <r_i_glide_ligand_efficiency_ln>  (1) 
-2.0896062301920599

>  <r_i_glide_ligand_efficiency_sa>  (1) 
-0.79390110582300433

>  <r_i_glide_lipo>  (1) 
-6.1479134549034198

>  <r_i_glide_metal>  (1) 
-0

>  <r_i_glide_rewards>  (1) 
-1.8758527305425503

>  <r_lp_Energy>  (1) 
46.140012999999996

>  <r_lp_tautomer_probability>  (1) 
0.5

>  <s_epik_Chemistry_Notes>  (1) 
This compound has an imine and may undergo hydrolysis.

>  <s_epik_cmdline>  (1) 
J2VwaWtfcHl0aG9uJywgJy1waHQnLCAnMS4wJywgJy1waCcsICc3LjQnLCAnLXRuJywgJzgnLCAnLW1hJywgJzUwMCcsICctaW1hZScsICc8aW5maWxlLm1hZT4nLCAnLW9tYWUnLCAnPG91dGZpbGUubWFlPic=

>  <s_epik_input>  (1) 
W2NIXTFbY0hdW2NIXVtjSF1jKGMxMilDKD1PKVtDQEBIXShbT0hdKVtDQEBIXShbT0hdKVtDQEBIXTJbQ0BASF0oQyNbQ0hdKVtDSDJdW0NIMl1bQ0gyXVtDQEBIXTNPYyhjNFtDQEBIXShbQ0BAXTM1L1tDSF09Ti9bSF0pW0NIMl1bQ0BASF0oUzUpW0NIMl1PW0NIM10pW2NIXVtjSF1jKFtjSF00KU9bQ0gyXVtDSDJdW0NIMl1DKEYpKEYpRg==

>  <s_glide_docking_method>  (1) 
confgen

>  <s_i_glide_gridfile>  (1) 
gpcr_5ht2c_6bqh_protein_autoprepared_prepared

>  <s_lp_Force_Field>  (1) 
S-OPLS

>  <s_lp_Variant>  (1) 
DiffSBDD_41_num_sample_50-2

>  <s_m_source_file>  (1) 
generated__ligand_DiffSBDD_2026-05-06_prepared.sdf

>  <GenAI_Model>  (1) 
DiffSBDD

>  <Protein>  (1) 
GPCR_5HT2C

$$$$
DiffSBDD_28_num_sample_50
     RDKit          3D

  0  0  0  0  0  0  0  0  0  0999 V3000
M  V30 BEGIN CTAB
M  V30 COUNTS 93 98 0 0 1
M  V30 BEGIN ATOM
M  V30 1 C 39.693798 30.991184 50.176748 0
M  V30 2 C 40.622070 26.632348 57.556896 0
M  V30 3 O 44.645456 30.134170 69.088279 0
M  V30 4 C 40.608891 30.192771 63.048629 0 CFG=1
M  V30 5 C 41.441678 27.679804 58.314235 0 CFG=2
M  V30 6 C 41.867227 32.442425 63.349846 0
M  V30 7 C 38.605700 28.521611 53.792532 0
M  V30 8 O 44.390205 28.891909 64.112384 0
M  V30 9 C 41.088432 30.421164 50.091268 0
M  V30 10 C 44.274523 31.117078 68.142823 0 CFG=1
M  V30 11 C 38.303492 29.720156 54.507789 0
M  V30 12 N 39.886540 29.543878 59.366467 0
M  V30 13 C 42.040050 31.689099 68.329195 0
M  V30 14 C 36.626708 31.136922 60.054018 0
M  V30 15 C 42.856183 32.948472 68.665910 0
M  V30 16 C 39.339051 27.284261 58.085287 0 CFG=1
M  V30 17 C 38.566210 27.501465 54.711429 0
M  V30 18 O 38.446335 29.740014 59.386492 0
M  V30 19 O 44.271278 27.464039 63.853530 0
M  V30 20 O 43.749504 27.221402 57.853486 0
M  V30 21 C 38.898084 28.403360 52.318751 0
M  V30 22 C 40.787958 31.485220 63.878516 0
M  V30 23 C 40.130055 30.422150 61.591954 0 CFG=2
M  V30 24 C 43.439539 28.773103 66.332226 0
M  V30 25 O 42.035425 28.854424 64.378897 0
M  V30 26 N 38.240284 28.034828 55.951323 0
M  V30 27 C 38.084866 29.397266 55.814421 0
M  V30 28 C 40.173797 28.563968 58.301178 0 CFG=2
M  V30 29 C 38.671099 30.908882 61.519907 0
M  V30 30 C 45.229817 32.173257 67.676954 0
M  V30 31 C 42.737330 28.192660 57.707643 0
M  V30 32 C 38.150377 30.969308 60.063099 0 CFG=2
M  V30 33 O 38.667467 32.118797 59.425614 0
M  V30 34 O 37.776436 24.965324 57.825720 0
M  V30 35 N 42.963007 30.874307 67.546811 0
M  V30 36 C 37.476184 25.871864 57.047278 0
M  V30 37 C 38.075788 27.282890 57.201529 0 CFG=1
M  V30 38 C 44.271013 32.458353 68.820118 0 CFG=2
M  V30 39 C 40.253998 29.155123 60.723126 0
M  V30 40 C 43.279738 29.300781 64.895169 0 CFG=2
M  V30 41 C 39.936772 29.542237 50.518280 0
M  V30 42 C 42.526935 29.493755 67.342650 0
M  V30 43 O 41.834417 29.475895 63.029924 0
M  V30 44 O 39.904912 29.317168 51.916255 0
M  V30 45 H 39.192267 31.226584 49.242114 0
M  V30 46 H 39.478426 31.665022 51.001622 0
M  V30 47 H 40.733337 26.709991 56.475196 0
M  V30 48 H 40.756369 25.606943 57.896330 0
M  V30 49 H 43.925028 29.532050 69.184276 0
M  V30 50 H 39.868231 29.565459 63.544428 0
M  V30 51 H 41.625859 27.307572 59.317175 0
M  V30 52 H 42.026011 33.263913 64.048968 0
M  V30 53 H 42.820283 31.932632 63.213090 0
M  V30 54 H 41.584697 32.879666 62.392302 0
M  V30 55 H 41.802976 30.743913 50.843822 0
M  V30 56 H 41.500834 30.260618 49.097696 0
M  V30 57 H 38.246539 30.718943 54.099632 0
M  V30 58 H 41.126027 31.910929 67.778625 0
M  V30 59 H 41.769215 31.162572 69.246078 0
M  V30 60 H 36.234440 31.161718 59.039901 0
M  V30 61 H 36.137221 30.313458 60.566588 0
M  V30 62 H 36.318646 32.060001 60.545687 0
M  V30 63 H 42.813188 33.672203 67.851989 0
M  V30 64 H 42.509220 33.433266 69.578813 0
M  V30 65 H 39.116910 26.862526 59.067413 0
M  V30 66 H 38.732133 26.440327 54.593666 0
M  V30 67 H 43.940243 27.475959 62.962175 0
M  V30 68 H 43.450084 26.397594 57.478633 0
M  V30 69 H 39.201003 27.383757 52.073917 0
M  V30 70 H 37.967311 28.601999 51.783679 0
M  V30 71 H 39.846674 32.025383 63.939020 0
M  V30 72 H 41.026957 31.217284 64.907719 0
M  V30 73 H 40.765781 31.180572 61.135343 0
M  V30 74 H 43.221391 27.704562 66.345443 0
M  V30 75 H 44.482399 28.858544 66.638978 0
M  V30 76 H 37.826383 30.012523 56.664885 0
M  V30 77 H 40.183908 29.144570 57.378064 0
M  V30 78 H 38.052514 30.220342 62.094160 0
M  V30 79 H 38.560981 31.882769 61.997337 0
M  V30 80 H 45.031561 32.643855 66.716311 0
M  V30 81 H 46.281126 32.027628 67.914237 0
M  V30 82 H 42.606241 28.421413 56.653572 0
M  V30 83 H 43.061969 29.107399 58.204685 0
M  V30 84 H 38.221877 32.213601 58.596185 0
M  V30 85 H 36.780576 25.744994 56.217079 0
M  V30 86 H 37.306227 27.825005 57.752140 0
M  V30 87 H 44.695093 32.528393 69.820883 0
M  V30 88 H 41.288185 28.818008 60.742554 0
M  V30 89 H 39.627357 28.338037 61.084985 0
M  V30 90 H 43.295470 30.389508 64.910583 0
M  V30 91 H 39.611809 28.732666 49.866170 0
M  V30 92 H 41.502907 29.494971 66.968186 0
M  V30 93 H 42.503490 28.955056 68.290116 0
M  V30 END ATOM
M  V30 BEGIN BOND
M  V30 1 1 5 2
M  V30 2 1 9 1
M  V30 3 1 10 3 CFG=1
M  V30 4 1 11 7
M  V30 5 1 15 13
M  V30 6 1 16 2
M  V30 7 2 17 7
M  V30 8 1 18 12
M  V30 9 1 19 8
M  V30 10 1 21 7
M  V30 11 1 22 4
M  V30 12 1 22 6
M  V30 13 1 23 4
M  V30 14 1 26 17
M  V30 15 2 27 11
M  V30 16 1 27 26
M  V30 17 1 28 5
M  V30 18 1 28 12
M  V30 19 1 28 16
M  V30 20 1 29 23
M  V30 21 1 30 10
M  V30 22 1 31 5
M  V30 23 1 31 20
M  V30 24 1 32 14
M  V30 25 1 32 18
M  V30 26 1 32 29
M  V30 27 1 32 33 CFG=3
M  V30 28 1 35 10
M  V30 29 1 35 13
M  V30 30 2 36 34
M  V30 31 1 37 16
M  V30 32 1 37 26
M  V30 33 1 37 36
M  V30 34 1 38 10
M  V30 35 1 38 15
M  V30 36 1 38 30
M  V30 37 1 39 12
M  V30 38 1 39 23
M  V30 39 1 40 8
M  V30 40 1 40 24
M  V30 41 1 40 25
M  V30 42 1 41 1
M  V30 43 1 41 9
M  V30 44 1 42 24
M  V30 45 1 42 35
M  V30 46 1 43 4
M  V30 47 1 43 25
M  V30 48 1 44 21
M  V30 49 1 44 41
M  V30 50 1 45 1
M  V30 51 1 46 1
M  V30 52 1 47 2
M  V30 53 1 48 2
M  V30 54 1 49 3
M  V30 55 1 4 50 CFG=1
M  V30 56 1 5 51 CFG=1
M  V30 57 1 52 6
M  V30 58 1 53 6
M  V30 59 1 54 6
M  V30 60 1 55 9
M  V30 61 1 56 9
M  V30 62 1 57 11
M  V30 63 1 58 13
M  V30 64 1 59 13
M  V30 65 1 60 14
M  V30 66 1 61 14
M  V30 67 1 62 14
M  V30 68 1 63 15
M  V30 69 1 64 15
M  V30 70 1 16 65 CFG=1
M  V30 71 1 66 17
M  V30 72 1 67 19
M  V30 73 1 68 20
M  V30 74 1 69 21
M  V30 75 1 70 21
M  V30 76 1 71 22
M  V30 77 1 72 22
M  V30 78 1 23 73 CFG=3
M  V30 79 1 74 24
M  V30 80 1 75 24
M  V30 81 1 76 27
M  V30 82 1 28 77 CFG=3
M  V30 83 1 78 29
M  V30 84 1 79 29
M  V30 85 1 80 30
M  V30 86 1 81 30
M  V30 87 1 82 31
M  V30 88 1 83 31
M  V30 89 1 84 33
M  V30 90 1 85 36
M  V30 91 1 37 86 CFG=1
M  V30 92 1 38 87 CFG=1
M  V30 93 1 88 39
M  V30 94 1 89 39
M  V30 95 1 40 90 CFG=1
M  V30 96 1 91 41
M  V30 97 1 92 42
M  V30 98 1 93 42
M  V30 END BOND
M  V30 END CTAB
M  END
>  <i_epik_Tot_Q>  (1) 
0

>  <i_epik_Tot_abs_Q>  (1) 
0

>  <i_i_glide_confnum>  (1) 
5194

>  <i_i_glide_lignum>  (1) 
71

>  <i_i_glide_posenum>  (1) 
196

>  <i_i_glide_rotatable_bonds>  (1) 
21

>  <i_lp_mmshare_version>  (1) 
72125

>  <i_m_source_file_index>  (1) 
29

>  <i_f3d_flags>  (1) 
2

>  <num_sample>  (1) 
50

>  <b_lp_Chiralities_Consistent>  (1) 
0

>  <r_epik_Charging_Adjusted_Penalty>  (1) 
0.25482057645041689

>  <r_epik_Ionization_Penalty>  (1) 
0.26872052639311422

>  <r_epik_Ionization_Penalty_Charging>  (1) 
0

>  <r_epik_Ionization_Penalty_Neutral>  (1) 
0.26872052639311422

>  <r_epik_State_Penalty>  (1) 
0.25482057645041689

>  <r_glide_ring_energy>  (1) 
0

>  <r_i_docking_score>  (1) 
-9.9337688129977852

>  <r_i_glide_ecoul>  (1) 
-7.890382084673158

>  <r_i_glide_eff_state_penalty>  (1) 
0.25482057645041689

>  <r_i_glide_einternal>  (1) 
15.623715978268706

>  <r_i_glide_emodel>  (1) 
-93.830732280357324

>  <r_i_glide_emodel_strain>  (1) 
1.1567683241236466

>  <r_i_glide_energy>  (1) 
-68.071881332039212

>  <r_i_glide_erotb>  (1) 
0.67974203347384798

>  <r_i_glide_esite>  (1) 
-0.030936225532726059

>  <r_i_glide_evdw>  (1) 
-60.181499247366048

>  <r_i_glide_gscore>  (1) 
-10.188589389448202

>  <r_i_glide_gscore_strain>  (1) 
0

>  <r_i_glide_hbond>  (1) 
-0.60799999999999998

>  <r_i_glide_ligand_efficiency>  (1) 
-0.22576747302267694

>  <r_i_glide_ligand_efficiency_ln>  (1) 
-2.076374385866893

>  <r_i_glide_ligand_efficiency_sa>  (1) 
-0.79703782255637956

>  <r_i_glide_lipo>  (1) 
-4.8278691915813745

>  <r_i_glide_metal>  (1) 
-0

>  <r_i_glide_rewards>  (1) 
-1.2088937307386733

>  <r_lp_Energy>  (1) 
27.722360999999999

>  <s_epik_Chemistry_Notes>  (1) 
This compound contains an acetal/aminal-like group ( X-CH(R)-Y where X, Y are N, S, or O) that may be acid/base labile, releasing an aldehyde. This compound has a N-S or N-O group and may undergo hydrolysis at high or low pH.

>  <s_epik_cmdline>  (1) 
J2VwaWtfcHl0aG9uJywgJy1waHQnLCAnMS4wJywgJy1waCcsICc3LjQnLCAnLXRuJywgJzgnLCAnLW1hJywgJzUwMCcsICctaW1hZScsICc8aW5maWxlLm1hZT4nLCAnLW9tYWUnLCAnPG91dGZpbGUubWFlPic=

>  <s_epik_input>  (1) 
W0NIMl0xW0NIMl1bQ0hdMU9bQ0gyXWMyW2NIXVtjSF1uKFtjSF0yKVtDQEBIXShbQ0hdPU8pW0NAQEhdKFtDSDJdW0NASF0zW0NIMl1bT0hdKVtDQEhdM04oT1tDQF00KFtDSDNdKVtPSF0pW0NIMl1bQ0BASF0oW0NIMl00KVtDQEhdKFtDSDJdW0NIM10pT09bQ0BIXShPW09IXSlbQ0gyXVtDSDJdTjVbQ0gyXVtDSDJdW0NASF0oW0NIMl02KVtDQEBdNTZbT0hd

>  <s_glide_docking_method>  (1) 
confgen

>  <s_i_glide_gridfile>  (1) 
gpcr_5ht2c_6bqh_protein_autoprepared_prepared

>  <s_lp_Force_Field>  (1) 
S-OPLS

>  <s_lp_Variant>  (1) 
DiffSBDD_28_num_sample_50-1

>  <s_m_source_file>  (1) 
generated__ligand_DiffSBDD_2026-05-06_prepared.sdf

>  <GenAI_Model>  (1) 
DiffSBDD

>  <Protein>  (1) 
GPCR_5HT2C

$$$$
DiffSBDD_8_num_sample_50
     RDKit          3D

  0  0  0  0  0  0  0  0  0  0999 V3000
M  V30 BEGIN CTAB
M  V30 COUNTS 70 74 0 0 1
M  V30 BEGIN ATOM
M  V30 1 C 39.265489 32.160615 61.164922 0
M  V30 2 N 38.741593 28.972828 58.659776 0
M  V30 3 C 38.236671 28.948046 54.940933 0
M  V30 4 C 38.560340 28.915912 52.427949 0
M  V30 5 C 40.896808 28.421437 57.438148 0
M  V30 6 C 37.516255 24.621301 56.066420 0
M  V30 7 C 38.628476 29.623278 53.773121 0
M  V30 8 C 38.538008 25.221433 55.315470 0
M  V30 9 C 39.272849 29.664128 60.989785 0
M  V30 10 C 39.503902 26.022499 55.949452 0
M  V30 11 N 40.059041 30.913856 61.065606 0 CHG=1
M  V30 12 N 40.091856 28.376417 58.652293 0
M  V30 13 C 39.983229 35.899752 61.899624 0
M  V30 14 C 41.692721 33.963601 63.698205 0
M  V30 15 N 41.345389 35.925471 62.214597 0
M  V30 16 C 37.309940 35.757901 61.272016 0
M  V30 17 C 39.077037 30.958642 53.853457 0
M  V30 18 O 37.218319 30.162741 59.853503 0
M  V30 19 C 37.886735 28.855504 57.442807 0
M  V30 20 C 38.299992 29.597674 56.190245 0
M  V30 21 O 40.667396 36.021428 64.549850 0
M  V30 22 C 41.564209 35.503841 63.591490 0 CFG=1
M  V30 23 N 38.006324 34.598872 61.328803 0
M  V30 24 O 39.108285 27.613856 52.451678 0
M  V30 25 C 37.460366 24.819825 57.453500 0
M  V30 26 C 40.461814 27.101256 58.017910 0 CFG=1
M  V30 27 C 40.505453 33.105441 63.199547 0
M  V30 28 C 39.240632 37.090868 61.853511 0
M  V30 29 C 39.129539 31.612514 55.100333 0
M  V30 30 C 38.319539 29.621431 59.776952 0
M  V30 31 C 39.447880 26.235055 57.343236 0
M  V30 32 F 36.586535 23.852018 55.453518 0
M  V30 33 C 38.743074 30.932669 56.268666 0
M  V30 34 C 39.324547 34.678987 61.634277 0
M  V30 35 C 40.083701 33.350066 61.727254 0 CFG=2
M  V30 36 C 37.878267 37.019578 61.529313 0
M  V30 37 C 38.423214 25.621443 58.090361 0
M  V30 38 H 38.893600 32.399422 60.166915 0
M  V30 39 H 38.394204 31.989624 61.800173 0
M  V30 40 H 37.889110 27.928490 54.879753 0
M  V30 41 H 37.514862 28.831329 52.128692 0
M  V30 42 H 39.070772 29.500238 51.661492 0
M  V30 43 H 40.501273 28.668288 56.462347 0
M  V30 44 H 41.946327 28.674384 57.571126 0
M  V30 45 H 38.580196 25.071883 54.253502 0
M  V30 46 H 39.933148 28.800192 61.060843 0
M  V30 47 H 38.667403 29.612348 61.895117 0
M  V30 48 H 40.286200 26.483895 55.364012 0
M  V30 49 H 40.629509 30.851929 61.896115 0
M  V30 50 H 41.897097 33.704844 64.738408 0
M  V30 51 H 42.579901 33.644109 63.150513 0
M  V30 52 H 41.899840 35.371062 61.581023 0
M  V30 53 H 36.267402 35.673397 61.015526 0
M  V30 54 H 39.377251 31.483860 52.958401 0
M  V30 55 H 37.604179 27.840159 57.206105 0
M  V30 56 H 36.904955 29.281858 57.652377 0
M  V30 57 H 40.954188 36.909517 64.743829 0
M  V30 58 H 42.532994 35.920348 63.872277 0
M  V30 59 H 38.926943 27.199849 51.620648 0
M  V30 60 H 36.674822 24.362187 58.031356 0
M  V30 61 H 41.248974 26.498213 58.460043 0
M  V30 62 H 40.811727 32.068417 63.328349 0
M  V30 63 H 39.644327 33.221427 63.853500 0
M  V30 64 H 39.710392 38.042270 62.056717 0
M  V30 65 H 39.467404 32.635823 55.159404 0
M  V30 66 H 38.784895 31.434667 57.223797 0
M  V30 67 H 40.978524 33.443254 61.112047 0
M  V30 68 H 37.276975 37.914980 61.476016 0
M  V30 69 H 38.371187 25.776962 59.152796 0
M  V30 70 H 40.655383 30.966717 60.253514 0
M  V30 END ATOM
M  V30 BEGIN BOND
M  V30 1 2 7 3
M  V30 2 1 7 4
M  V30 3 1 8 6
M  V30 4 2 10 8
M  V30 5 1 11 1
M  V30 6 1 11 9
M  V30 7 1 12 2
M  V30 8 1 12 5
M  V30 9 1 15 13
M  V30 10 1 17 7
M  V30 11 1 19 2
M  V30 12 1 20 3
M  V30 13 1 20 19
M  V30 14 1 22 14
M  V30 15 1 22 15
M  V30 16 1 22 21
M  V30 17 1 23 16
M  V30 18 1 24 4
M  V30 19 2 25 6
M  V30 20 1 26 5
M  V30 21 1 26 12
M  V30 22 1 27 14
M  V30 23 2 28 13
M  V30 24 2 29 17
M  V30 25 1 30 2
M  V30 26 1 30 9
M  V30 27 2 30 18
M  V30 28 1 31 10
M  V30 29 1 31 26
M  V30 30 1 32 6
M  V30 31 2 33 20
M  V30 32 1 33 29
M  V30 33 1 34 13
M  V30 34 2 34 23
M  V30 35 1 35 1
M  V30 36 1 35 27
M  V30 37 1 35 34
M  V30 38 2 36 16
M  V30 39 1 36 28
M  V30 40 1 37 25
M  V30 41 2 37 31
M  V30 42 1 38 1
M  V30 43 1 39 1
M  V30 44 1 40 3
M  V30 45 1 41 4
M  V30 46 1 42 4
M  V30 47 1 43 5
M  V30 48 1 44 5
M  V30 49 1 45 8
M  V30 50 1 46 9
M  V30 51 1 47 9
M  V30 52 1 48 10
M  V30 53 1 49 11
M  V30 54 1 50 14
M  V30 55 1 51 14
M  V30 56 1 52 15
M  V30 57 1 53 16
M  V30 58 1 54 17
M  V30 59 1 55 19
M  V30 60 1 56 19
M  V30 61 1 57 21
M  V30 62 1 22 58 CFG=1
M  V30 63 1 59 24
M  V30 64 1 60 25
M  V30 65 1 26 61 CFG=1
M  V30 66 1 62 27
M  V30 67 1 63 27
M  V30 68 1 64 28
M  V30 69 1 65 29
M  V30 70 1 66 33
M  V30 71 1 35 67 CFG=3
M  V30 72 1 68 36
M  V30 73 1 69 37
M  V30 74 1 70 11
M  V30 END BOND
M  V30 END CTAB
M  END
>  <i_epik_Tot_Q>  (1) 
1

>  <i_epik_Tot_abs_Q>  (1) 
1

>  <i_i_glide_confnum>  (1) 
959

>  <i_i_glide_lignum>  (1) 
29

>  <i_i_glide_posenum>  (1) 
132

>  <i_i_glide_rotatable_bonds>  (1) 
12

>  <i_lp_mmshare_version>  (1) 
72125

>  <i_m_source_file_index>  (1) 
9

>  <i_f3d_flags>  (1) 
0

>  <num_sample>  (1) 
50

>  <b_lp_Chiralities_Consistent>  (1) 
1

>  <r_epik_Charging_Adjusted_Penalty>  (1) 
0.46903428826383708

>  <r_epik_Ionization_Penalty>  (1) 
0.30166015279675507

>  <r_epik_Ionization_Penalty_Charging>  (1) 
0.29766720737570945

>  <r_epik_Ionization_Penalty_Neutral>  (1) 
0.0039929454210456379

>  <r_epik_State_Penalty>  (1) 
0.17136708088812766

>  <r_glide_ring_energy>  (1) 
0

>  <r_i_docking_score>  (1) 
-9.5547661186912389

>  <r_i_glide_ecoul>  (1) 
-1.8327095220575838

>  <r_i_glide_eff_state_penalty>  (1) 
0.17136708088812766

>  <r_i_glide_einternal>  (1) 
6.4528779833384959

>  <r_i_glide_emodel>  (1) 
-94.520342382171933

>  <r_i_glide_emodel_strain>  (1) 
4.6187499646429302

>  <r_i_glide_energy>  (1) 
-57.381118820559657

>  <r_i_glide_erotb>  (1) 
0.79724194346153032

>  <r_i_glide_esite>  (1) 
0

>  <r_i_glide_evdw>  (1) 
-55.548409298502072

>  <r_i_glide_gscore>  (1) 
-9.7261331995793672

>  <r_i_glide_gscore_strain>  (1) 
0.15468749116073255

>  <r_i_glide_hbond>  (1) 
-0.32000000000000001

>  <r_i_glide_ligand_efficiency>  (1) 
-0.25823692212679022

>  <r_i_glide_ligand_efficiency_ln>  (1) 
-2.0722047756456079

>  <r_i_glide_ligand_efficiency_sa>  (1) 
-0.86050271481268492

>  <r_i_glide_lipo>  (1) 
-5.598941747416478

>  <r_i_glide_metal>  (1) 
-0

>  <r_i_glide_rewards>  (1) 
-1.7067939935514109

>  <r_lp_Energy>  (1) 
69.367840000000001

>  <s_epik_Chemistry_Notes>  (1) 
This compound contains an acetal/aminal-like group ( X-CH(R)-Y where X, Y are N, S, or O) that may be acid/base labile, releasing an aldehyde.

>  <s_epik_cmdline>  (1) 
J2VwaWtfcHl0aG9uJywgJy1waHQnLCAnMS4wJywgJy1waCcsICc3LjQnLCAnLXRuJywgJzgnLCAnLW1hJywgJzUwMCcsICctaW1hZScsICc8aW5maWxlLm1hZT4nLCAnLW9tYWUnLCAnPG91dGZpbGUubWFlPic=

>  <s_epik_input>  (1) 
W2NIXTFbY0hdW2NIXW5jKGMxMilbQ0BASF0oW0NIMl1bQ0gyXVtDQEBIXShbTkhdMilbT0hdKVtDSDJdW05IXVtDSDJdQyg9TylOKFtDSDJdYyhbY0hdW2NIXVtjSF0zKVtjSF1jM1tDSDJdW09IXSlONFtDSDJdW0NAQEhdNGMoW2NIXVtjSF01KVtjSF1bY0hdYzVG

>  <s_glide_docking_method>  (1) 
confgen

>  <s_i_glide_gridfile>  (1) 
gpcr_5ht2c_6bqh_protein_autoprepared_prepared

>  <s_lp_Force_Field>  (1) 
S-OPLS

>  <s_lp_Variant>  (1) 
DiffSBDD_8_num_sample_50-1

>  <s_m_source_file>  (1) 
generated__ligand_DiffSBDD_2026-05-06_prepared.sdf

>  <GenAI_Model>  (1) 
DiffSBDD

>  <Protein>  (1) 
GPCR_5HT2C

$$$$
DiffSBDD_41_num_sample_50
     RDKit          3D

  0  0  0  0  0  0  0  0  0  0999 V3000
M  V30 BEGIN CTAB
M  V30 COUNTS 83 87 0 0 1
M  V30 BEGIN ATOM
M  V30 1 C 38.990139 33.576653 61.589656 0
M  V30 2 C 38.049017 32.407114 61.334629 0 CFG=2
M  V30 3 C 37.382740 26.020417 55.568226 0
M  V30 4 C 39.868119 29.669477 49.998385 0
M  V30 5 C 36.181584 34.088579 60.782139 0 CFG=1
M  V30 6 O 35.833345 33.770190 59.452508 0
M  V30 7 O 36.855344 36.369924 60.462733 0
M  V30 8 C 35.677465 18.128905 54.895058 0
M  V30 9 C 38.587014 32.483533 58.829042 0
M  V30 10 C 36.667777 23.689959 55.915773 0
M  V30 11 C 37.067350 29.903009 55.315440 0
M  V30 12 C 38.952756 29.363505 57.773409 0
M  V30 13 C 38.291227 31.635583 60.004207 0 CFG=1
M  V30 14 C 34.711298 20.475194 55.468806 0
M  V30 15 F 35.868006 17.310559 53.861379 0
M  V30 16 O 38.686736 27.101739 57.281324 0
M  V30 17 C 37.393931 27.317598 54.709527 0 CFG=2
M  V30 18 C 38.809504 29.188879 59.300396 0
M  V30 19 C 37.279904 23.708512 57.187683 0
M  V30 20 C 36.619295 32.861673 61.573124 0 CFG=1
M  V30 21 O 35.665301 31.824572 61.453362 0
M  V30 22 F 36.837253 18.298462 55.524804 0
M  V30 23 C 38.796672 28.452440 53.047258 0 CFG=1
M  V30 24 C 38.100935 28.348231 56.990478 0 CFG=2
M  V30 25 C 35.867374 21.277536 56.093169 0
M  V30 26 N 37.415964 30.925143 54.653605 0
M  V30 27 F 34.804837 17.560217 55.725445 0
M  V30 28 O 39.318644 28.541601 50.661226 0
M  V30 29 C 38.577657 34.922183 61.337297 0
M  V30 30 C 38.012592 26.005575 56.829738 0
M  V30 31 C 38.136510 27.122988 53.379611 0
M  V30 32 C 41.162779 34.390949 62.340398 0
M  V30 33 C 36.730758 24.841515 55.101486 0
M  V30 34 O 35.994310 22.566131 55.453588 0
M  V30 35 C 37.928376 28.619504 55.461367 0 CFG=2
M  V30 36 S 39.467361 28.946665 54.652948 0
M  V30 37 C 40.764876 35.715466 62.081129 0
M  V30 38 C 38.727642 33.121071 57.797199 0
M  V30 39 C 37.197062 35.243666 60.823535 0
M  V30 40 C 39.862231 28.356069 51.956322 0
M  V30 41 C 39.211226 30.394879 60.173516 0
M  V30 42 C 35.126213 19.465528 54.372490 0
M  V30 43 C 37.955696 24.855802 57.631699 0
M  V30 44 C 40.282760 33.325826 62.089834 0
M  V30 45 C 39.478665 35.981047 61.579144 0
M  V30 46 H 38.235996 31.711735 62.154438 0
M  V30 47 H 39.494545 29.707556 48.978360 0
M  V30 48 H 39.575945 30.591197 50.502464 0
M  V30 49 H 40.956982 29.621484 49.953322 0
M  V30 50 H 35.259393 34.436672 61.244071 0
M  V30 51 H 35.519139 34.553693 59.023818 0
M  V30 52 H 36.118342 29.878424 55.849186 0
M  V30 53 H 38.622932 30.342515 57.463363 0
M  V30 54 H 40.004792 29.299023 57.492390 0
M  V30 55 H 37.330889 31.204589 59.729763 0
M  V30 56 H 34.160683 19.951552 56.249030 0
M  V30 57 H 34.013857 21.183100 55.051997 0
M  V30 58 H 36.370418 27.521427 54.403972 0
M  V30 59 H 39.396123 28.322592 59.606481 0
M  V30 60 H 37.778785 28.934333 59.544811 0
M  V30 61 H 37.237701 22.837039 57.825554 0
M  V30 62 H 36.656425 33.168349 62.612116 0
M  V30 63 H 35.434040 31.777268 60.533074 0
M  V30 64 H 38.045092 29.177148 52.733414 0
M  V30 65 H 37.108707 28.334167 57.450824 0
M  V30 66 H 36.667379 20.641096 55.853908 0
M  V30 67 H 35.867768 21.221912 57.174277 0
M  V30 68 H 36.732528 31.668929 54.750698 0
M  V30 69 H 38.916263 26.373023 53.519064 0
M  V30 70 H 37.475560 26.768809 52.590485 0
M  V30 71 H 42.148172 34.190268 62.732646 0
M  V30 72 H 36.267382 24.826058 54.128471 0
M  V30 73 H 41.446801 36.530769 62.273924 0
M  V30 74 H 38.793884 33.621320 56.857912 0
M  V30 75 H 40.667398 29.066587 52.148257 0
M  V30 76 H 40.267444 27.352928 51.992238 0
M  V30 77 H 40.262185 30.642351 60.059038 0
M  V30 78 H 39.142982 30.038089 61.201168 0
M  V30 79 H 34.254258 19.224800 53.767092 0
M  V30 80 H 35.852639 19.923743 53.699156 0
M  V30 81 H 38.423882 24.860143 58.599984 0
M  V30 82 H 40.597990 32.311278 62.286618 0
M  V30 83 H 39.177164 37.001125 61.391271 0
M  V30 END ATOM
M  V30 BEGIN BOND
M  V30 1 1 2 1
M  V30 2 1 6 5
M  V30 3 1 13 2
M  V30 4 1 13 9
M  V30 5 1 15 8
M  V30 6 1 17 3
M  V30 7 1 18 12
M  V30 8 1 19 10
M  V30 9 1 20 2
M  V30 10 1 20 5
M  V30 11 1 21 20
M  V30 12 1 22 8
M  V30 13 1 24 12
M  V30 14 1 24 16
M  V30 15 1 25 14
M  V30 16 2 26 11
M  V30 17 1 27 8
M  V30 18 1 28 4
M  V30 19 1 29 1
M  V30 20 2 30 3
M  V30 21 1 30 16
M  V30 22 1 31 17
M  V30 23 1 31 23
M  V30 24 1 33 3
M  V30 25 2 33 10
M  V30 26 1 34 10
M  V30 27 1 34 25
M  V30 28 1 35 11 CFG=1
M  V30 29 1 35 17
M  V30 30 1 35 24
M  V30 31 1 36 23
M  V30 32 1 36 35
M  V30 33 2 37 32
M  V30 34 3 38 9
M  V30 35 1 39 5
M  V30 36 2 39 7
M  V30 37 1 39 29
M  V30 38 1 40 23
M  V30 39 1 40 28
M  V30 40 1 41 13
M  V30 41 1 41 18
M  V30 42 1 42 8
M  V30 43 1 42 14
M  V30 44 2 43 19
M  V30 45 1 43 30
M  V30 46 2 44 1
M  V30 47 1 44 32
M  V30 48 2 45 29
M  V30 49 1 45 37
M  V30 50 1 2 46 CFG=1
M  V30 51 1 47 4
M  V30 52 1 48 4
M  V30 53 1 49 4
M  V30 54 1 5 50 CFG=1
M  V30 55 1 51 6
M  V30 56 1 52 11
M  V30 57 1 53 12
M  V30 58 1 54 12
M  V30 59 1 13 55 CFG=3
M  V30 60 1 56 14
M  V30 61 1 57 14
M  V30 62 1 17 58 CFG=3
M  V30 63 1 59 18
M  V30 64 1 60 18
M  V30 65 1 61 19
M  V30 66 1 20 62 CFG=1
M  V30 67 1 63 21
M  V30 68 1 23 64 CFG=3
M  V30 69 1 24 65 CFG=1
M  V30 70 1 66 25
M  V30 71 1 67 25
M  V30 72 1 68 26
M  V30 73 1 69 31
M  V30 74 1 70 31
M  V30 75 1 71 32
M  V30 76 1 72 33
M  V30 77 1 73 37
M  V30 78 1 74 38
M  V30 79 1 75 40
M  V30 80 1 76 40
M  V30 81 1 77 41
M  V30 82 1 78 41
M  V30 83 1 79 42
M  V30 84 1 80 42
M  V30 85 1 81 43
M  V30 86 1 82 44
M  V30 87 1 83 45
M  V30 END BOND
M  V30 END CTAB
M  END
>  <i_epik_Tot_Q>  (1) 
0

>  <i_epik_Tot_abs_Q>  (1) 
0

>  <i_i_glide_confnum>  (1) 
1508

>  <i_i_glide_lignum>  (1) 
97

>  <i_i_glide_posenum>  (1) 
80

>  <i_i_glide_rotatable_bonds>  (1) 
16

>  <i_lp_mmshare_version>  (1) 
72125

>  <i_m_source_file_index>  (1) 
42

>  <i_f3d_flags>  (1) 
0

>  <num_sample>  (1) 
50

>  <b_lp_Chiralities_Consistent>  (1) 
1

>  <r_epik_Charging_Adjusted_Penalty>  (1) 
0.41067983895260396

>  <r_epik_Ionization_Penalty>  (1) 
0.0048607436090088536

>  <r_epik_Ionization_Penalty_Charging>  (1) 
0

>  <r_epik_Ionization_Penalty_Neutral>  (1) 
0.0048607436090088536

>  <r_epik_State_Penalty>  (1) 
0.41067983895260396

>  <r_glide_ring_energy>  (1) 
0.56107915077030179

>  <r_i_docking_score>  (1) 
-9.4887080421586685

>  <r_i_glide_ecoul>  (1) 
-4.2458282734567723

>  <r_i_glide_eff_state_penalty>  (1) 
0.41067983895260396

>  <r_i_glide_einternal>  (1) 
18.983028762434252

>  <r_i_glide_emodel>  (1) 
-54.234985855961071

>  <r_i_glide_emodel_strain>  (1) 
4.1030561972415427

>  <r_i_glide_energy>  (1) 
-36.8220188927408

>  <r_i_glide_erotb>  (1) 
0.41134081239429626

>  <r_i_glide_esite>  (1) 
-0.073099920393370321

>  <r_i_glide_evdw>  (1) 
-32.576190619284027

>  <r_i_glide_gscore>  (1) 
-9.8993878811112719

>  <r_i_glide_gscore_strain>  (1) 
0.025764049310385673

>  <r_i_glide_hbond>  (1) 
-0.357954522837379

>  <r_i_glide_ligand_efficiency>  (1) 
-0.21086017871463708

>  <r_i_glide_ligand_efficiency_ln>  (1) 
-1.9740741236466708

>  <r_i_glide_ligand_efficiency_sa>  (1) 
-0.75000715785367078

>  <r_i_glide_lipo>  (1) 
-6.1555843353055613

>  <r_i_glide_metal>  (1) 
-0

>  <r_i_glide_rewards>  (1) 
-1.4841701922969281

>  <r_lp_Energy>  (1) 
46.140012999999996

>  <r_lp_tautomer_probability>  (1) 
0.5

>  <s_epik_Chemistry_Notes>  (1) 
This compound has an imine and may undergo hydrolysis.

>  <s_epik_cmdline>  (1) 
J2VwaWtfcHl0aG9uJywgJy1waHQnLCAnMS4wJywgJy1waCcsICc3LjQnLCAnLXRuJywgJzgnLCAnLW1hJywgJzUwMCcsICctaW1hZScsICc8aW5maWxlLm1hZT4nLCAnLW9tYWUnLCAnPG91dGZpbGUubWFlPic=

>  <s_epik_input>  (1) 
W2NIXTFbY0hdW2NIXVtjSF1jKGMxMilDKD1PKVtDQEBIXShbT0hdKVtDQEBIXShbT0hdKVtDQEBIXTJbQ0BASF0oQyNbQ0hdKVtDSDJdW0NIMl1bQ0gyXVtDQEBIXTNPYyhjNFtDQEBIXShbQ0BAXTM1L1tDSF09Ti9bSF0pW0NIMl1bQ0BASF0oUzUpW0NIMl1PW0NIM10pW2NIXVtjSF1jKFtjSF00KU9bQ0gyXVtDSDJdW0NIMl1DKEYpKEYpRg==

>  <s_glide_docking_method>  (1) 
confgen

>  <s_i_glide_gridfile>  (1) 
gpcr_5ht2c_6bqh_protein_autoprepared_prepared

>  <s_lp_Force_Field>  (1) 
S-OPLS

>  <s_lp_Variant>  (1) 
DiffSBDD_41_num_sample_50-2

>  <s_m_source_file>  (1) 
generated__ligand_DiffSBDD_2026-05-06_prepared.sdf

>  <GenAI_Model>  (1) 
DiffSBDD

>  <Protein>  (1) 
GPCR_5HT2C

$$$$
DiffSBDD_18_num_sample_50
     RDKit          3D

  0  0  0  0  0  0  0  0  0  0999 V3000
M  V30 BEGIN CTAB
M  V30 COUNTS 74 76 0 0 1
M  V30 BEGIN ATOM
M  V30 1 C 38.759091 26.832300 54.570391 0
M  V30 2 C 38.351458 26.580123 56.027378 0 CFG=1
M  V30 3 C 40.584385 29.497155 50.842224 0
M  V30 4 F 40.008419 37.508120 61.967340 0
M  V30 5 C 38.016482 33.021772 61.359084 0
M  V30 6 C 38.344643 31.982960 57.933010 0 CFG=2
M  V30 7 C 39.818388 28.223380 50.487439 0
M  V30 8 C 39.115584 33.933647 61.871369 0
M  V30 9 F 40.292888 32.048824 62.803368 0
M  V30 10 C 38.929334 28.324736 54.226209 0
M  V30 11 C 41.221978 34.229925 63.088414 0
M  V30 12 C 38.170041 32.313104 56.434957 0
M  V30 13 C 36.877257 33.741261 60.657482 0 CFG=2
M  V30 14 N 35.571600 33.109981 60.803429 0
M  V30 15 C 38.889621 30.547769 58.174852 0
M  V30 16 C 37.904609 29.385346 57.893273 0
M  V30 17 O 39.408461 32.223852 55.766486 0
M  V30 18 C 41.150235 35.620094 62.880425 0
M  V30 19 O 38.067313 31.800075 61.512863 0
M  V30 20 C 39.062531 35.339711 61.655664 0
M  V30 21 S 39.867403 30.152419 52.362867 0
M  V30 22 C 39.334935 27.799449 59.366471 0
M  V30 23 C 39.415086 27.557465 51.797179 0
M  V30 24 C 40.212394 33.384453 62.589267 0
M  V30 25 C 38.463342 25.074944 56.365539 0
M  V30 26 N 39.176922 27.411780 56.940253 0 CHG=1
M  V30 27 F 37.623021 28.821429 52.387870 0
M  V30 28 C 36.684117 33.507242 59.142930 0 CFG=2
M  V30 29 C 35.185018 33.545796 59.470561 0
M  V30 30 C 37.771767 24.654944 57.671222 0
M  V30 31 C 38.458905 27.952506 58.116420 0 CFG=2
M  V30 32 C 38.897322 28.652314 52.725536 0 CFG=1
M  V30 33 C 40.074533 36.171685 62.164815 0
M  V30 34 N 37.067404 32.159488 58.653501 0 CHG=1
M  V30 35 H 39.689380 26.305059 54.354755 0
M  V30 36 H 38.000113 26.388784 53.923720 0
M  V30 37 H 37.306402 26.875276 56.104470 0
M  V30 38 H 40.560304 30.236761 50.041114 0
M  V30 39 H 41.624640 29.264045 51.053502 0
M  V30 40 H 39.064505 32.684958 58.356880 0
M  V30 41 H 38.925901 28.475810 49.916131 0
M  V30 42 H 40.406024 27.541521 49.879860 0
M  V30 43 H 38.149997 28.913292 54.711734 0
M  V30 44 H 39.867400 28.677134 54.653499 0
M  V30 45 H 42.052342 33.810152 63.636762 0
M  V30 46 H 37.776196 33.322562 56.303146 0
M  V30 47 H 37.467399 31.633699 55.952787 0
M  V30 48 H 36.684126 34.762365 60.972513 0
M  V30 49 H 35.010035 33.543689 61.526335 0
M  V30 50 H 39.796175 30.397581 57.587878 0
M  V30 51 H 39.201127 30.494766 59.218295 0
M  V30 52 H 37.047423 29.499454 58.557438 0
M  V30 53 H 37.493673 29.469623 56.887695 0
M  V30 54 H 39.270706 32.421363 54.850638 0
M  V30 55 H 41.925149 36.265307 63.270275 0
M  V30 56 H 38.254177 35.786822 61.109731 0
M  V30 57 H 38.783431 28.051190 60.273776 0
M  V30 58 H 39.678705 26.770325 59.453507 0
M  V30 59 H 40.228935 28.421556 59.326226 0
M  V30 60 H 40.267396 27.071264 52.253665 0
M  V30 61 H 38.661198 26.792641 51.622122 0
M  V30 62 H 38.006669 24.501916 55.556300 0
M  V30 63 H 39.510712 24.769567 56.388573 0
M  V30 64 H 39.550931 28.191657 56.418936 0
M  V30 65 H 37.004432 34.329543 58.501493 0
M  V30 66 H 34.744664 34.544473 59.458093 0
M  V30 67 H 34.557086 32.821419 58.953080 0
M  V30 68 H 37.818262 23.574434 57.806653 0
M  V30 69 H 38.246238 25.101614 58.542743 0
M  V30 70 H 36.719441 24.941441 57.672364 0
M  V30 71 H 37.585323 27.318604 58.253501 0
M  V30 72 H 36.329504 31.912910 57.977751 0
M  V30 73 H 39.951248 26.844604 57.256160 0
M  V30 74 H 37.009494 31.528018 59.439280 0
M  V30 END ATOM
M  V30 BEGIN BOND
M  V30 1 1 2 1
M  V30 2 1 7 3
M  V30 3 1 8 5
M  V30 4 1 10 1
M  V30 5 1 12 6
M  V30 6 1 13 5
M  V30 7 1 14 13
M  V30 8 1 15 6
M  V30 9 1 16 15
M  V30 10 1 17 12
M  V30 11 2 18 11
M  V30 12 2 19 5
M  V30 13 1 20 8
M  V30 14 1 21 3
M  V30 15 1 23 7
M  V30 16 2 24 8
M  V30 17 1 24 9
M  V30 18 1 24 11
M  V30 19 1 25 2
M  V30 20 1 26 2
M  V30 21 1 28 13
M  V30 22 1 29 14
M  V30 23 1 29 28
M  V30 24 1 30 25
M  V30 25 1 31 16
M  V30 26 1 31 22
M  V30 27 1 31 26
M  V30 28 1 32 10
M  V30 29 1 32 21
M  V30 30 1 32 23
M  V30 31 1 32 27 CFG=3
M  V30 32 1 33 4
M  V30 33 1 33 18
M  V30 34 2 33 20
M  V30 35 1 34 6
M  V30 36 1 34 28
M  V30 37 1 35 1
M  V30 38 1 36 1
M  V30 39 1 2 37 CFG=3
M  V30 40 1 38 3
M  V30 41 1 39 3
M  V30 42 1 6 40 CFG=1
M  V30 43 1 41 7
M  V30 44 1 42 7
M  V30 45 1 43 10
M  V30 46 1 44 10
M  V30 47 1 45 11
M  V30 48 1 46 12
M  V30 49 1 47 12
M  V30 50 1 13 48 CFG=3
M  V30 51 1 49 14
M  V30 52 1 50 15
M  V30 53 1 51 15
M  V30 54 1 52 16
M  V30 55 1 53 16
M  V30 56 1 54 17
M  V30 57 1 55 18
M  V30 58 1 56 20
M  V30 59 1 57 22
M  V30 60 1 58 22
M  V30 61 1 59 22
M  V30 62 1 60 23
M  V30 63 1 61 23
M  V30 64 1 62 25
M  V30 65 1 63 25
M  V30 66 1 64 26
M  V30 67 1 28 65 CFG=3
M  V30 68 1 66 29
M  V30 69 1 67 29
M  V30 70 1 68 30
M  V30 71 1 69 30
M  V30 72 1 70 30
M  V30 73 1 31 71 CFG=1
M  V30 74 1 72 34
M  V30 75 1 73 26
M  V30 76 1 74 34
M  V30 END BOND
M  V30 END CTAB
M  END
>  <i_epik_Tot_Q>  (1) 
2

>  <i_epik_Tot_abs_Q>  (1) 
2

>  <i_i_glide_confnum>  (1) 
7954

>  <i_i_glide_lignum>  (1) 
50

>  <i_i_glide_posenum>  (1) 
129

>  <i_i_glide_rotatable_bonds>  (1) 
15

>  <i_lp_mmshare_version>  (1) 
72125

>  <i_m_source_file_index>  (1) 
19

>  <i_f3d_flags>  (1) 
0

>  <num_sample>  (1) 
50

>  <b_lp_Chiralities_Consistent>  (1) 
1

>  <r_epik_Charging_Adjusted_Penalty>  (1) 
0.1621260604540144

>  <r_epik_Ionization_Penalty>  (1) 
0.081641699249211233

>  <r_epik_Ionization_Penalty_Charging>  (1) 
0.081638306134831307

>  <r_epik_Ionization_Penalty_Neutral>  (1) 
3.3931143799284323e-06

>  <r_epik_State_Penalty>  (1) 
0.080487754319183077

>  <r_glide_ring_energy>  (1) 
0

>  <r_i_docking_score>  (1) 
-9.485174433222948

>  <r_i_glide_ecoul>  (1) 
-10.120099688394573

>  <r_i_glide_eff_state_penalty>  (1) 
0.080487754319183077

>  <r_i_glide_einternal>  (1) 
27.544196721303781

>  <r_i_glide_emodel>  (1) 
-77.028906291455414

>  <r_i_glide_emodel_strain>  (1) 
3.5071302375063595

>  <r_i_glide_energy>  (1) 
-57.007687199396898

>  <r_i_glide_erotb>  (1) 
0.96692483815447339

>  <r_i_glide_esite>  (1) 
-0.10000000000000001

>  <r_i_glide_evdw>  (1) 
-46.887587511002323

>  <r_i_glide_gscore>  (1) 
-9.5656621875421308

>  <r_i_glide_gscore_strain>  (1) 
0

>  <r_i_glide_hbond>  (1) 
-0.16070778755717791

>  <r_i_glide_ligand_efficiency>  (1) 
-0.27897571862420434

>  <r_i_glide_ligand_efficiency_ln>  (1) 
-2.0955410824300826

>  <r_i_glide_ligand_efficiency_sa>  (1) 
-0.90377303032483913

>  <r_i_glide_lipo>  (1) 
-4.8046593615579436

>  <r_i_glide_metal>  (1) 
-0

>  <r_i_glide_rewards>  (1) 
-1.6048255477721829

>  <r_lp_Energy>  (1) 
44.339452000000001

>  <r_lp_tautomer_probability>  (1) 
0.99990000499974985

>  <s_epik_cmdline>  (1) 
J2VwaWtfcHl0aG9uJywgJy1waHQnLCAnMS4wJywgJy1waCcsICc3LjQnLCAnLXRuJywgJzgnLCAnLW1hJywgJzUwMCcsICctaW1hZScsICc8aW5maWxlLm1hZT4nLCAnLW9tYWUnLCAnPG91dGZpbGUubWFlPic=

>  <s_epik_input>  (1) 
W0NIMl0xW0NIMl1bQ0gyXVNbQ0BdMShGKVtDSDJdW0NIMl1bQ0BASF0oW0NIMl1bQ0gzXSlbTkhdW0NAQEhdKFtDSDNdKVtDSDJdW0NIMl1bQ0BASF0oW0NIMl1bT0hdKVtOSF1bQ0BIXTJbQ0gyXVtOSF1bQ0BIXTJDKD1PKWMzW2NIXWMoRilbY0hdW2NIXWMzRg==

>  <s_glide_docking_method>  (1) 
confgen

>  <s_i_glide_gridfile>  (1) 
gpcr_5ht2c_6bqh_protein_autoprepared_prepared

>  <s_lp_Force_Field>  (1) 
S-OPLS

>  <s_lp_Variant>  (1) 
DiffSBDD_18_num_sample_50-1

>  <s_m_source_file>  (1) 
generated__ligand_DiffSBDD_2026-05-06_prepared.sdf

>  <GenAI_Model>  (1) 
DiffSBDD

>  <Protein>  (1) 
GPCR_5HT2C

$$$$
DiffSBDD_26_num_sample_50
     RDKit          3D

  0  0  0  0  0  0  0  0  0  0999 V3000
M  V30 BEGIN CTAB
M  V30 COUNTS 96 102 0 0 1
M  V30 BEGIN ATOM
M  V30 1 C 39.422646 34.812941 61.596906 0
M  V30 2 N 39.188033 36.174221 63.723673 0
M  V30 3 C 39.260268 28.307905 51.358227 0
M  V30 4 C 38.283133 25.337503 57.605477 0
M  V30 5 N 41.011974 35.760081 64.790169 0 CHG=1
M  V30 6 N 38.853211 30.127485 59.087417 0
M  V30 7 C 36.302120 30.988800 60.417477 0
M  V30 8 C 37.763778 32.820102 61.267099 0
M  V30 9 C 37.586441 28.129222 53.111319 0
M  V30 10 C 39.914591 35.312669 62.920149 0
M  V30 11 C 37.854260 31.114011 57.022821 0
M  V30 12 C 40.300231 32.532320 60.940524 0
M  V30 13 O 36.325521 23.755431 55.853297 0
M  V30 14 C 39.620408 28.895292 58.850971 0
M  V30 15 N 38.338824 30.697917 55.691820 0 CFG=1 CHG=1
M  V30 16 C 39.867817 36.422884 64.842396 0
M  V30 17 S 40.315809 26.712981 56.631744 0
M  V30 18 C 38.958625 26.458114 55.493704 0
M  V30 19 C 38.742499 30.624891 60.477333 0 CFG=1
M  V30 20 N 39.467414 37.198728 65.853523 0
M  V30 21 C 38.208607 27.618421 51.964622 0
M  V30 22 C 39.596957 31.318473 53.669402 0
M  V30 23 C 41.089654 35.062470 63.614719 0
M  V30 24 C 40.820985 30.285489 51.175145 0
M  V30 25 C 39.107278 30.029983 53.066468 0
M  V30 26 C 40.131932 35.395060 60.390993 0
M  V30 27 C 38.665799 27.701864 58.625134 0
M  V30 28 C 37.439823 24.432002 55.320490 0
M  V30 29 C 37.833685 25.660211 56.166554 0 CFG=1
M  V30 30 C 38.710732 35.756082 60.623935 0
M  V30 31 C 38.975242 31.145743 58.039820 0
M  V30 32 C 39.706332 29.521680 51.887083 0
M  V30 33 O 36.820877 33.586708 61.453368 0
M  V30 34 C 37.379118 29.879840 54.929629 0
M  V30 35 C 35.070904 31.307354 61.242518 0
M  V30 36 O 39.846277 27.799768 50.253519 0
M  V30 37 C 40.098628 31.043363 61.070188 0
M  V30 38 C 35.155100 31.759759 59.800684 0
M  V30 39 C 39.298705 26.399874 58.076786 0 CFG=1
M  V30 40 C 37.851767 36.736320 63.463070 0
M  V30 41 C 39.191527 33.279253 61.656282 0 CFG=1
M  V30 42 N 37.600770 31.547654 60.746888 0
M  V30 43 C 38.784059 31.832498 54.859473 0
M  V30 44 C 38.039619 29.330520 53.673948 0
M  V30 45 H 38.771109 24.361575 57.609337 0
M  V30 46 H 37.419587 25.256186 58.260361 0
M  V30 47 H 36.340591 29.962625 60.056967 0
M  V30 48 H 36.765907 27.591283 53.566009 0
M  V30 49 H 37.467389 32.128496 56.952125 0
M  V30 50 H 37.063982 30.452162 57.372715 0
M  V30 51 H 40.267443 32.821441 59.899308 0
M  V30 52 H 41.275276 32.815847 61.339263 0
M  V30 53 H 35.551925 24.283150 55.728728 0
M  V30 54 H 40.266511 29.034223 57.986124 0
M  V30 55 H 40.286204 28.670583 59.682957 0
M  V30 56 H 38.607326 27.458255 55.313626 0
M  V30 57 H 39.304582 26.036284 54.549528 0
M  V30 58 H 38.483615 29.724463 61.036558 0
M  V30 59 H 38.582480 37.686302 65.845772 0
M  V30 60 H 40.034481 37.350047 66.675015 0
M  V30 61 H 37.867477 26.699015 51.542458 0
M  V30 62 H 40.647565 31.212912 53.940317 0
M  V30 63 H 39.504954 32.021403 52.855985 0
M  V30 64 H 41.942599 34.448906 63.363991 0
M  V30 65 H 41.115372 31.221339 51.638766 0
M  V30 66 H 41.705015 29.660683 51.053487 0
M  V30 67 H 40.483792 30.541379 50.170842 0
M  V30 68 H 40.910048 36.121213 60.624686 0
M  V30 69 H 40.267485 34.821387 59.480334 0
M  V30 70 H 38.267576 27.461623 59.606711 0
M  V30 71 H 37.839335 28.001654 57.978372 0
M  V30 72 H 37.198064 24.736324 54.300968 0
M  V30 73 H 38.267379 23.731563 55.252005 0
M  V30 74 H 36.964482 26.315825 56.232484 0
M  V30 75 H 37.997446 35.338336 59.916014 0
M  V30 76 H 38.535978 36.796927 60.882922 0
M  V30 77 H 39.869895 31.021626 57.453558 0
M  V30 78 H 38.994003 32.143279 58.466029 0
M  V30 79 H 36.485079 30.451969 54.670326 0
M  V30 80 H 37.067509 29.049301 55.551431 0
M  V30 81 H 34.525594 30.425697 61.551999 0
M  V30 82 H 35.044947 32.104003 61.971828 0
M  V30 83 H 39.467707 26.981172 49.964076 0
M  V30 84 H 40.114257 30.783477 62.129020 0
M  V30 85 H 40.934115 30.509105 60.623084 0
M  V30 86 H 35.302977 32.814411 59.581787 0
M  V30 87 H 34.568708 31.228142 59.053651 0
M  V30 88 H 39.927737 25.973987 58.855610 0
M  V30 89 H 37.328492 36.951733 64.394216 0
M  V30 90 H 37.953222 37.632828 62.868223 0
M  V30 91 H 37.251046 36.021490 62.902072 0
M  V30 92 H 39.252813 32.987223 62.705447 0
M  V30 93 H 39.386950 32.534483 55.437349 0
M  V30 94 H 37.909662 32.383389 54.507854 0
M  V30 95 H 41.723518 35.778095 65.508778 0
M  V30 96 H 39.134371 30.098592 55.854735 0
M  V30 END ATOM
M  V30 BEGIN BOND
M  V30 1 1 10 1
M  V30 2 1 10 2
M  V30 3 1 14 6
M  V30 4 1 15 11
M  V30 5 1 16 2
M  V30 6 2 16 5
M  V30 7 1 18 17
M  V30 8 1 19 6
M  V30 9 1 20 16
M  V30 10 1 21 3
M  V30 11 2 21 9
M  V30 12 1 23 5
M  V30 13 2 23 10
M  V30 14 1 25 22
M  V30 15 1 26 1
M  V30 16 1 27 14
M  V30 17 1 28 13
M  V30 18 1 29 4
M  V30 19 1 29 18
M  V30 20 1 29 28
M  V30 21 1 30 1
M  V30 22 1 30 26
M  V30 23 1 31 6
M  V30 24 1 31 11
M  V30 25 2 32 3
M  V30 26 1 32 24
M  V30 27 1 32 25
M  V30 28 2 33 8
M  V30 29 1 34 15
M  V30 30 1 35 7
M  V30 31 1 36 3
M  V30 32 1 37 12
M  V30 33 1 37 19
M  V30 34 1 38 7
M  V30 35 1 38 35
M  V30 36 1 39 4
M  V30 37 1 39 17
M  V30 38 1 39 27
M  V30 39 1 40 2
M  V30 40 1 41 1
M  V30 41 1 41 8
M  V30 42 1 41 12
M  V30 43 1 42 7
M  V30 44 1 42 8
M  V30 45 1 42 19
M  V30 46 1 43 15
M  V30 47 1 43 22
M  V30 48 1 44 9
M  V30 49 2 44 25
M  V30 50 1 44 34
M  V30 51 1 45 4
M  V30 52 1 46 4
M  V30 53 1 47 7
M  V30 54 1 48 9
M  V30 55 1 49 11
M  V30 56 1 50 11
M  V30 57 1 51 12
M  V30 58 1 52 12
M  V30 59 1 53 13
M  V30 60 1 54 14
M  V30 61 1 55 14
M  V30 62 1 56 18
M  V30 63 1 57 18
M  V30 64 1 19 58 CFG=1
M  V30 65 1 59 20
M  V30 66 1 60 20
M  V30 67 1 61 21
M  V30 68 1 62 22
M  V30 69 1 63 22
M  V30 70 1 64 23
M  V30 71 1 65 24
M  V30 72 1 66 24
M  V30 73 1 67 24
M  V30 74 1 68 26
M  V30 75 1 69 26
M  V30 76 1 70 27
M  V30 77 1 71 27
M  V30 78 1 72 28
M  V30 79 1 73 28
M  V30 80 1 29 74 CFG=1
M  V30 81 1 75 30
M  V30 82 1 76 30
M  V30 83 1 77 31
M  V30 84 1 78 31
M  V30 85 1 79 34
M  V30 86 1 80 34
M  V30 87 1 81 35
M  V30 88 1 82 35
M  V30 89 1 83 36
M  V30 90 1 84 37
M  V30 91 1 85 37
M  V30 92 1 86 38
M  V30 93 1 87 38
M  V30 94 1 39 88 CFG=1
M  V30 95 1 89 40
M  V30 96 1 90 40
M  V30 97 1 91 40
M  V30 98 1 41 92 CFG=1
M  V30 99 1 93 43
M  V30 100 1 94 43
M  V30 101 1 95 5
M  V30 102 1 15 96 CFG=1
M  V30 END BOND
M  V30 END CTAB
M  END
>  <i_epik_Tot_Q>  (1) 
2

>  <i_epik_Tot_abs_Q>  (1) 
2

>  <i_i_glide_confnum>  (1) 
3577

>  <i_i_glide_lignum>  (1) 
69

>  <i_i_glide_posenum>  (1) 
38

>  <i_i_glide_rotatable_bonds>  (1) 
13

>  <i_lp_mmshare_version>  (1) 
72125

>  <i_m_source_file_index>  (1) 
27

>  <i_f3d_flags>  (1) 
0

>  <num_sample>  (1) 
50

>  <b_lp_Chiralities_Consistent>  (1) 
1

>  <r_epik_Charging_Adjusted_Penalty>  (1) 
0.023035094209541071

>  <r_epik_Ionization_Penalty>  (1) 
0.04084289902745275

>  <r_epik_Ionization_Penalty_Charging>  (1) 
0.023035094209541071

>  <r_epik_Ionization_Penalty_Neutral>  (1) 
0.017807804817911676

>  <r_epik_State_Penalty>  (1) 
-0

>  <r_glide_ring_energy>  (1) 
0

>  <r_i_docking_score>  (1) 
-9.4745333759086137

>  <r_i_glide_ecoul>  (1) 
-1.6677320244396867

>  <r_i_glide_eff_state_penalty>  (1) 
-0

>  <r_i_glide_einternal>  (1) 
25.265632639854338

>  <r_i_glide_emodel>  (1) 
-56.622506336294038

>  <r_i_glide_emodel_strain>  (1) 
4.0608492410206765

>  <r_i_glide_energy>  (1) 
-47.338231354723575

>  <r_i_glide_erotb>  (1) 
0.45984128746928787

>  <r_i_glide_esite>  (1) 
-0.1217676033351431

>  <r_i_glide_evdw>  (1) 
-45.670499330283889

>  <r_i_glide_gscore>  (1) 
-9.4745333759086137

>  <r_i_glide_gscore_strain>  (1) 
0.015212310255169115

>  <r_i_glide_hbond>  (1) 
-0.079396721512539611

>  <r_i_glide_ligand_efficiency>  (1) 
-0.21533030399792305

>  <r_i_glide_ligand_efficiency_ln>  (1) 
-1.9803841613504252

>  <r_i_glide_ligand_efficiency_sa>  (1) 
-0.76019098026432286

>  <r_i_glide_lipo>  (1) 
-5.8956108481404828

>  <r_i_glide_metal>  (1) 
-0

>  <r_i_glide_rewards>  (1) 
-1.3191270304647578

>  <r_lp_Energy>  (1) 
46.785410999999996

>  <r_lp_tautomer_probability>  (1) 
1

>  <s_epik_Chemistry_Notes>  (1) 
This compound contains an acetal/aminal-like group ( X-CH(R)-Y where X, Y are N, S, or O) that may be acid/base labile, releasing an aldehyde.

>  <s_epik_cmdline>  (1) 
J2VwaWtfcHl0aG9uJywgJy1waHQnLCAnMS4wJywgJy1waCcsICc3LjQnLCAnLXRuJywgJzgnLCAnLW1hJywgJzUwMCcsICctaW1hZScsICc8aW5maWxlLm1hZT4nLCAnLW9tYWUnLCAnPG91dGZpbGUubWFlPic=

>  <s_epik_input>  (1) 
W05IMl1jMW5bY0hdYyhuMVtDSDNdKUMyKFtDSDJdW0NIMl0yKVtDQEBIXShDMz1PKVtDSDJdW0NIMl1bQ0BASF0oTjNbQ0hdNFtDSDJdW0NIMl00KU4oW0NIMl1bQ0gyXVtDQEhdKFNbQ0gyXTUpW0NIMl1bQ0BASF01W0NIMl1bT0hdKVtDSDJdW0NIMl1OKFtDSDJdW0NIMl02KVtDSDJdYyhjNjcpW2NIXVtjSF1jKFtPSF0pYzdbQ0gzXQ==

>  <s_glide_docking_method>  (1) 
confgen

>  <s_i_glide_gridfile>  (1) 
gpcr_5ht2c_6bqh_protein_autoprepared_prepared

>  <s_lp_Force_Field>  (1) 
S-OPLS

>  <s_lp_Variant>  (1) 
DiffSBDD_26_num_sample_50-2

>  <s_m_source_file>  (1) 
generated__ligand_DiffSBDD_2026-05-06_prepared.sdf

>  <GenAI_Model>  (1) 
DiffSBDD

>  <Protein>  (1) 
GPCR_5HT2C

$$$$
DiffSBDD_8_num_sample_50
     RDKit          3D

  0  0  0  0  0  0  0  0  0  0999 V3000
M  V30 BEGIN CTAB
M  V30 COUNTS 70 74 0 0 1
M  V30 BEGIN ATOM
M  V30 1 C 38.411218 31.075069 55.168380 0
M  V30 2 N 38.068262 32.389333 59.395185 0
M  V30 3 C 39.264223 34.520997 61.316260 0
M  V30 4 C 41.066341 36.196678 61.877924 0
M  V30 5 C 38.003244 29.975074 59.886920 0
M  V30 6 C 40.961415 31.714349 63.962700 0
M  V30 7 C 39.609977 35.818154 61.729892 0
M  V30 8 C 41.556907 32.148282 62.770042 0
M  V30 9 C 38.475305 32.746579 56.971527 0
M  V30 10 C 41.068650 31.688972 61.530830 0
M  V30 11 N 37.867403 31.500382 56.473573 0 CHG=1
M  V30 12 N 38.667386 31.071415 59.195944 0
M  V30 13 C 38.514217 27.835298 53.049832 0
M  V30 14 C 38.627776 27.281863 56.161814 0
M  V30 15 N 37.823062 26.898095 53.832670 0
M  V30 16 C 39.889338 29.722163 51.592307 0
M  V30 17 C 38.600985 36.761036 62.004485 0
M  V30 18 O 37.327110 34.285929 58.392881 0
M  V30 19 C 37.543008 32.739063 60.735381 0
M  V30 20 C 37.912691 34.153530 61.183794 0
M  V30 21 O 40.019396 26.097132 54.561256 0
M  V30 22 C 38.678566 26.389777 54.902849 0 CFG=1
M  V30 23 N 39.467413 30.066115 52.831539 0
M  V30 24 O 41.536584 36.021426 63.197977 0
M  V30 25 C 39.879685 30.821277 63.918026 0
M  V30 26 C 39.461147 30.287585 60.154144 0 CFG=1
M  V30 27 C 39.123073 28.734751 55.984423 0
M  V30 28 C 38.976067 27.492243 51.767669 0
M  V30 29 C 37.246693 36.402206 61.864196 0
M  V30 30 C 37.905404 33.208040 58.319183 0
M  V30 31 C 39.974719 30.799690 61.475497 0
M  V30 32 F 41.430842 32.152657 65.154397 0
M  V30 33 C 36.901947 35.097501 61.453513 0
M  V30 34 C 38.775725 29.135530 53.536291 0
M  V30 35 C 38.317496 29.546917 54.938984 0 CFG=2
M  V30 36 C 39.670535 28.455773 51.023698 0
M  V30 37 C 39.388034 30.367621 62.679112 0
M  V30 38 H 37.873434 31.620581 54.390871 0
M  V30 39 H 39.459068 31.376356 55.102307 0
M  V30 40 H 40.034291 33.812372 61.097899 0
M  V30 41 H 41.671476 35.583402 61.209775 0
M  V30 42 H 41.212835 37.221429 61.551972 0
M  V30 43 H 37.265219 30.194483 60.653351 0
M  V30 44 H 37.788239 29.086238 59.296795 0
M  V30 45 H 42.392068 32.833315 62.802170 0
M  V30 46 H 39.554497 32.632889 57.064619 0
M  V30 47 H 38.304812 33.535599 56.236209 0
M  V30 48 H 41.536595 32.021392 60.626134 0
M  V30 49 H 38.068044 30.799183 57.172150 0
M  V30 50 H 39.211106 26.809562 56.953361 0
M  V30 51 H 37.604026 27.299432 56.537204 0
M  V30 52 H 36.962663 27.265417 54.209774 0
M  V30 53 H 40.423785 30.482259 51.040255 0
M  V30 54 H 38.865244 37.758112 62.319527 0
M  V30 55 H 36.456155 32.663338 60.677200 0
M  V30 56 H 37.819970 32.076042 61.541939 0
M  V30 57 H 40.340075 25.429096 55.148440 0
M  V30 58 H 38.243312 25.427005 55.171620 0
M  V30 59 H 41.409943 36.824726 63.690852 0
M  V30 60 H 39.424289 30.479187 64.836576 0
M  V30 61 H 40.185685 29.593059 59.733329 0
M  V30 62 H 39.053199 29.204508 56.963618 0
M  V30 63 H 40.184432 28.746680 55.730430 0
M  V30 64 H 38.798513 26.509044 51.360833 0
M  V30 65 H 36.472574 37.126355 62.072922 0
M  V30 66 H 35.864603 34.821537 61.346638 0
M  V30 67 H 37.260901 29.289017 55.023780 0
M  V30 68 H 40.033221 28.229035 50.032833 0
M  V30 69 H 38.559839 29.676987 62.653454 0
M  V30 70 H 36.847436 31.621393 56.449928 0
M  V30 END ATOM
M  V30 BEGIN BOND
M  V30 1 2 7 3
M  V30 2 1 7 4
M  V30 3 1 8 6
M  V30 4 2 10 8
M  V30 5 1 11 1
M  V30 6 1 11 9
M  V30 7 1 12 2
M  V30 8 1 12 5
M  V30 9 1 15 13
M  V30 10 1 17 7
M  V30 11 1 19 2
M  V30 12 1 20 3
M  V30 13 1 20 19
M  V30 14 1 22 14
M  V30 15 1 22 15
M  V30 16 1 22 21
M  V30 17 1 23 16
M  V30 18 1 24 4
M  V30 19 2 25 6
M  V30 20 1 26 5
M  V30 21 1 26 12
M  V30 22 1 27 14
M  V30 23 2 28 13
M  V30 24 2 29 17
M  V30 25 1 30 2
M  V30 26 1 30 9
M  V30 27 2 30 18
M  V30 28 1 31 10
M  V30 29 1 31 26
M  V30 30 1 32 6
M  V30 31 2 33 20
M  V30 32 1 33 29
M  V30 33 1 34 13
M  V30 34 2 34 23
M  V30 35 1 35 1
M  V30 36 1 35 27
M  V30 37 1 35 34
M  V30 38 2 36 16
M  V30 39 1 36 28
M  V30 40 1 37 25
M  V30 41 2 37 31
M  V30 42 1 38 1
M  V30 43 1 39 1
M  V30 44 1 40 3
M  V30 45 1 41 4
M  V30 46 1 42 4
M  V30 47 1 43 5
M  V30 48 1 44 5
M  V30 49 1 45 8
M  V30 50 1 46 9
M  V30 51 1 47 9
M  V30 52 1 48 10
M  V30 53 1 49 11
M  V30 54 1 50 14
M  V30 55 1 51 14
M  V30 56 1 52 15
M  V30 57 1 53 16
M  V30 58 1 54 17
M  V30 59 1 55 19
M  V30 60 1 56 19
M  V30 61 1 57 21
M  V30 62 1 22 58 CFG=1
M  V30 63 1 59 24
M  V30 64 1 60 25
M  V30 65 1 26 61 CFG=3
M  V30 66 1 62 27
M  V30 67 1 63 27
M  V30 68 1 64 28
M  V30 69 1 65 29
M  V30 70 1 66 33
M  V30 71 1 35 67 CFG=3
M  V30 72 1 68 36
M  V30 73 1 69 37
M  V30 74 1 70 11
M  V30 END BOND
M  V30 END CTAB
M  END
>  <i_epik_Tot_Q>  (1) 
1

>  <i_epik_Tot_abs_Q>  (1) 
1

>  <i_i_glide_confnum>  (1) 
1273

>  <i_i_glide_lignum>  (1) 
29

>  <i_i_glide_posenum>  (1) 
117

>  <i_i_glide_rotatable_bonds>  (1) 
12

>  <i_lp_mmshare_version>  (1) 
72125

>  <i_m_source_file_index>  (1) 
9

>  <i_f3d_flags>  (1) 
0

>  <num_sample>  (1) 
50

>  <b_lp_Chiralities_Consistent>  (1) 
1

>  <r_epik_Charging_Adjusted_Penalty>  (1) 
0.46903428826383708

>  <r_epik_Ionization_Penalty>  (1) 
0.30166015279675507

>  <r_epik_Ionization_Penalty_Charging>  (1) 
0.29766720737570945

>  <r_epik_Ionization_Penalty_Neutral>  (1) 
0.0039929454210456379

>  <r_epik_State_Penalty>  (1) 
0.17136708088812766

>  <r_glide_ring_energy>  (1) 
0

>  <r_i_docking_score>  (1) 
-9.1756144034806102

>  <r_i_glide_ecoul>  (1) 
-7.1610470030816451

>  <r_i_glide_eff_state_penalty>  (1) 
0.17136708088812766

>  <r_i_glide_einternal>  (1) 
7.6873465326134252

>  <r_i_glide_emodel>  (1) 
-97.736249637521965

>  <r_i_glide_emodel_strain>  (1) 
2.1048147118054885

>  <r_i_glide_energy>  (1) 
-60.453942574864058

>  <r_i_glide_erotb>  (1) 
0.79724194346153032

>  <r_i_glide_esite>  (1) 
-0.19636430761806212

>  <r_i_glide_evdw>  (1) 
-53.292895571782417

>  <r_i_glide_gscore>  (1) 
-9.3469814843687384

>  <r_i_glide_gscore_strain>  (1) 
0

>  <r_i_glide_hbond>  (1) 
-0.52000000000000002

>  <r_i_glide_ligand_efficiency>  (1) 
-0.24798957847244893

>  <r_i_glide_ligand_efficiency_ln>  (1) 
-1.989975657193747

>  <r_i_glide_ligand_efficiency_sa>  (1) 
-0.82635629236636332

>  <r_i_glide_lipo>  (1) 
-4.2468777402818718

>  <r_i_glide_metal>  (1) 
-0

>  <r_i_glide_rewards>  (1) 
-1.4421795508789677

>  <r_lp_Energy>  (1) 
69.367840000000001

>  <s_epik_Chemistry_Notes>  (1) 
This compound contains an acetal/aminal-like group ( X-CH(R)-Y where X, Y are N, S, or O) that may be acid/base labile, releasing an aldehyde.

>  <s_epik_cmdline>  (1) 
J2VwaWtfcHl0aG9uJywgJy1waHQnLCAnMS4wJywgJy1waCcsICc3LjQnLCAnLXRuJywgJzgnLCAnLW1hJywgJzUwMCcsICctaW1hZScsICc8aW5maWxlLm1hZT4nLCAnLW9tYWUnLCAnPG91dGZpbGUubWFlPic=

>  <s_epik_input>  (1) 
W2NIXTFbY0hdW2NIXW5jKGMxMilbQ0BASF0oW0NIMl1bQ0gyXVtDQEBIXShbTkhdMilbT0hdKVtDSDJdW05IXVtDSDJdQyg9TylOKFtDSDJdYyhbY0hdW2NIXVtjSF0zKVtjSF1jM1tDSDJdW09IXSlONFtDSDJdW0NAQEhdNGMoW2NIXVtjSF01KVtjSF1bY0hdYzVG

>  <s_glide_docking_method>  (1) 
confgen

>  <s_i_glide_gridfile>  (1) 
gpcr_5ht2c_6bqh_protein_autoprepared_prepared

>  <s_lp_Force_Field>  (1) 
S-OPLS

>  <s_lp_Variant>  (1) 
DiffSBDD_8_num_sample_50-1

>  <s_m_source_file>  (1) 
generated__ligand_DiffSBDD_2026-05-06_prepared.sdf

>  <GenAI_Model>  (1) 
DiffSBDD

>  <Protein>  (1) 
GPCR_5HT2C

$$$$
DiffSBDD_18_num_sample_50
     RDKit          3D

  0  0  0  0  0  0  0  0  0  0999 V3000
M  V30 BEGIN CTAB
M  V30 COUNTS 74 76 0 0 1
M  V30 BEGIN ATOM
M  V30 1 C 38.183670 26.419336 54.396851 0
M  V30 2 C 37.919920 26.052193 55.872338 0 CFG=1
M  V30 3 C 40.336369 29.602966 51.185708 0
M  V30 4 F 40.254636 36.819995 61.849039 0
M  V30 5 C 38.132350 32.364784 61.430896 0
M  V30 6 C 38.331768 31.345226 57.906093 0 CFG=2
M  V30 7 C 39.617271 28.410413 50.564389 0
M  V30 8 C 39.237386 33.275968 61.938486 0
M  V30 9 F 40.321377 31.418873 63.027505 0
M  V30 10 C 38.586414 27.892503 54.214745 0
M  V30 11 C 41.304140 33.585322 63.222100 0
M  V30 12 C 38.133428 31.766216 56.433613 0
M  V30 13 C 36.997329 33.086082 60.723373 0 CFG=2
M  V30 14 N 35.681202 32.482182 60.898197 0
M  V30 15 C 38.898998 29.905633 58.075515 0
M  V30 16 C 37.916622 28.727147 57.818545 0
M  V30 17 O 39.376522 31.890003 55.771405 0
M  V30 18 C 41.287659 34.958626 62.924906 0
M  V30 19 O 38.173214 31.145833 61.600146 0
M  V30 20 C 39.236787 34.667510 61.637651 0
M  V30 21 S 39.468081 30.005656 52.722395 0
M  V30 22 C 39.587303 27.202327 59.059730 0
M  V30 23 C 39.140194 27.517423 51.707905 0
M  V30 24 C 40.289582 32.740059 62.731870 0
M  V30 25 C 37.872780 24.523650 56.090036 0
M  V30 26 N 38.961739 26.661188 56.739918 0 CHG=1
M  V30 27 F 37.292627 28.649248 52.470815 0
M  V30 28 C 36.758994 32.860626 59.210815 0 CFG=2
M  V30 29 C 35.271641 32.943236 59.579638 0
M  V30 30 C 36.680928 23.834034 55.403365 0
M  V30 31 C 38.487676 27.284867 57.996807 0 CFG=2
M  V30 32 C 38.562205 28.436027 52.786788 0 CFG=1
M  V30 33 C 40.261073 35.497864 62.133064 0
M  V30 34 N 37.067745 31.514418 58.653503 0 CHG=1
M  V30 35 H 38.978596 25.788083 54.001863 0
M  V30 36 H 37.295664 26.208694 53.798687 0
M  V30 37 H 36.947052 26.453917 56.145704 0
M  V30 38 H 40.372872 30.462357 50.512437 0
M  V30 39 H 41.359759 29.316387 51.432392 0
M  V30 40 H 39.057899 32.029121 58.350383 0
M  V30 41 H 38.750827 28.748884 50.001059 0
M  V30 42 H 40.265417 27.882558 49.871647 0
M  V30 43 H 37.917401 28.528348 54.790328 0
M  V30 44 H 39.586838 28.034502 54.621680 0
M  V30 45 H 42.096894 33.177991 63.831495 0
M  V30 46 H 37.649837 32.742756 56.390973 0
M  V30 47 H 37.477533 31.078137 55.897406 0
M  V30 48 H 36.836245 34.116776 61.030966 0
M  V30 49 H 35.145449 32.927357 61.633757 0
M  V30 50 H 39.777941 29.790957 57.439725 0
M  V30 51 H 39.270703 29.832574 59.098353 0
M  V30 52 H 37.085818 28.827958 58.517165 0
M  V30 53 H 37.462588 28.838148 56.839686 0
M  V30 54 H 39.577775 31.082705 55.324139 0
M  V30 55 H 42.068937 35.600909 63.304328 0
M  V30 56 H 38.462601 35.104037 61.032138 0
M  V30 57 H 39.246338 27.619703 60.011287 0
M  V30 58 H 39.866180 26.164082 59.229390 0
M  V30 59 H 40.489112 27.738134 58.756035 0
M  V30 60 H 39.963180 26.935495 52.112971 0
M  V30 61 H 38.383974 26.821011 51.350829 0
M  V30 62 H 38.798175 24.075592 55.729326 0
M  V30 63 H 37.823579 24.298437 57.157290 0
M  V30 64 H 39.456739 27.362393 56.211175 0
M  V30 65 H 37.081026 33.686371 58.575623 0
M  V30 66 H 34.856298 33.955367 59.601107 0
M  V30 67 H 34.620599 32.241235 59.053846 0
M  V30 68 H 36.667947 22.762039 55.602812 0
M  V30 69 H 35.736706 24.225213 55.775499 0
M  V30 70 H 36.696872 23.966035 54.319810 0
M  V30 71 H 37.678019 26.639834 58.330698 0
M  V30 72 H 36.319234 31.385253 57.960130 0
M  V30 73 H 39.618301 25.930126 56.970466 0
M  V30 74 H 36.959799 30.835722 59.392979 0
M  V30 END ATOM
M  V30 BEGIN BOND
M  V30 1 1 2 1
M  V30 2 1 7 3
M  V30 3 1 8 5
M  V30 4 1 10 1
M  V30 5 1 12 6
M  V30 6 1 13 5
M  V30 7 1 14 13
M  V30 8 1 15 6
M  V30 9 1 16 15
M  V30 10 1 17 12
M  V30 11 2 18 11
M  V30 12 2 19 5
M  V30 13 1 20 8
M  V30 14 1 21 3
M  V30 15 1 23 7
M  V30 16 2 24 8
M  V30 17 1 24 9
M  V30 18 1 24 11
M  V30 19 1 25 2
M  V30 20 1 26 2
M  V30 21 1 28 13
M  V30 22 1 29 14
M  V30 23 1 29 28
M  V30 24 1 30 25
M  V30 25 1 31 16
M  V30 26 1 31 22
M  V30 27 1 31 26
M  V30 28 1 32 10
M  V30 29 1 32 21
M  V30 30 1 32 23
M  V30 31 1 32 27 CFG=3
M  V30 32 1 33 4
M  V30 33 1 33 18
M  V30 34 2 33 20
M  V30 35 1 34 6
M  V30 36 1 34 28
M  V30 37 1 35 1
M  V30 38 1 36 1
M  V30 39 1 2 37 CFG=1
M  V30 40 1 38 3
M  V30 41 1 39 3
M  V30 42 1 6 40 CFG=1
M  V30 43 1 41 7
M  V30 44 1 42 7
M  V30 45 1 43 10
M  V30 46 1 44 10
M  V30 47 1 45 11
M  V30 48 1 46 12
M  V30 49 1 47 12
M  V30 50 1 13 48 CFG=3
M  V30 51 1 49 14
M  V30 52 1 50 15
M  V30 53 1 51 15
M  V30 54 1 52 16
M  V30 55 1 53 16
M  V30 56 1 54 17
M  V30 57 1 55 18
M  V30 58 1 56 20
M  V30 59 1 57 22
M  V30 60 1 58 22
M  V30 61 1 59 22
M  V30 62 1 60 23
M  V30 63 1 61 23
M  V30 64 1 62 25
M  V30 65 1 63 25
M  V30 66 1 64 26
M  V30 67 1 28 65 CFG=3
M  V30 68 1 66 29
M  V30 69 1 67 29
M  V30 70 1 68 30
M  V30 71 1 69 30
M  V30 72 1 70 30
M  V30 73 1 31 71 CFG=1
M  V30 74 1 72 34
M  V30 75 1 73 26
M  V30 76 1 74 34
M  V30 END BOND
M  V30 END CTAB
M  END
>  <i_epik_Tot_Q>  (1) 
2

>  <i_epik_Tot_abs_Q>  (1) 
2

>  <i_i_glide_confnum>  (1) 
7954

>  <i_i_glide_lignum>  (1) 
50

>  <i_i_glide_posenum>  (1) 
129

>  <i_i_glide_rotatable_bonds>  (1) 
15

>  <i_lp_mmshare_version>  (1) 
72125

>  <i_m_source_file_index>  (1) 
19

>  <i_f3d_flags>  (1) 
0

>  <num_sample>  (1) 
50

>  <b_lp_Chiralities_Consistent>  (1) 
1

>  <r_epik_Charging_Adjusted_Penalty>  (1) 
0.1621260604540144

>  <r_epik_Ionization_Penalty>  (1) 
0.081641699249211233

>  <r_epik_Ionization_Penalty_Charging>  (1) 
0.081638306134831307

>  <r_epik_Ionization_Penalty_Neutral>  (1) 
3.3931143799284323e-06

>  <r_epik_State_Penalty>  (1) 
0.080487754319183077

>  <r_glide_ring_energy>  (1) 
0

>  <r_i_docking_score>  (1) 
-9.1366875626755064

>  <r_i_glide_ecoul>  (1) 
-8.9166737202172932

>  <r_i_glide_eff_state_penalty>  (1) 
0.080487754319183077

>  <r_i_glide_einternal>  (1) 
27.597276471606943

>  <r_i_glide_emodel>  (1) 
-73.341472567768477

>  <r_i_glide_emodel_strain>  (1) 
4.3341061350751673

>  <r_i_glide_energy>  (1) 
-55.532662760529391

>  <r_i_glide_erotb>  (1) 
0.96692483815447339

>  <r_i_glide_esite>  (1) 
-0.10000000000000001

>  <r_i_glide_evdw>  (1) 
-46.615989040312094

>  <r_i_glide_gscore>  (1) 
-9.2171753169946893

>  <r_i_glide_gscore_strain>  (1) 
0.083526533768791822

>  <r_i_glide_hbond>  (1) 
-0.18538753000265012

>  <r_i_glide_ligand_efficiency>  (1) 
-0.2687261047845737

>  <r_i_glide_ligand_efficiency_ln>  (1) 
-2.0185505580005261

>  <r_i_glide_ligand_efficiency_sa>  (1) 
-0.87056826037143475

>  <r_i_glide_lipo>  (1) 
-4.7579943605819395

>  <r_i_glide_metal>  (1) 
-0

>  <r_i_glide_rewards>  (1) 
-1.555944288285168

>  <r_lp_Energy>  (1) 
44.339452000000001

>  <r_lp_tautomer_probability>  (1) 
0.99990000499974985

>  <s_epik_cmdline>  (1) 
J2VwaWtfcHl0aG9uJywgJy1waHQnLCAnMS4wJywgJy1waCcsICc3LjQnLCAnLXRuJywgJzgnLCAnLW1hJywgJzUwMCcsICctaW1hZScsICc8aW5maWxlLm1hZT4nLCAnLW9tYWUnLCAnPG91dGZpbGUubWFlPic=

>  <s_epik_input>  (1) 
W0NIMl0xW0NIMl1bQ0gyXVNbQ0BdMShGKVtDSDJdW0NIMl1bQ0BASF0oW0NIMl1bQ0gzXSlbTkhdW0NAQEhdKFtDSDNdKVtDSDJdW0NIMl1bQ0BASF0oW0NIMl1bT0hdKVtOSF1bQ0BIXTJbQ0gyXVtOSF1bQ0BIXTJDKD1PKWMzW2NIXWMoRilbY0hdW2NIXWMzRg==

>  <s_glide_docking_method>  (1) 
confgen

>  <s_i_glide_gridfile>  (1) 
gpcr_5ht2c_6bqh_protein_autoprepared_prepared

>  <s_lp_Force_Field>  (1) 
S-OPLS

>  <s_lp_Variant>  (1) 
DiffSBDD_18_num_sample_50-1

>  <s_m_source_file>  (1) 
generated__ligand_DiffSBDD_2026-05-06_prepared.sdf

>  <GenAI_Model>  (1) 
DiffSBDD

>  <Protein>  (1) 
GPCR_5HT2C

$$$$
DiffSBDD_21_num_sample_50
     RDKit          3D

  0  0  0  0  0  0  0  0  0  0999 V3000
M  V30 BEGIN CTAB
M  V30 COUNTS 47 48 0 0 1
M  V30 BEGIN ATOM
M  V30 1 C 37.902827 26.340762 54.353090 0
M  V30 2 C 39.867420 30.158544 51.912530 0
M  V30 3 C 39.352505 30.502642 54.274690 0
M  V30 4 C 39.066080 27.457848 51.954616 0
M  V30 5 C 37.107239 30.123589 55.481022 0
M  V30 6 N 37.689737 30.248268 56.801296 0
M  V30 7 O 38.005872 29.465406 59.853509 0
M  V30 8 C 39.217093 25.675325 57.129470 0
M  V30 9 C 38.722290 27.416220 54.466633 0
M  V30 10 C 36.924898 29.474193 57.745785 0
M  V30 11 C 37.948066 31.010250 54.578341 0
M  V30 12 O 40.313530 30.905030 54.918621 0
M  V30 13 O 37.222850 31.311107 61.584385 0
M  V30 14 C 37.189824 30.022351 59.121901 0
M  V30 15 C 36.542874 31.754255 60.657573 0
M  V30 16 C 39.069861 28.185542 53.169829 0
M  V30 17 C 39.878748 29.404073 50.740320 0
M  V30 18 C 39.542895 27.079590 56.899095 0
M  V30 19 C 39.329292 27.831376 55.775597 0
M  V30 20 N 36.485400 31.136855 59.453521 0
M  V30 21 C 38.297869 24.968460 56.481591 0
M  V30 22 C 40.318112 30.044179 49.453520 0
M  V30 23 C 37.380790 25.497668 55.460255 0
M  V30 24 S 35.627061 33.221424 60.945596 0 CHG=-1
M  V30 25 C 39.467413 28.063508 50.758022 0
M  V30 26 C 39.451209 29.591821 53.125857 0
M  V30 27 H 37.506025 26.089788 53.385571 0
M  V30 28 H 40.156695 31.200756 51.879429 0
M  V30 29 H 38.797352 26.421448 51.942743 0
M  V30 30 H 36.063647 30.421426 55.453486 0
M  V30 31 H 37.069374 29.099722 55.138140 0
M  V30 32 H 37.563325 31.220401 57.056677 0
M  V30 33 H 39.767695 25.167131 57.907781 0
M  V30 34 H 35.867405 29.621428 57.564674 0
M  V30 35 H 37.147990 28.409048 57.685205 0
M  V30 36 H 38.015398 32.016777 54.993467 0
M  V30 37 H 37.467386 31.120695 53.616562 0
M  V30 38 H 40.066546 27.578079 57.702450 0
M  V30 39 H 39.722628 28.808660 55.840767 0
M  V30 40 H 35.873601 31.535451 58.745689 0
M  V30 41 H 38.150455 23.935869 56.755294 0
M  V30 42 H 39.867391 29.542783 48.603784 0
M  V30 43 H 39.997409 31.086535 49.453477 0
M  V30 44 H 41.404176 30.021422 49.357190 0
M  V30 45 H 36.566407 26.021450 55.958934 0
M  V30 46 H 36.921295 24.628672 54.988059 0
M  V30 47 H 39.470905 27.488677 49.853502 0
M  V30 END ATOM
M  V30 BEGIN BOND
M  V30 1 1 6 5
M  V30 2 2 9 1
M  V30 3 1 10 6
M  V30 4 1 11 3
M  V30 5 1 11 5
M  V30 6 2 12 3
M  V30 7 2 14 7
M  V30 8 1 14 10
M  V30 9 2 15 13
M  V30 10 1 16 4
M  V30 11 1 16 9
M  V30 12 2 17 2
M  V30 13 1 18 8
M  V30 14 1 19 9
M  V30 15 2 19 18
M  V30 16 1 20 14
M  V30 17 1 20 15
M  V30 18 2 21 8
M  V30 19 1 22 17
M  V30 20 1 23 1
M  V30 21 1 23 21
M  V30 22 1 24 15
M  V30 23 2 25 4
M  V30 24 1 25 17
M  V30 25 1 26 2
M  V30 26 1 26 3
M  V30 27 2 26 16
M  V30 28 1 27 1
M  V30 29 1 28 2
M  V30 30 1 29 4
M  V30 31 1 30 5
M  V30 32 1 31 5
M  V30 33 1 32 6
M  V30 34 1 33 8
M  V30 35 1 34 10
M  V30 36 1 35 10
M  V30 37 1 36 11
M  V30 38 1 37 11
M  V30 39 1 38 18
M  V30 40 1 39 19
M  V30 41 1 40 20
M  V30 42 1 41 21
M  V30 43 1 42 22
M  V30 44 1 43 22
M  V30 45 1 44 22
M  V30 46 1 45 23
M  V30 47 1 46 23
M  V30 48 1 47 25
M  V30 END BOND
M  V30 END CTAB
M  END
>  <i_epik_Tot_Q>  (1) 
-1

>  <i_epik_Tot_abs_Q>  (1) 
1

>  <i_i_glide_confnum>  (1) 
40

>  <i_i_glide_lignum>  (1) 
59

>  <i_i_glide_posenum>  (1) 
310

>  <i_i_glide_rotatable_bonds>  (1) 
9

>  <i_lp_mmshare_version>  (1) 
72125

>  <i_m_source_file_index>  (1) 
22

>  <i_f3d_flags>  (1) 
0

>  <num_sample>  (1) 
50

>  <b_lp_Chiralities_Consistent>  (1) 
1

>  <r_epik_Charging_Adjusted_Penalty>  (1) 
0.22945974625511478

>  <r_epik_Ionization_Penalty>  (1) 
0.22945989326340552

>  <r_epik_Ionization_Penalty_Charging>  (1) 
1.0968492178591481e-07

>  <r_epik_Ionization_Penalty_Neutral>  (1) 
0.22945978357848373

>  <r_epik_State_Penalty>  (1) 
0.229459636570193

>  <r_glide_ring_energy>  (1) 
0

>  <r_i_docking_score>  (1) 
-9.0809606272317502

>  <r_i_glide_ecoul>  (1) 
-11.595418704746912

>  <r_i_glide_eff_state_penalty>  (1) 
0.229459636570193

>  <r_i_glide_einternal>  (1) 
16.207279032483342

>  <r_i_glide_emodel>  (1) 
-73.99795557437578

>  <r_i_glide_emodel_strain>  (1) 
0.67012890464312136

>  <r_i_glide_energy>  (1) 
-55.194652222470154

>  <r_i_glide_erotb>  (1) 
1.1299975728892471

>  <r_i_glide_esite>  (1) 
-0.20179188059604811

>  <r_i_glide_evdw>  (1) 
-43.599233517723242

>  <r_i_glide_gscore>  (1) 
-9.3104202638019427

>  <r_i_glide_gscore_strain>  (1) 
0

>  <r_i_glide_hbond>  (1) 
-0.46442726756645308

>  <r_i_glide_ligand_efficiency>  (1) 
-0.34926771643199039

>  <r_i_glide_ligand_efficiency_ln>  (1) 
-2.1326338062432013

>  <r_i_glide_ligand_efficiency_sa>  (1) 
-1.0347042367513921

>  <r_i_glide_lipo>  (1) 
-3.9468581348726226

>  <r_i_glide_metal>  (1) 
-0

>  <r_i_glide_rewards>  (1) 
-1.9080660720578668

>  <r_lp_Energy>  (1) 
38.298136999999997

>  <r_lp_tautomer_probability>  (1) 
0.99980002499700049

>  <s_epik_cmdline>  (1) 
J2VwaWtfcHl0aG9uJywgJy1waHQnLCAnMS4wJywgJy1waCcsICc3LjQnLCAnLXRuJywgJzgnLCAnLW1hJywgJzUwMCcsICctaW1hZScsICc8aW5maWxlLm1hZT4nLCAnLW9tYWUnLCAnPG91dGZpbGUubWFlPic=

>  <s_epik_input>  (1) 
W0NIXTE9W0NIXVtDSF09W0NIXVtDSDJdW0NIXT1DMWMyW2NIXVtjSF1jKFtDSDNdKVtjSF1jMkMoPU8pW0NIMl1bQ0gyXVtOSF1bQ0gyXUMoPU8pW05IXUMoPU8pW1NIXQ==

>  <s_glide_docking_method>  (1) 
confgen

>  <s_i_glide_gridfile>  (1) 
gpcr_5ht2c_6bqh_protein_autoprepared_prepared

>  <s_lp_Force_Field>  (1) 
S-OPLS

>  <s_lp_Variant>  (1) 
DiffSBDD_21_num_sample_50-1

>  <s_m_source_file>  (1) 
generated__ligand_DiffSBDD_2026-05-06_prepared.sdf

>  <GenAI_Model>  (1) 
DiffSBDD

>  <Protein>  (1) 
GPCR_5HT2C

$$$$
DiffSBDD_21_num_sample_50
     RDKit          3D

  0  0  0  0  0  0  0  0  0  0999 V3000
M  V30 BEGIN CTAB
M  V30 COUNTS 47 48 0 0 1
M  V30 BEGIN ATOM
M  V30 1 C 37.683526 26.158654 54.654136 0
M  V30 2 C 39.526356 30.246826 52.619540 0
M  V30 3 C 38.433900 30.432970 54.890138 0
M  V30 4 C 39.139202 27.454907 52.506259 0
M  V30 5 C 38.312514 32.876401 55.922791 0
M  V30 6 N 37.867425 32.365908 57.208572 0
M  V30 7 O 36.353690 33.015898 60.187391 0
M  V30 8 C 38.396805 25.637108 57.724123 0
M  V30 9 C 38.373546 27.295352 54.914469 0
M  V30 10 C 37.605361 33.403311 58.187118 0
M  V30 11 C 39.073808 31.833064 55.073171 0
M  V30 12 O 37.528464 30.069163 55.638602 0
M  V30 13 O 37.339112 31.221452 61.853387 0
M  V30 14 C 37.358951 32.733130 59.529329 0
M  V30 15 C 38.274653 31.127532 61.059780 0
M  V30 16 C 38.817392 28.140873 53.706062 0
M  V30 17 C 39.866331 29.528805 51.459702 0
M  V30 18 C 38.791637 27.017745 57.465539 0
M  V30 19 C 38.781070 27.722112 56.294340 0
M  V30 20 N 38.307884 31.840902 59.915031 0
M  V30 21 C 37.693967 24.838480 56.929384 0
M  V30 22 C 40.438000 30.260408 50.260372 0
M  V30 23 C 37.103221 25.197757 55.632582 0
M  V30 24 S 39.589972 30.021806 61.454402 0 CHG=-1
M  V30 25 C 39.655478 28.145072 51.398811 0
M  V30 26 C 38.964031 29.587754 53.744378 0
M  V30 27 H 37.449342 25.929654 53.627491 0
M  V30 28 H 39.653206 31.312755 52.618003 0
M  V30 29 H 39.031080 26.390968 52.448304 0
M  V30 30 H 38.990109 33.713919 56.078724 0
M  V30 31 H 37.467445 33.273777 55.365462 0
M  V30 32 H 36.936201 31.940441 57.053803 0
M  V30 33 H 38.705508 25.221516 58.667739 0
M  V30 34 H 38.489710 34.021384 58.299195 0
M  V30 35 H 36.758949 34.021929 57.887554 0
M  V30 36 H 40.064217 31.676152 55.500670 0
M  V30 37 H 39.217950 32.339328 54.129878 0
M  V30 38 H 39.193297 27.548721 58.317336 0
M  V30 39 H 39.201462 28.698908 56.383453 0
M  V30 40 H 39.088424 31.698914 59.297133 0
M  V30 41 H 37.478955 23.836510 57.273325 0
M  V30 42 H 40.337994 29.666895 49.351202 0
M  V30 43 H 39.914021 31.203322 50.099465 0
M  V30 44 H 41.495211 30.478428 50.414166 0
M  V30 45 H 36.085693 25.511998 55.853389 0
M  V30 46 H 37.011734 24.257249 55.087254 0
M  V30 47 H 39.909638 27.601042 50.500552 0
M  V30 END ATOM
M  V30 BEGIN BOND
M  V30 1 1 6 5
M  V30 2 2 9 1
M  V30 3 1 10 6
M  V30 4 1 11 3
M  V30 5 1 11 5
M  V30 6 2 12 3
M  V30 7 2 14 7
M  V30 8 1 14 10
M  V30 9 2 15 13
M  V30 10 1 16 4
M  V30 11 1 16 9
M  V30 12 2 17 2
M  V30 13 1 18 8
M  V30 14 1 19 9
M  V30 15 2 19 18
M  V30 16 1 20 14
M  V30 17 1 20 15
M  V30 18 2 21 8
M  V30 19 1 22 17
M  V30 20 1 23 1
M  V30 21 1 23 21
M  V30 22 1 24 15
M  V30 23 2 25 4
M  V30 24 1 25 17
M  V30 25 1 26 2
M  V30 26 1 26 3
M  V30 27 2 26 16
M  V30 28 1 27 1
M  V30 29 1 28 2
M  V30 30 1 29 4
M  V30 31 1 30 5
M  V30 32 1 31 5
M  V30 33 1 32 6
M  V30 34 1 33 8
M  V30 35 1 34 10
M  V30 36 1 35 10
M  V30 37 1 36 11
M  V30 38 1 37 11
M  V30 39 1 38 18
M  V30 40 1 39 19
M  V30 41 1 40 20
M  V30 42 1 41 21
M  V30 43 1 42 22
M  V30 44 1 43 22
M  V30 45 1 44 22
M  V30 46 1 45 23
M  V30 47 1 46 23
M  V30 48 1 47 25
M  V30 END BOND
M  V30 END CTAB
M  END
>  <i_epik_Tot_Q>  (1) 
-1

>  <i_epik_Tot_abs_Q>  (1) 
1

>  <i_i_glide_confnum>  (1) 
169

>  <i_i_glide_lignum>  (1) 
59

>  <i_i_glide_posenum>  (1) 
398

>  <i_i_glide_rotatable_bonds>  (1) 
9

>  <i_lp_mmshare_version>  (1) 
72125

>  <i_m_source_file_index>  (1) 
22

>  <i_f3d_flags>  (1) 
0

>  <num_sample>  (1) 
50

>  <b_lp_Chiralities_Consistent>  (1) 
1

>  <r_epik_Charging_Adjusted_Penalty>  (1) 
0.22945974625511478

>  <r_epik_Ionization_Penalty>  (1) 
0.22945989326340552

>  <r_epik_Ionization_Penalty_Charging>  (1) 
1.0968492178591481e-07

>  <r_epik_Ionization_Penalty_Neutral>  (1) 
0.22945978357848373

>  <r_epik_State_Penalty>  (1) 
0.229459636570193

>  <r_glide_ring_energy>  (1) 
0

>  <r_i_docking_score>  (1) 
-9.0534723605617007

>  <r_i_glide_ecoul>  (1) 
-12.27632130422492

>  <r_i_glide_eff_state_penalty>  (1) 
0.229459636570193

>  <r_i_glide_einternal>  (1) 
31.936800349830712

>  <r_i_glide_emodel>  (1) 
-65.787986826705264

>  <r_i_glide_emodel_strain>  (1) 
1.6066968924227751

>  <r_i_glide_energy>  (1) 
-55.867431206685318

>  <r_i_glide_erotb>  (1) 
1.1299975728892471

>  <r_i_glide_esite>  (1) 
-0.068227652731938246

>  <r_i_glide_evdw>  (1) 
-43.591109902460396

>  <r_i_glide_gscore>  (1) 
-9.2829319971318931

>  <r_i_glide_gscore_strain>  (1) 
0

>  <r_i_glide_hbond>  (1) 
-0.45599999999999996

>  <r_i_glide_ligand_efficiency>  (1) 
-0.34821047540621924

>  <r_i_glide_ligand_efficiency_ln>  (1) 
-2.1261782770120998

>  <r_i_glide_ligand_efficiency_sa>  (1) 
-1.0315721643691862

>  <r_i_glide_lipo>  (1) 
-4.0552523361191444

>  <r_i_glide_metal>  (1) 
-0

>  <r_i_glide_rewards>  (1) 
-1.8124458904132981

>  <r_lp_Energy>  (1) 
38.298136999999997

>  <r_lp_tautomer_probability>  (1) 
0.99980002499700049

>  <s_epik_cmdline>  (1) 
J2VwaWtfcHl0aG9uJywgJy1waHQnLCAnMS4wJywgJy1waCcsICc3LjQnLCAnLXRuJywgJzgnLCAnLW1hJywgJzUwMCcsICctaW1hZScsICc8aW5maWxlLm1hZT4nLCAnLW9tYWUnLCAnPG91dGZpbGUubWFlPic=

>  <s_epik_input>  (1) 
W0NIXTE9W0NIXVtDSF09W0NIXVtDSDJdW0NIXT1DMWMyW2NIXVtjSF1jKFtDSDNdKVtjSF1jMkMoPU8pW0NIMl1bQ0gyXVtOSF1bQ0gyXUMoPU8pW05IXUMoPU8pW1NIXQ==

>  <s_glide_docking_method>  (1) 
confgen

>  <s_i_glide_gridfile>  (1) 
gpcr_5ht2c_6bqh_protein_autoprepared_prepared

>  <s_lp_Force_Field>  (1) 
S-OPLS

>  <s_lp_Variant>  (1) 
DiffSBDD_21_num_sample_50-1

>  <s_m_source_file>  (1) 
generated__ligand_DiffSBDD_2026-05-06_prepared.sdf

>  <GenAI_Model>  (1) 
DiffSBDD

>  <Protein>  (1) 
GPCR_5HT2C

$$$$
DiffSBDD_44_num_sample_50
     RDKit          3D

  0  0  0  0  0  0  0  0  0  0999 V3000
M  V30 BEGIN CTAB
M  V30 COUNTS 65 67 0 0 1
M  V30 BEGIN ATOM
M  V30 1 C 38.440658 35.684896 61.647837 0
M  V30 2 C 39.086568 29.927080 54.099874 0
M  V30 3 C 40.886285 32.798209 63.432657 0
M  V30 4 O 37.117219 31.221513 61.221947 0
M  V30 5 O 37.905430 37.996972 61.245105 0
M  V30 6 C 40.361982 31.527149 62.851235 0
M  V30 7 F 42.514776 33.939698 66.529388 0
M  V30 8 C 39.067690 27.599737 53.285400 0
M  V30 9 C 38.441778 30.292726 56.567010 0 CFG=2
M  V30 10 O 38.455768 25.811508 54.654102 0
M  V30 11 C 39.712185 35.248031 60.902142 0
M  V30 12 C 41.960194 33.968909 65.295415 0
M  V30 13 C 37.730579 36.823999 60.921418 0
M  V30 14 C 39.067435 28.922504 53.023892 0
M  V30 15 O 39.065127 31.136974 53.877994 0
M  V30 16 O 40.248268 34.057139 61.454522 0
M  V30 17 O 39.811340 28.035594 60.477182 0
M  V30 18 C 38.712479 27.873738 55.676670 0
M  V30 19 C 35.834493 31.460659 60.663787 0
M  V30 20 C 36.799136 36.449007 59.775457 0
M  V30 21 O 37.067395 30.021420 56.420378 0
M  V30 22 C 41.876824 35.182661 64.593860 0
M  V30 23 C 39.160951 29.373858 55.548825 0 CFG=1
M  V30 24 C 39.257448 30.157745 61.301320 0 CFG=2
M  V30 25 C 41.468236 32.783531 64.719923 0
M  V30 26 C 38.293937 31.043742 59.036185 0
M  V30 27 C 40.804219 34.031608 62.719125 0
M  V30 28 C 39.067337 27.731524 51.141150 0
M  V30 29 C 38.852797 30.020059 58.023149 0
M  V30 30 O 39.067317 26.821435 52.178112 0
M  V30 31 N 39.122507 27.039181 54.555838 0
M  V30 32 O 40.260988 29.411468 60.622561 0
M  V30 33 C 41.302499 35.219987 63.311659 0
M  V30 34 C 37.998658 30.419941 60.425541 0 CFG=2
M  V30 35 N 39.809957 31.430633 61.712226 0
M  V30 36 C 39.067206 29.023049 51.612216 0
M  V30 37 H 37.752043 34.843362 61.734205 0
M  V30 38 H 38.675491 36.002338 62.664576 0
M  V30 39 H 40.470087 30.635801 63.476728 0
M  V30 40 H 38.623468 31.346346 56.344900 0
M  V30 41 H 39.133882 25.157887 54.739163 0
M  V30 42 H 40.456798 36.038324 60.829440 0
M  V30 43 H 39.451653 34.989651 59.875932 0
M  V30 44 H 40.211250 27.633332 61.233910 0
M  V30 45 H 39.120180 27.449492 56.594880 0
M  V30 46 H 37.629137 27.793327 55.758317 0
M  V30 47 H 35.127606 31.707959 61.454754 0
M  V30 48 H 35.852988 32.299423 59.967053 0
M  V30 49 H 35.467423 30.578780 60.141946 0
M  V30 50 H 36.524860 35.394394 59.821331 0
M  V30 51 H 35.889593 37.046786 59.825354 0
M  V30 52 H 37.286629 36.637992 58.818562 0
M  V30 53 H 36.521594 30.781997 56.653691 0
M  V30 54 H 42.257648 36.088801 65.040531 0
M  V30 55 H 40.224952 29.403472 55.785305 0
M  V30 56 H 38.932462 29.584243 62.175733 0
M  V30 57 H 41.534949 31.856796 65.269139 0
M  V30 58 H 37.374758 31.441252 58.610625 0
M  V30 59 H 38.959936 31.902106 59.126401 0
M  V30 60 H 39.067616 27.296727 50.152313 0
M  V30 61 H 39.937695 30.004287 58.098274 0
M  V30 62 H 38.525861 29.014751 58.286627 0
M  V30 63 H 41.249399 36.158464 62.782838 0
M  V30 64 H 37.493183 29.470441 60.253116 0
M  V30 65 H 39.071582 29.919289 51.009799 0
M  V30 END ATOM
M  V30 BEGIN BOND
M  V30 1 1 6 3
M  V30 2 1 11 1
M  V30 3 1 12 7
M  V30 4 1 13 1
M  V30 5 2 13 5
M  V30 6 1 14 2
M  V30 7 2 14 8
M  V30 8 2 15 2
M  V30 9 1 16 11
M  V30 10 1 19 4
M  V30 11 1 20 13
M  V30 12 1 21 9
M  V30 13 1 22 12
M  V30 14 1 23 2
M  V30 15 1 23 9
M  V30 16 1 23 18
M  V30 17 1 25 3
M  V30 18 2 25 12
M  V30 19 2 27 3
M  V30 20 1 27 16
M  V30 21 1 29 9
M  V30 22 1 29 26
M  V30 23 1 30 8
M  V30 24 1 30 28
M  V30 25 1 31 8
M  V30 26 1 31 10
M  V30 27 1 31 18
M  V30 28 1 32 17
M  V30 29 1 32 24
M  V30 30 2 33 22
M  V30 31 1 33 27
M  V30 32 1 34 4
M  V30 33 1 34 24
M  V30 34 1 34 26
M  V30 35 2 35 6
M  V30 36 1 35 24
M  V30 37 1 36 14
M  V30 38 2 36 28
M  V30 39 1 37 1
M  V30 40 1 38 1
M  V30 41 1 39 6
M  V30 42 1 9 40 CFG=3
M  V30 43 1 41 10
M  V30 44 1 42 11
M  V30 45 1 43 11
M  V30 46 1 44 17
M  V30 47 1 45 18
M  V30 48 1 46 18
M  V30 49 1 47 19
M  V30 50 1 48 19
M  V30 51 1 49 19
M  V30 52 1 50 20
M  V30 53 1 51 20
M  V30 54 1 52 20
M  V30 55 1 53 21
M  V30 56 1 54 22
M  V30 57 1 23 55 CFG=1
M  V30 58 1 24 56 CFG=1
M  V30 59 1 57 25
M  V30 60 1 58 26
M  V30 61 1 59 26
M  V30 62 1 60 28
M  V30 63 1 61 29
M  V30 64 1 62 29
M  V30 65 1 63 33
M  V30 66 1 34 64 CFG=3
M  V30 67 1 65 36
M  V30 END BOND
M  V30 END CTAB
M  END
>  <i_epik_Tot_Q>  (1) 
0

>  <i_epik_Tot_abs_Q>  (1) 
0

>  <i_i_glide_confnum>  (1) 
1273

>  <i_i_glide_lignum>  (1) 
102

>  <i_i_glide_posenum>  (1) 
261

>  <i_i_glide_rotatable_bonds>  (1) 
16

>  <i_lp_mmshare_version>  (1) 
72125

>  <i_m_source_file_index>  (1) 
45

>  <i_f3d_flags>  (1) 
0

>  <num_sample>  (1) 
50

>  <b_lp_Chiralities_Consistent>  (1) 
1

>  <r_epik_Charging_Adjusted_Penalty>  (1) 
0

>  <r_epik_Ionization_Penalty>  (1) 
0.00046426775496228489

>  <r_epik_Ionization_Penalty_Charging>  (1) 
0

>  <r_epik_Ionization_Penalty_Neutral>  (1) 
0.00046426775496228489

>  <r_epik_State_Penalty>  (1) 
-0

>  <r_glide_ring_energy>  (1) 
0

>  <r_i_docking_score>  (1) 
-9.0456491700665342

>  <r_i_glide_ecoul>  (1) 
-10.105348266644036

>  <r_i_glide_eff_state_penalty>  (1) 
-0

>  <r_i_glide_einternal>  (1) 
11.50803547677385

>  <r_i_glide_emodel>  (1) 
-88.441201424886344

>  <r_i_glide_emodel_strain>  (1) 
0.88780634656018975

>  <r_i_glide_energy>  (1) 
-63.252839347650962

>  <r_i_glide_erotb>  (1) 
0.87096195952989475

>  <r_i_glide_esite>  (1) 
0

>  <r_i_glide_evdw>  (1) 
-53.147491081006926

>  <r_i_glide_gscore>  (1) 
-9.0456491700665342

>  <r_i_glide_gscore_strain>  (1) 
0

>  <r_i_glide_hbond>  (1) 
-0.43636227653976506

>  <r_i_glide_ligand_efficiency>  (1) 
-0.25126803250184815

>  <r_i_glide_ligand_efficiency_ln>  (1) 
-1.9735162637101324

>  <r_i_glide_ligand_efficiency_sa>  (1) 
-0.82966876329399331

>  <r_i_glide_lipo>  (1) 
-3.3179759320589324

>  <r_i_glide_metal>  (1) 
-0

>  <r_i_glide_rewards>  (1) 
-1.9890961269507801

>  <r_lp_Energy>  (1) 
22.676888999999999

>  <r_lp_tautomer_probability>  (1) 
1

>  <s_epik_Chemistry_Notes>  (1) 
This compound has an imine and may undergo hydrolysis. This compound contains an acetal/aminal-like group ( X-CH(R)-Y where X, Y are N, S, or O) that may be acid/base labile, releasing an aldehyde. This compound has a N-S or N-O group and may undergo hydrolysis at high or low pH.

>  <s_epik_cmdline>  (1) 
J2VwaWtfcHl0aG9uJywgJy1waHQnLCAnMS4wJywgJy1waCcsICc3LjQnLCAnLXRuJywgJzgnLCAnLW1hJywgJzUwMCcsICctaW1hZScsICc8aW5maWxlLm1hZT4nLCAnLW9tYWUnLCAnPG91dGZpbGUubWFlPic=

>  <s_epik_input>  (1) 
Tz1DKFtDSDNdKVtDSDJdW0NIMl1PYzFbY0hdW2NIXWMoRilbY0hdYzEvW0NIXT1OL1tDQEhdKE9bT0hdKVtDQEBIXShPW0NIM10pW0NIMl1bQ0gyXVtDQEhdKFtPSF0pW0NAQEhdKFtDSDJdTjJbT0hdKUMoPU8pYyhjMjMpW2NIXVtjSF1vMw==

>  <s_glide_docking_method>  (1) 
confgen

>  <s_i_glide_gridfile>  (1) 
gpcr_5ht2c_6bqh_protein_autoprepared_prepared

>  <s_lp_Force_Field>  (1) 
S-OPLS

>  <s_lp_Variant>  (1) 
DiffSBDD_44_num_sample_50-1

>  <s_m_source_file>  (1) 
generated__ligand_DiffSBDD_2026-05-06_prepared.sdf

>  <GenAI_Model>  (1) 
DiffSBDD

>  <Protein>  (1) 
GPCR_5HT2C

$$$$
DiffSBDD_21_num_sample_50
     RDKit          3D

  0  0  0  0  0  0  0  0  0  0999 V3000
M  V30 BEGIN CTAB
M  V30 COUNTS 48 49 0 0 1
M  V30 BEGIN ATOM
M  V30 1 C 38.753480 27.829502 56.365391 0
M  V30 2 C 39.467420 30.193943 52.651680 0
M  V30 3 C 38.425821 30.518036 54.932746 0
M  V30 4 C 39.165199 27.388877 52.724660 0
M  V30 5 C 38.855566 32.861187 56.123393 0
M  V30 6 N 37.867403 32.530076 57.178512 0 CHG=1
M  V30 7 O 36.340816 32.771877 59.979512 0
M  V30 8 C 38.521676 24.810154 57.059108 0
M  V30 9 C 38.461949 27.347592 55.134723 0
M  V30 10 C 37.814593 33.530078 58.262272 0
M  V30 11 C 38.862042 31.989095 54.841776 0
M  V30 12 O 37.654720 30.170509 55.820119 0
M  V30 13 O 37.452263 31.621428 62.075552 0
M  V30 14 C 37.506754 32.859407 59.591682 0
M  V30 15 C 38.520753 31.784814 61.488477 0
M  V30 16 C 38.854064 28.137830 53.886731 0
M  V30 17 C 39.801359 29.412475 51.530889 0
M  V30 18 C 37.870200 24.922862 55.753359 0
M  V30 19 C 37.836083 26.013992 54.927137 0
M  V30 20 N 38.584465 32.391545 60.279155 0
M  V30 21 C 38.781590 25.821699 57.883999 0
M  V30 22 C 40.320872 30.081059 50.273254 0
M  V30 23 C 38.376071 27.215279 57.657857 0
M  V30 24 S 39.987677 31.206585 62.269290 0 CHG=-1
M  V30 25 C 39.629523 28.022177 51.562215 0
M  V30 26 C 38.951155 29.593881 53.831659 0
M  V30 27 H 39.280486 28.757966 56.453834 0
M  V30 28 H 39.558615 31.266055 52.581754 0
M  V30 29 H 39.083123 26.318467 52.737509 0
M  V30 30 H 39.849151 32.821424 56.571869 0
M  V30 31 H 38.695669 33.898326 55.823125 0
M  V30 32 H 36.916447 32.421414 56.807161 0
M  V30 33 H 38.806909 23.820880 57.386568 0
M  V30 34 H 38.778772 34.021409 58.367937 0
M  V30 35 H 37.071871 34.294653 58.035090 0
M  V30 36 H 39.873675 32.021458 54.447521 0
M  V30 37 H 38.212849 32.455768 54.100050 0
M  V30 38 H 37.406083 24.024486 55.373181 0
M  V30 39 H 37.344601 25.863583 53.976769 0
M  V30 40 H 39.494215 32.508044 59.867290 0
M  V30 41 H 39.266975 25.621387 58.826894 0
M  V30 42 H 40.190473 29.436659 49.402828 0
M  V30 43 H 39.786919 31.012679 50.082273 0
M  V30 44 H 41.381615 30.310780 50.376880 0
M  V30 45 H 38.820108 27.820354 58.449168 0
M  V30 46 H 37.296796 27.300138 57.787265 0
M  V30 47 H 39.873562 27.429980 50.692063 0
M  V30 48 H 38.097618 31.627386 57.569133 0
M  V30 END ATOM
M  V30 BEGIN BOND
M  V30 1 1 6 5
M  V30 2 2 9 1
M  V30 3 1 10 6
M  V30 4 1 11 3
M  V30 5 1 11 5
M  V30 6 2 12 3
M  V30 7 2 14 7
M  V30 8 1 14 10
M  V30 9 2 15 13
M  V30 10 1 16 4
M  V30 11 1 16 9
M  V30 12 2 17 2
M  V30 13 1 18 8
M  V30 14 1 19 9
M  V30 15 2 19 18
M  V30 16 1 20 14
M  V30 17 1 20 15
M  V30 18 2 21 8
M  V30 19 1 22 17
M  V30 20 1 23 1
M  V30 21 1 23 21
M  V30 22 1 24 15
M  V30 23 2 25 4
M  V30 24 1 25 17
M  V30 25 1 26 2
M  V30 26 1 26 3
M  V30 27 2 26 16
M  V30 28 1 27 1
M  V30 29 1 28 2
M  V30 30 1 29 4
M  V30 31 1 30 5
M  V30 32 1 31 5
M  V30 33 1 32 6
M  V30 34 1 33 8
M  V30 35 1 34 10
M  V30 36 1 35 10
M  V30 37 1 36 11
M  V30 38 1 37 11
M  V30 39 1 38 18
M  V30 40 1 39 19
M  V30 41 1 40 20
M  V30 42 1 41 21
M  V30 43 1 42 22
M  V30 44 1 43 22
M  V30 45 1 44 22
M  V30 46 1 45 23
M  V30 47 1 46 23
M  V30 48 1 47 25
M  V30 49 1 48 6
M  V30 END BOND
M  V30 END CTAB
M  END
>  <i_epik_Tot_Q>  (1) 
0

>  <i_epik_Tot_abs_Q>  (1) 
2

>  <i_i_glide_confnum>  (1) 
572

>  <i_i_glide_lignum>  (1) 
60

>  <i_i_glide_posenum>  (1) 
345

>  <i_i_glide_rotatable_bonds>  (1) 
9

>  <i_lp_mmshare_version>  (1) 
72125

>  <i_m_source_file_index>  (1) 
22

>  <i_f3d_flags>  (1) 
0

>  <num_sample>  (1) 
50

>  <b_lp_Chiralities_Consistent>  (1) 
1

>  <r_epik_Charging_Adjusted_Penalty>  (1) 
1.3461270640264162

>  <r_epik_Ionization_Penalty>  (1) 
0.67306461740481383

>  <r_epik_Ionization_Penalty_Charging>  (1) 
0.67306354236559862

>  <r_epik_Ionization_Penalty_Neutral>  (1) 
1.0750392152197169e-06

>  <r_epik_State_Penalty>  (1) 
0.67306352166081751

>  <r_glide_ring_energy>  (1) 
0

>  <r_i_docking_score>  (1) 
-9.0445065274601326

>  <r_i_glide_ecoul>  (1) 
-10.262883601806994

>  <r_i_glide_eff_state_penalty>  (1) 
0.67306352166081751

>  <r_i_glide_einternal>  (1) 
28.50030347641291

>  <r_i_glide_emodel>  (1) 
-82.29339968083022

>  <r_i_glide_emodel_strain>  (1) 
1.4342814974119875

>  <r_i_glide_energy>  (1) 
-55.520055598809932

>  <r_i_glide_erotb>  (1) 
1.1245087388706405

>  <r_i_glide_esite>  (1) 
-0.14153711477049719

>  <r_i_glide_evdw>  (1) 
-45.257171997002935

>  <r_i_glide_gscore>  (1) 
-9.7175700491209493

>  <r_i_glide_gscore_strain>  (1) 
0

>  <r_i_glide_hbond>  (1) 
-0.52719630594072653

>  <r_i_glide_ligand_efficiency>  (1) 
-0.34786563567154355

>  <r_i_glide_ligand_efficiency_ln>  (1) 
-2.1240726805274943

>  <r_i_glide_ligand_efficiency_sa>  (1) 
-1.0305505780109787

>  <r_i_glide_lipo>  (1) 
-4.2791992417172144

>  <r_i_glide_metal>  (1) 
-0

>  <r_i_glide_rewards>  (1) 
-2.0918549854419535

>  <r_lp_Energy>  (1) 
41.866791999999997

>  <r_lp_tautomer_probability>  (1) 
0.99990000499974985

>  <s_epik_cmdline>  (1) 
J2VwaWtfcHl0aG9uJywgJy1waHQnLCAnMS4wJywgJy1waCcsICc3LjQnLCAnLXRuJywgJzgnLCAnLW1hJywgJzUwMCcsICctaW1hZScsICc8aW5maWxlLm1hZT4nLCAnLW9tYWUnLCAnPG91dGZpbGUubWFlPic=

>  <s_epik_input>  (1) 
W0NIXTE9W0NIXVtDSF09W0NIXVtDSDJdW0NIXT1DMWMyW2NIXVtjSF1jKFtDSDNdKVtjSF1jMkMoPU8pW0NIMl1bQ0gyXVtOSF1bQ0gyXUMoPU8pW05IXUMoPU8pW1NIXQ==

>  <s_glide_docking_method>  (1) 
confgen

>  <s_i_glide_gridfile>  (1) 
gpcr_5ht2c_6bqh_protein_autoprepared_prepared

>  <s_lp_Force_Field>  (1) 
S-OPLS

>  <s_lp_Variant>  (1) 
DiffSBDD_21_num_sample_50-2

>  <s_m_source_file>  (1) 
generated__ligand_DiffSBDD_2026-05-06_prepared.sdf

>  <GenAI_Model>  (1) 
DiffSBDD

>  <Protein>  (1) 
GPCR_5HT2C

$$$$
DiffSBDD_21_num_sample_50
     RDKit          3D

  0  0  0  0  0  0  0  0  0  0999 V3000
M  V30 BEGIN CTAB
M  V30 COUNTS 48 49 0 0 1
M  V30 BEGIN ATOM
M  V30 1 C 38.049196 25.976731 54.591838 0
M  V30 2 C 39.467387 30.264156 52.653523 0
M  V30 3 C 38.777124 30.279770 55.091210 0
M  V30 4 C 39.130610 27.480565 52.380084 0
M  V30 5 C 38.920096 32.635476 56.339061 0
M  V30 6 N 37.867414 32.254085 57.308862 0 CHG=1
M  V30 7 O 36.217082 32.623805 60.144464 0
M  V30 8 C 38.128124 25.904427 57.761766 0
M  V30 9 C 38.744069 27.112747 54.837546 0
M  V30 10 C 37.574792 33.310763 58.301700 0
M  V30 11 C 39.050563 31.794585 55.047058 0
M  V30 12 O 38.282604 29.786921 56.096922 0
M  V30 13 O 37.467351 31.621362 62.236230 0
M  V30 14 C 37.357978 32.710710 59.684941 0
M  V30 15 C 38.498617 31.766510 61.580307 0
M  V30 16 C 38.978222 28.062776 53.666790 0
M  V30 17 C 39.652534 29.640977 51.405649 0
M  V30 18 C 39.111975 26.907421 57.380836 0
M  V30 19 C 39.375389 27.420282 56.145019 0
M  V30 20 N 38.483231 32.303375 60.335953 0
M  V30 21 C 37.532239 25.027043 56.958941 0
M  V30 22 C 40.030366 30.474463 50.197898 0
M  V30 23 C 37.803371 24.844363 55.522463 0
M  V30 24 S 40.016942 31.255793 62.308066 0 CHG=-1
M  V30 25 C 39.466111 28.262959 51.269302 0
M  V30 26 C 39.101128 29.510115 53.801677 0
M  V30 27 H 37.647170 25.826297 53.603552 0
M  V30 28 H 39.576395 31.334008 52.716667 0
M  V30 29 H 39.038613 26.421382 52.253478 0
M  V30 30 H 39.867433 32.627251 56.869255 0
M  V30 31 H 38.750281 33.669856 56.038403 0
M  V30 32 H 36.959101 32.053538 56.867390 0
M  V30 33 H 37.867418 25.861571 58.802058 0
M  V30 34 H 38.395541 34.021412 58.374026 0
M  V30 35 H 36.692159 33.868132 57.985110 0
M  V30 36 H 40.052686 31.953980 54.653772 0
M  V30 37 H 38.354332 32.208684 54.316702 0
M  V30 38 H 39.684159 27.330992 58.192631 0
M  V30 39 H 40.136939 28.184371 56.122419 0
M  V30 40 H 39.366047 32.411981 59.867518 0
M  V30 41 H 36.824757 24.333280 57.390307 0
M  V30 42 H 40.232700 29.843915 49.331359 0
M  V30 43 H 39.221073 31.158235 49.939560 0
M  V30 44 H 40.922558 31.066205 50.402675 0
M  V30 45 H 36.918606 24.339615 55.130692 0
M  V30 46 H 38.615743 24.127675 55.412998 0
M  V30 47 H 39.598318 27.793759 50.304064 0
M  V30 48 H 38.140786 31.404144 57.781162 0
M  V30 END ATOM
M  V30 BEGIN BOND
M  V30 1 1 6 5
M  V30 2 2 9 1
M  V30 3 1 10 6
M  V30 4 1 11 3
M  V30 5 1 11 5
M  V30 6 2 12 3
M  V30 7 2 14 7
M  V30 8 1 14 10
M  V30 9 2 15 13
M  V30 10 1 16 4
M  V30 11 1 16 9
M  V30 12 2 17 2
M  V30 13 1 18 8
M  V30 14 1 19 9
M  V30 15 2 19 18
M  V30 16 1 20 14
M  V30 17 1 20 15
M  V30 18 2 21 8
M  V30 19 1 22 17
M  V30 20 1 23 1
M  V30 21 1 23 21
M  V30 22 1 24 15
M  V30 23 2 25 4
M  V30 24 1 25 17
M  V30 25 1 26 2
M  V30 26 1 26 3
M  V30 27 2 26 16
M  V30 28 1 27 1
M  V30 29 1 28 2
M  V30 30 1 29 4
M  V30 31 1 30 5
M  V30 32 1 31 5
M  V30 33 1 32 6
M  V30 34 1 33 8
M  V30 35 1 34 10
M  V30 36 1 35 10
M  V30 37 1 36 11
M  V30 38 1 37 11
M  V30 39 1 38 18
M  V30 40 1 39 19
M  V30 41 1 40 20
M  V30 42 1 41 21
M  V30 43 1 42 22
M  V30 44 1 43 22
M  V30 45 1 44 22
M  V30 46 1 45 23
M  V30 47 1 46 23
M  V30 48 1 47 25
M  V30 49 1 48 6
M  V30 END BOND
M  V30 END CTAB
M  END
>  <i_epik_Tot_Q>  (1) 
0

>  <i_epik_Tot_abs_Q>  (1) 
2

>  <i_i_glide_confnum>  (1) 
572

>  <i_i_glide_lignum>  (1) 
60

>  <i_i_glide_posenum>  (1) 
345

>  <i_i_glide_rotatable_bonds>  (1) 
9

>  <i_lp_mmshare_version>  (1) 
72125

>  <i_m_source_file_index>  (1) 
22

>  <i_f3d_flags>  (1) 
0

>  <num_sample>  (1) 
50

>  <b_lp_Chiralities_Consistent>  (1) 
1

>  <r_epik_Charging_Adjusted_Penalty>  (1) 
1.3461270640264162

>  <r_epik_Ionization_Penalty>  (1) 
0.67306461740481383

>  <r_epik_Ionization_Penalty_Charging>  (1) 
0.67306354236559862

>  <r_epik_Ionization_Penalty_Neutral>  (1) 
1.0750392152197169e-06

>  <r_epik_State_Penalty>  (1) 
0.67306352166081751

>  <r_glide_ring_energy>  (1) 
0

>  <r_i_docking_score>  (1) 
-9.0073079555762003

>  <r_i_glide_ecoul>  (1) 
-12.152733892348159

>  <r_i_glide_eff_state_penalty>  (1) 
0.67306352166081751

>  <r_i_glide_einternal>  (1) 
20.125188923451866

>  <r_i_glide_emodel>  (1) 
-84.053242466170914

>  <r_i_glide_emodel_strain>  (1) 
3.1817699787270612

>  <r_i_glide_energy>  (1) 
-55.002356709818756

>  <r_i_glide_erotb>  (1) 
1.1245087388706405

>  <r_i_glide_esite>  (1) 
-0.14421545039145151

>  <r_i_glide_evdw>  (1) 
-42.849622817470596

>  <r_i_glide_gscore>  (1) 
-9.6803714772370171

>  <r_i_glide_gscore_strain>  (1) 
0

>  <r_i_glide_hbond>  (1) 
-0.47926801198666946

>  <r_i_glide_ligand_efficiency>  (1) 
-0.34643492136831538

>  <r_i_glide_ligand_efficiency_ln>  (1) 
-2.115336717979023

>  <r_i_glide_ligand_efficiency_sa>  (1) 
-1.0263120925126512

>  <r_i_glide_lipo>  (1) 
-4.1789204888316736

>  <r_i_glide_metal>  (1) 
-0

>  <r_i_glide_rewards>  (1) 
-2.037085040172109

>  <r_lp_Energy>  (1) 
41.866791999999997

>  <r_lp_tautomer_probability>  (1) 
0.99990000499974985

>  <s_epik_cmdline>  (1) 
J2VwaWtfcHl0aG9uJywgJy1waHQnLCAnMS4wJywgJy1waCcsICc3LjQnLCAnLXRuJywgJzgnLCAnLW1hJywgJzUwMCcsICctaW1hZScsICc8aW5maWxlLm1hZT4nLCAnLW9tYWUnLCAnPG91dGZpbGUubWFlPic=

>  <s_epik_input>  (1) 
W0NIXTE9W0NIXVtDSF09W0NIXVtDSDJdW0NIXT1DMWMyW2NIXVtjSF1jKFtDSDNdKVtjSF1jMkMoPU8pW0NIMl1bQ0gyXVtOSF1bQ0gyXUMoPU8pW05IXUMoPU8pW1NIXQ==

>  <s_glide_docking_method>  (1) 
confgen

>  <s_i_glide_gridfile>  (1) 
gpcr_5ht2c_6bqh_protein_autoprepared_prepared

>  <s_lp_Force_Field>  (1) 
S-OPLS

>  <s_lp_Variant>  (1) 
DiffSBDD_21_num_sample_50-2

>  <s_m_source_file>  (1) 
generated__ligand_DiffSBDD_2026-05-06_prepared.sdf

>  <GenAI_Model>  (1) 
DiffSBDD

>  <Protein>  (1) 
GPCR_5HT2C

$$$$
DiffSBDD_26_num_sample_50
     RDKit          3D

  0  0  0  0  0  0  0  0  0  0999 V3000
M  V30 BEGIN CTAB
M  V30 COUNTS 96 102 0 0 1
M  V30 BEGIN ATOM
M  V30 1 C 39.305399 35.138798 61.618108 0
M  V30 2 N 39.902481 36.007735 63.920117 0
M  V30 3 C 38.972702 27.993346 51.822276 0
M  V30 4 C 39.165192 25.904643 58.177702 0
M  V30 5 N 38.211960 37.221353 64.436425 0 CHG=1
M  V30 6 N 39.010999 30.821439 59.015595 0
M  V30 7 C 36.342793 31.752411 59.893794 0
M  V30 8 C 37.663523 33.223593 61.293368 0
M  V30 9 C 37.508072 28.040305 53.769261 0
M  V30 10 C 39.045714 35.953614 62.836742 0
M  V30 11 C 37.867378 31.725303 57.042462 0
M  V30 12 C 40.222852 32.758939 61.321505 0
M  V30 13 O 37.055079 24.176061 55.566044 0
M  V30 14 C 39.867359 29.689131 58.675610 0
M  V30 15 N 38.360694 31.060648 55.826171 0 CFG=1 CHG=1
M  V30 16 C 39.361602 36.763635 64.875868 0
M  V30 17 S 40.267367 27.513359 56.323667 0
M  V30 18 C 39.447517 25.997820 55.800167 0
M  V30 19 C 38.653030 31.092169 60.421589 0 CFG=1
M  V30 20 N 39.867406 36.992906 66.086392 0
M  V30 21 C 37.997817 27.386408 52.633327 0
M  V30 22 C 39.496638 31.311793 53.674985 0
M  V30 23 C 37.975817 36.762619 63.173612 0
M  V30 24 C 40.517393 29.925733 51.258926 0
M  V30 25 C 38.977574 29.934271 53.306012 0
M  V30 26 C 40.261808 35.622036 60.570063 0
M  V30 27 C 39.080484 28.380192 58.680319 0
M  V30 28 C 37.776627 24.331844 56.770454 0
M  V30 29 C 38.393158 25.721308 56.870536 0 CFG=1
M  V30 30 C 38.792879 35.820360 60.352529 0
M  V30 31 C 38.975636 31.939417 58.053299 0
M  V30 32 C 39.467580 29.269799 52.151715 0
M  V30 33 O 36.711036 33.989244 61.453479 0
M  V30 34 C 37.448497 30.007481 55.345072 0
M  V30 35 C 35.867357 30.339087 59.659329 0
M  V30 36 O 39.434988 27.345923 50.712399 0
M  V30 37 C 39.853299 31.305137 61.358727 0
M  V30 38 C 35.144135 31.269480 60.615393 0
M  V30 39 C 39.909822 27.235508 58.087416 0 CFG=1
M  V30 40 C 41.195331 35.325383 64.079798 0
M  V30 41 C 39.059694 33.619686 61.844258 0 CFG=1
M  V30 42 N 37.539806 32.055527 60.604421 0
M  V30 43 C 38.662513 32.012455 54.743151 0
M  V30 44 C 37.991305 29.309043 54.113249 0
M  V30 45 H 39.908238 25.111159 58.253468 0
M  V30 46 H 38.521773 25.836471 59.053136 0
M  V30 47 H 36.116999 32.455419 59.092449 0
M  V30 48 H 36.756571 27.563525 54.379163 0
M  V30 49 H 37.446135 32.695830 56.787170 0
M  V30 50 H 37.092730 31.109664 57.487118 0
M  V30 51 H 40.439579 32.964461 60.280700 0
M  V30 52 H 41.133752 32.941300 61.891424 0
M  V30 53 H 36.285662 24.725119 55.594665 0
M  V30 54 H 40.267477 29.860846 57.678802 0
M  V30 55 H 40.738706 29.616571 59.324143 0
M  V30 56 H 39.034343 26.075524 54.798633 0
M  V30 57 H 40.191094 25.200846 55.780598 0
M  V30 58 H 38.275474 30.141453 60.788387 0
M  V30 59 H 40.755666 36.612839 66.381711 0
M  V30 60 H 39.391649 37.559339 66.774377 0
M  V30 61 H 37.617895 26.421442 52.380055 0
M  V30 62 H 40.533455 31.221203 54.003328 0
M  V30 63 H 39.468938 31.938257 52.785313 0
M  V30 64 H 37.076482 37.008905 62.627067 0
M  V30 65 H 40.968616 30.831742 51.654169 0
M  V30 66 H 41.330728 29.225189 51.075421 0
M  V30 67 H 40.069500 30.173693 50.295946 0
M  V30 68 H 40.905034 36.451645 60.850143 0
M  V30 69 H 40.667394 34.957699 59.838170 0
M  V30 70 H 38.789882 28.130519 59.702025 0
M  V30 71 H 38.153661 28.494648 58.120428 0
M  V30 72 H 38.592048 23.621445 56.816439 0
M  V30 73 H 37.113891 24.134360 57.615240 0
M  V30 74 H 37.601005 26.470689 56.807849 0
M  V30 75 H 38.267493 35.202008 59.625875 0
M  V30 76 H 38.400527 36.831163 60.437769 0
M  V30 77 H 39.867396 32.085593 57.453507 0
M  V30 78 H 38.810083 32.881440 58.572949 0
M  V30 79 H 36.467134 30.422543 55.111343 0
M  V30 80 H 37.310427 29.266199 56.131803 0
M  V30 81 H 35.381992 30.129036 58.707949 0
M  V30 82 H 36.409537 29.502298 60.074532 0
M  V30 83 H 39.008178 26.520302 50.529222 0
M  V30 84 H 39.579393 31.027775 62.378248 0
M  V30 85 H 40.708337 30.682058 61.108778 0
M  V30 86 H 35.210117 31.099843 61.685067 0
M  V30 87 H 34.267370 31.784610 60.253421 0
M  V30 88 H 40.854453 27.159709 58.628572 0
M  V30 89 H 41.078302 34.484062 64.763069 0
M  V30 90 H 41.545760 34.959305 63.117313 0
M  V30 91 H 41.935724 36.021464 64.473732 0
M  V30 92 H 39.030379 33.437376 62.919491 0
M  V30 93 H 39.202523 32.879671 55.123250 0
M  V30 94 H 37.725214 32.381257 54.321327 0
M  V30 95 H 37.591168 37.814751 64.963986 0
M  V30 96 H 39.220027 30.591678 56.075662 0
M  V30 END ATOM
M  V30 BEGIN BOND
M  V30 1 1 10 1
M  V30 2 1 10 2
M  V30 3 1 14 6
M  V30 4 1 15 11
M  V30 5 1 16 2
M  V30 6 2 16 5
M  V30 7 1 18 17
M  V30 8 1 19 6
M  V30 9 1 20 16
M  V30 10 1 21 3
M  V30 11 2 21 9
M  V30 12 1 23 5
M  V30 13 2 23 10
M  V30 14 1 25 22
M  V30 15 1 26 1
M  V30 16 1 27 14
M  V30 17 1 28 13
M  V30 18 1 29 4
M  V30 19 1 29 18
M  V30 20 1 29 28
M  V30 21 1 30 1
M  V30 22 1 30 26
M  V30 23 1 31 6
M  V30 24 1 31 11
M  V30 25 2 32 3
M  V30 26 1 32 24
M  V30 27 1 32 25
M  V30 28 2 33 8
M  V30 29 1 34 15
M  V30 30 1 35 7
M  V30 31 1 36 3
M  V30 32 1 37 12
M  V30 33 1 37 19
M  V30 34 1 38 7
M  V30 35 1 38 35
M  V30 36 1 39 4
M  V30 37 1 39 17
M  V30 38 1 39 27
M  V30 39 1 40 2
M  V30 40 1 41 1
M  V30 41 1 41 8
M  V30 42 1 41 12
M  V30 43 1 42 7
M  V30 44 1 42 8
M  V30 45 1 42 19
M  V30 46 1 43 15
M  V30 47 1 43 22
M  V30 48 1 44 9
M  V30 49 2 44 25
M  V30 50 1 44 34
M  V30 51 1 45 4
M  V30 52 1 46 4
M  V30 53 1 47 7
M  V30 54 1 48 9
M  V30 55 1 49 11
M  V30 56 1 50 11
M  V30 57 1 51 12
M  V30 58 1 52 12
M  V30 59 1 53 13
M  V30 60 1 54 14
M  V30 61 1 55 14
M  V30 62 1 56 18
M  V30 63 1 57 18
M  V30 64 1 19 58 CFG=1
M  V30 65 1 59 20
M  V30 66 1 60 20
M  V30 67 1 61 21
M  V30 68 1 62 22
M  V30 69 1 63 22
M  V30 70 1 64 23
M  V30 71 1 65 24
M  V30 72 1 66 24
M  V30 73 1 67 24
M  V30 74 1 68 26
M  V30 75 1 69 26
M  V30 76 1 70 27
M  V30 77 1 71 27
M  V30 78 1 72 28
M  V30 79 1 73 28
M  V30 80 1 29 74 CFG=1
M  V30 81 1 75 30
M  V30 82 1 76 30
M  V30 83 1 77 31
M  V30 84 1 78 31
M  V30 85 1 79 34
M  V30 86 1 80 34
M  V30 87 1 81 35
M  V30 88 1 82 35
M  V30 89 1 83 36
M  V30 90 1 84 37
M  V30 91 1 85 37
M  V30 92 1 86 38
M  V30 93 1 87 38
M  V30 94 1 39 88 CFG=1
M  V30 95 1 89 40
M  V30 96 1 90 40
M  V30 97 1 91 40
M  V30 98 1 41 92 CFG=1
M  V30 99 1 93 43
M  V30 100 1 94 43
M  V30 101 1 95 5
M  V30 102 1 15 96 CFG=1
M  V30 END BOND
M  V30 END CTAB
M  END
>  <i_epik_Tot_Q>  (1) 
2

>  <i_epik_Tot_abs_Q>  (1) 
2

>  <i_i_glide_confnum>  (1) 
6922

>  <i_i_glide_lignum>  (1) 
69

>  <i_i_glide_posenum>  (1) 
285

>  <i_i_glide_rotatable_bonds>  (1) 
13

>  <i_lp_mmshare_version>  (1) 
72125

>  <i_m_source_file_index>  (1) 
27

>  <i_f3d_flags>  (1) 
0

>  <num_sample>  (1) 
50

>  <b_lp_Chiralities_Consistent>  (1) 
1

>  <r_epik_Charging_Adjusted_Penalty>  (1) 
0.023035094209541071

>  <r_epik_Ionization_Penalty>  (1) 
0.04084289902745275

>  <r_epik_Ionization_Penalty_Charging>  (1) 
0.023035094209541071

>  <r_epik_Ionization_Penalty_Neutral>  (1) 
0.017807804817911676

>  <r_epik_State_Penalty>  (1) 
-0

>  <r_glide_ring_energy>  (1) 
0

>  <r_i_docking_score>  (1) 
-8.9988307946729016

>  <r_i_glide_ecoul>  (1) 
-1.4095753437517686

>  <r_i_glide_eff_state_penalty>  (1) 
-0

>  <r_i_glide_einternal>  (1) 
9.5195653239426861

>  <r_i_glide_emodel>  (1) 
-61.732745534371674

>  <r_i_glide_emodel_strain>  (1) 
1.4204229132739385

>  <r_i_glide_energy>  (1) 
-43.23932528962488

>  <r_i_glide_erotb>  (1) 
0.45984128746928787

>  <r_i_glide_esite>  (1) 
-0.078944571971297547

>  <r_i_glide_evdw>  (1) 
-41.829749945873111

>  <r_i_glide_gscore>  (1) 
-8.9988307946729016

>  <r_i_glide_gscore_strain>  (1) 
0

>  <r_i_glide_hbond>  (1) 
-0.07671064749950135

>  <r_i_glide_ligand_efficiency>  (1) 
-0.20451888169711141

>  <r_i_glide_ligand_efficiency_ln>  (1) 
-1.8809519444785971

>  <r_i_glide_ligand_efficiency_sa>  (1) 
-0.72202289354214544

>  <r_i_glide_lipo>  (1) 
-5.6521233787713587

>  <r_i_glide_metal>  (1) 
-0

>  <r_i_glide_rewards>  (1) 
-1.3479696850436125

>  <r_lp_Energy>  (1) 
46.785410999999996

>  <r_lp_tautomer_probability>  (1) 
1

>  <s_epik_Chemistry_Notes>  (1) 
This compound contains an acetal/aminal-like group ( X-CH(R)-Y where X, Y are N, S, or O) that may be acid/base labile, releasing an aldehyde.

>  <s_epik_cmdline>  (1) 
J2VwaWtfcHl0aG9uJywgJy1waHQnLCAnMS4wJywgJy1waCcsICc3LjQnLCAnLXRuJywgJzgnLCAnLW1hJywgJzUwMCcsICctaW1hZScsICc8aW5maWxlLm1hZT4nLCAnLW9tYWUnLCAnPG91dGZpbGUubWFlPic=

>  <s_epik_input>  (1) 
W05IMl1jMW5bY0hdYyhuMVtDSDNdKUMyKFtDSDJdW0NIMl0yKVtDQEBIXShDMz1PKVtDSDJdW0NIMl1bQ0BASF0oTjNbQ0hdNFtDSDJdW0NIMl00KU4oW0NIMl1bQ0gyXVtDQEhdKFNbQ0gyXTUpW0NIMl1bQ0BASF01W0NIMl1bT0hdKVtDSDJdW0NIMl1OKFtDSDJdW0NIMl02KVtDSDJdYyhjNjcpW2NIXVtjSF1jKFtPSF0pYzdbQ0gzXQ==

>  <s_glide_docking_method>  (1) 
confgen

>  <s_i_glide_gridfile>  (1) 
gpcr_5ht2c_6bqh_protein_autoprepared_prepared

>  <s_lp_Force_Field>  (1) 
S-OPLS

>  <s_lp_Variant>  (1) 
DiffSBDD_26_num_sample_50-2

>  <s_m_source_file>  (1) 
generated__ligand_DiffSBDD_2026-05-06_prepared.sdf

>  <GenAI_Model>  (1) 
DiffSBDD

>  <Protein>  (1) 
GPCR_5HT2C

$$$$
DiffSBDD_4_num_sample_50
     RDKit          3D

  0  0  0  0  0  0  0  0  0  0999 V3000
M  V30 BEGIN CTAB
M  V30 COUNTS 73 75 0 0 1
M  V30 BEGIN ATOM
M  V30 1 C 39.082321 28.888845 52.942490 0
M  V30 2 C 39.098785 35.302821 61.519008 0
M  V30 3 C 37.479406 36.927540 60.843060 0
M  V30 4 N 38.326698 33.373899 60.737423 0
M  V30 5 C 36.819806 25.473613 56.604453 0
M  V30 6 C 38.243982 37.949162 61.453448 0
M  V30 7 C 39.359142 33.906039 61.430683 0
M  V30 8 N 38.267327 28.165862 55.985187 0
M  V30 9 C 38.610752 30.427059 58.348628 0
M  V30 10 C 38.206873 26.716286 54.110467 0
M  V30 11 O 40.418600 28.791323 56.253519 0
M  V30 12 C 38.212777 31.970099 60.364275 0
M  V30 13 F 40.239121 30.488321 49.772095 0
M  V30 14 C 39.562603 27.832191 50.808947 0
M  V30 15 C 37.236575 34.382514 60.298148 0
M  V30 16 C 40.222548 30.285952 51.088497 0
M  V30 17 N 39.067332 26.821677 51.748370 0 CHG=1
M  V30 18 C 39.912999 36.278441 62.142310 0
M  V30 19 C 38.743751 30.401249 56.819865 0
M  V30 20 C 39.193376 27.361408 53.108751 0 CFG=1
M  V30 21 C 37.947965 35.610721 60.908005 0
M  V30 22 O 36.314495 37.221425 60.201696 0
M  V30 23 C 39.467291 37.621739 62.113660 0
M  V30 24 C 39.232195 29.174279 51.441367 0 CFG=2
M  V30 25 C 38.319339 25.803214 56.500582 0
M  V30 26 C 39.218003 29.042315 56.326759 0
M  V30 27 N 38.615823 26.895316 55.523662 0
M  V30 28 C 39.067489 24.527975 56.097386 0
M  V30 29 C 41.234080 35.923931 62.816966 0
M  V30 30 N 41.037867 35.476301 64.203244 0 CHG=1
M  V30 31 F 39.867403 31.412968 51.699294 0
M  V30 32 C 38.360463 31.852057 58.840840 0
M  V30 33 C 38.821923 26.149658 57.925108 0
M  V30 34 O 40.339289 33.324033 61.896266 0
M  V30 35 H 38.117126 29.258944 53.291136 0
M  V30 36 H 39.848772 29.402732 53.522856 0
M  V30 37 H 36.267433 26.279427 57.080871 0
M  V30 38 H 36.368160 25.274101 55.633134 0
M  V30 39 H 36.667417 24.586610 57.219863 0
M  V30 40 H 37.904339 38.973533 61.419175 0
M  V30 41 H 36.111310 38.148305 60.185414 0
M  V30 42 H 37.286509 28.394557 56.058407 0
M  V30 43 H 39.513605 30.027845 58.814267 0
M  V30 44 H 37.788370 29.780890 58.660423 0
M  V30 45 H 38.165595 25.651977 53.890480 0
M  V30 46 H 37.188735 27.082532 53.966509 0
M  V30 47 H 38.978439 31.374369 60.864408 0
M  V30 48 H 37.247847 31.578530 60.688040 0
M  V30 49 H 39.067412 27.715441 49.853509 0
M  V30 50 H 40.634365 27.730171 50.653478 0
M  V30 51 H 36.271744 34.186997 60.767944 0
M  V30 52 H 37.139986 34.466582 59.214707 0
M  V30 53 H 41.237478 30.047080 51.390637 0
M  V30 54 H 39.553441 25.943560 51.641510 0
M  V30 55 H 37.794405 30.666566 56.350173 0
M  V30 56 H 39.468061 31.147975 56.491605 0
M  V30 57 H 40.201545 27.083452 53.408822 0
M  V30 58 H 40.054054 38.399146 62.579715 0
M  V30 59 H 38.267359 29.465907 51.053619 0
M  V30 60 H 40.112603 24.760970 55.888129 0
M  V30 61 H 39.049891 23.786708 56.897383 0
M  V30 62 H 38.640018 24.053770 55.214739 0
M  V30 63 H 41.814168 35.206578 62.239633 0
M  V30 64 H 41.851596 36.820842 62.851886 0
M  V30 65 H 41.935504 35.320132 64.637929 0
M  V30 66 H 40.549533 36.200224 64.712130 0
M  V30 67 H 37.459264 32.236308 58.360594 0
M  V30 68 H 39.170647 32.495640 58.498441 0
M  V30 69 H 38.303424 27.008452 58.352538 0
M  V30 70 H 38.662069 25.323319 58.616891 0
M  V30 71 H 39.889887 26.372991 57.925951 0
M  V30 72 H 38.082502 26.682799 51.556121 0
M  V30 73 H 40.498942 34.621886 64.207990 0
M  V30 END ATOM
M  V30 BEGIN BOND
M  V30 1 1 6 3
M  V30 2 1 7 2
M  V30 3 1 7 4
M  V30 4 1 12 4
M  V30 5 1 15 4
M  V30 6 1 16 13
M  V30 7 1 17 14
M  V30 8 2 18 2
M  V30 9 1 19 9
M  V30 10 1 20 1
M  V30 11 1 20 10
M  V30 12 1 20 17
M  V30 13 1 21 2
M  V30 14 2 21 3
M  V30 15 1 21 15
M  V30 16 1 22 3
M  V30 17 2 23 6
M  V30 18 1 23 18
M  V30 19 1 24 1
M  V30 20 1 24 14
M  V30 21 1 24 16
M  V30 22 1 25 5
M  V30 23 1 26 8
M  V30 24 2 26 11
M  V30 25 1 26 19
M  V30 26 1 27 8
M  V30 27 1 27 10
M  V30 28 1 27 25
M  V30 29 1 28 25
M  V30 30 1 29 18
M  V30 31 1 30 29
M  V30 32 1 31 16
M  V30 33 1 32 9
M  V30 34 1 32 12
M  V30 35 1 33 25
M  V30 36 2 34 7
M  V30 37 1 35 1
M  V30 38 1 36 1
M  V30 39 1 37 5
M  V30 40 1 38 5
M  V30 41 1 39 5
M  V30 42 1 40 6
M  V30 43 1 41 22
M  V30 44 1 42 8
M  V30 45 1 43 9
M  V30 46 1 44 9
M  V30 47 1 45 10
M  V30 48 1 46 10
M  V30 49 1 47 12
M  V30 50 1 48 12
M  V30 51 1 49 14
M  V30 52 1 50 14
M  V30 53 1 51 15
M  V30 54 1 52 15
M  V30 55 1 53 16
M  V30 56 1 54 17
M  V30 57 1 55 19
M  V30 58 1 56 19
M  V30 59 1 20 57 CFG=1
M  V30 60 1 58 23
M  V30 61 1 24 59 CFG=3
M  V30 62 1 60 28
M  V30 63 1 61 28
M  V30 64 1 62 28
M  V30 65 1 63 29
M  V30 66 1 64 29
M  V30 67 1 65 30
M  V30 68 1 66 30
M  V30 69 1 67 32
M  V30 70 1 68 32
M  V30 71 1 69 33
M  V30 72 1 70 33
M  V30 73 1 71 33
M  V30 74 1 72 17
M  V30 75 1 73 30
M  V30 END BOND
M  V30 END CTAB
M  END
>  <i_epik_Tot_Q>  (1) 
2

>  <i_epik_Tot_abs_Q>  (1) 
2

>  <i_i_glide_confnum>  (1) 
251

>  <i_i_glide_lignum>  (1) 
12

>  <i_i_glide_posenum>  (1) 
271

>  <i_i_glide_rotatable_bonds>  (1) 
13

>  <i_lp_mmshare_version>  (1) 
72125

>  <i_m_source_file_index>  (1) 
5

>  <i_f3d_flags>  (1) 
0

>  <num_sample>  (1) 
50

>  <b_lp_Chiralities_Consistent>  (1) 
1

>  <r_epik_Charging_Adjusted_Penalty>  (1) 
0.15324589145217746

>  <r_epik_Ionization_Penalty>  (1) 
0.11737889030673737

>  <r_epik_Ionization_Penalty_Charging>  (1) 
0.07766807882096001

>  <r_epik_Ionization_Penalty_Neutral>  (1) 
0.039710811485777361

>  <r_epik_State_Penalty>  (1) 
0.075577812631217448

>  <r_glide_ring_energy>  (1) 
0

>  <r_i_docking_score>  (1) 
-8.9952991279277086

>  <r_i_glide_ecoul>  (1) 
-4.2763494668237954

>  <r_i_glide_eff_state_penalty>  (1) 
0.075577812631217448

>  <r_i_glide_einternal>  (1) 
16.751472419750961

>  <r_i_glide_emodel>  (1) 
-71.548669494983784

>  <r_i_glide_emodel_strain>  (1) 
0.48789868799524072

>  <r_i_glide_energy>  (1) 
-45.664272994845689

>  <r_i_glide_erotb>  (1) 
0.78126008755577614

>  <r_i_glide_esite>  (1) 
-0.00078436759831499174

>  <r_i_glide_evdw>  (1) 
-41.387923528021894

>  <r_i_glide_gscore>  (1) 
-9.0708769405589269

>  <r_i_glide_gscore_strain>  (1) 
0

>  <r_i_glide_hbond>  (1) 
-0.27204594715927266

>  <r_i_glide_ligand_efficiency>  (1) 
-0.26456762140963846

>  <r_i_glide_ligand_efficiency_ln>  (1) 
-1.9873138869534737

>  <r_i_glide_ligand_efficiency_sa>  (1) 
-0.85709638855457837

>  <r_i_glide_lipo>  (1) 
-4.5667954684332273

>  <r_i_glide_metal>  (1) 
-0

>  <r_i_glide_rewards>  (1) 
-2.3016626484992244

>  <r_lp_Energy>  (1) 
24.236581999999999

>  <r_lp_tautomer_probability>  (1) 
0.99999999999736477

>  <s_epik_cmdline>  (1) 
J2VwaWtfcHl0aG9uJywgJy1waHQnLCAnMS4wJywgJy1waCcsICc3LjQnLCAnLXRuJywgJzgnLCAnLW1hJywgJzUwMCcsICctaW1hZScsICc8aW5maWxlLm1hZT4nLCAnLW9tYWUnLCAnPG91dGZpbGUubWFlPic=

>  <s_epik_input>  (1) 
RltDSF0oRilbQ0BASF0oW0NIMl1bTkhdMSlbQ0gyXVtDQEhdMVtDSDJdTihDKFtDSDNdKShbQ0gzXSlbQ0gzXSlbTkhdQyg9TylbQ0gyXVtDSDJdW0NIMl1bQ0gyXU4oQzI9TylbQ0gyXUMoPUMyMylDKD1PKVtDSDJdW0NIXT1DM1tDSDJdW05IMl0=

>  <s_glide_docking_method>  (1) 
confgen

>  <s_i_glide_gridfile>  (1) 
gpcr_5ht2c_6bqh_protein_autoprepared_prepared

>  <s_lp_Force_Field>  (1) 
S-OPLS

>  <s_lp_Variant>  (1) 
DiffSBDD_4_num_sample_50-1

>  <s_m_source_file>  (1) 
generated__ligand_DiffSBDD_2026-05-06_prepared.sdf

>  <GenAI_Model>  (1) 
DiffSBDD

>  <Protein>  (1) 
GPCR_5HT2C

$$$$
DiffSBDD_21_num_sample_50
     RDKit          3D

  0  0  0  0  0  0  0  0  0  0999 V3000
M  V30 BEGIN CTAB
M  V30 COUNTS 48 49 0 0 1
M  V30 BEGIN ATOM
M  V30 1 C 38.326954 25.853243 54.769480 0
M  V30 2 C 39.467428 30.021412 52.395924 0
M  V30 3 C 38.909001 30.203214 54.842220 0
M  V30 4 C 39.171785 27.221430 52.365533 0
M  V30 5 C 39.265062 32.455078 56.062533 0
M  V30 6 N 37.867403 32.544709 56.528424 0 CHG=1
M  V30 7 O 39.213668 33.221416 59.325344 0
M  V30 8 C 38.267318 26.234008 57.878655 0
M  V30 9 C 38.933985 27.057593 54.870972 0
M  V30 10 C 37.607591 33.518123 57.602811 0
M  V30 11 C 39.402305 31.649734 54.764073 0
M  V30 12 O 38.308591 29.820213 55.842155 0
M  V30 13 O 36.300332 31.221431 61.453486 0
M  V30 14 C 38.062946 33.004008 58.959019 0
M  V30 15 C 37.276753 31.746102 60.927074 0
M  V30 16 C 39.067403 27.904387 53.604060 0
M  V30 17 C 39.607669 29.307351 51.196552 0
M  V30 18 C 39.271862 27.182586 57.417918 0
M  V30 19 C 39.562758 27.535007 56.131878 0
M  V30 20 N 37.116206 32.326896 59.686131 0
M  V30 21 C 37.775496 25.217549 57.175903 0
M  V30 22 C 39.928344 30.047325 49.914346 0
M  V30 23 C 38.228832 24.821672 55.831256 0
M  V30 24 S 38.825152 31.682510 61.853501 0 CHG=-1
M  V30 25 C 39.440279 27.918301 51.179632 0
M  V30 26 C 39.169623 29.353828 53.611962 0
M  V30 27 H 37.906164 25.562329 53.825761 0
M  V30 28 H 39.564655 31.094747 52.374469 0
M  V30 29 H 39.103432 26.153565 52.330847 0
M  V30 30 H 39.867401 32.008710 56.849807 0
M  V30 31 H 39.644964 33.457882 55.873806 0
M  V30 32 H 37.261359 32.821008 55.764200 0
M  V30 33 H 37.900002 26.361845 58.882004 0
M  V30 34 H 38.133955 34.421833 57.348908 0
M  V30 35 H 36.549619 33.764235 57.654052 0
M  V30 36 H 40.450002 31.621425 54.464435 0
M  V30 37 H 38.843214 32.167560 53.984932 0
M  V30 38 H 39.818990 27.707039 58.187483 0
M  V30 39 H 40.320056 28.295929 56.021488 0
M  V30 40 H 36.197099 32.249246 59.273939 0
M  V30 41 H 37.034548 24.577520 57.632221 0
M  V30 42 H 39.688818 29.443045 49.041234 0
M  V30 43 H 39.364875 30.979437 49.853971 0
M  V30 44 H 40.990290 30.291612 49.876359 0
M  V30 45 H 37.557168 24.041819 55.470848 0
M  V30 46 H 39.210415 24.361068 55.933306 0
M  V30 47 H 39.541868 27.374593 50.253479 0
M  V30 48 H 37.538132 31.633608 56.829450 0
M  V30 END ATOM
M  V30 BEGIN BOND
M  V30 1 1 6 5
M  V30 2 2 9 1
M  V30 3 1 10 6
M  V30 4 1 11 3
M  V30 5 1 11 5
M  V30 6 2 12 3
M  V30 7 2 14 7
M  V30 8 1 14 10
M  V30 9 2 15 13
M  V30 10 1 16 4
M  V30 11 1 16 9
M  V30 12 2 17 2
M  V30 13 1 18 8
M  V30 14 1 19 9
M  V30 15 2 19 18
M  V30 16 1 20 14
M  V30 17 1 20 15
M  V30 18 2 21 8
M  V30 19 1 22 17
M  V30 20 1 23 1
M  V30 21 1 23 21
M  V30 22 1 24 15
M  V30 23 2 25 4
M  V30 24 1 25 17
M  V30 25 1 26 2
M  V30 26 1 26 3
M  V30 27 2 26 16
M  V30 28 1 27 1
M  V30 29 1 28 2
M  V30 30 1 29 4
M  V30 31 1 30 5
M  V30 32 1 31 5
M  V30 33 1 32 6
M  V30 34 1 33 8
M  V30 35 1 34 10
M  V30 36 1 35 10
M  V30 37 1 36 11
M  V30 38 1 37 11
M  V30 39 1 38 18
M  V30 40 1 39 19
M  V30 41 1 40 20
M  V30 42 1 41 21
M  V30 43 1 42 22
M  V30 44 1 43 22
M  V30 45 1 44 22
M  V30 46 1 45 23
M  V30 47 1 46 23
M  V30 48 1 47 25
M  V30 49 1 48 6
M  V30 END BOND
M  V30 END CTAB
M  END
>  <i_epik_Tot_Q>  (1) 
0

>  <i_epik_Tot_abs_Q>  (1) 
2

>  <i_i_glide_confnum>  (1) 
367

>  <i_i_glide_lignum>  (1) 
60

>  <i_i_glide_posenum>  (1) 
233

>  <i_i_glide_rotatable_bonds>  (1) 
9

>  <i_lp_mmshare_version>  (1) 
72125

>  <i_m_source_file_index>  (1) 
22

>  <i_f3d_flags>  (1) 
0

>  <num_sample>  (1) 
50

>  <b_lp_Chiralities_Consistent>  (1) 
1

>  <r_epik_Charging_Adjusted_Penalty>  (1) 
1.3461270640264162

>  <r_epik_Ionization_Penalty>  (1) 
0.67306461740481383

>  <r_epik_Ionization_Penalty_Charging>  (1) 
0.67306354236559862

>  <r_epik_Ionization_Penalty_Neutral>  (1) 
1.0750392152197169e-06

>  <r_epik_State_Penalty>  (1) 
0.67306352166081751

>  <r_glide_ring_energy>  (1) 
0

>  <r_i_docking_score>  (1) 
-8.9734380514388317

>  <r_i_glide_ecoul>  (1) 
-15.242782285353059

>  <r_i_glide_eff_state_penalty>  (1) 
0.67306352166081751

>  <r_i_glide_einternal>  (1) 
13.03632376044699

>  <r_i_glide_emodel>  (1) 
-89.138060385569077

>  <r_i_glide_emodel_strain>  (1) 
0

>  <r_i_glide_energy>  (1) 
-53.508955653398452

>  <r_i_glide_erotb>  (1) 
0.78715611720944834

>  <r_i_glide_esite>  (1) 
-0.20533266657552077

>  <r_i_glide_evdw>  (1) 
-38.266173368045393

>  <r_i_glide_gscore>  (1) 
-9.6465015730996484

>  <r_i_glide_gscore_strain>  (1) 
0

>  <r_i_glide_hbond>  (1) 
-0.47023230252407949

>  <r_i_glide_ligand_efficiency>  (1) 
-0.34513223274764737

>  <r_i_glide_ligand_efficiency_ln>  (1) 
-2.1073824821285818

>  <r_i_glide_ligand_efficiency_sa>  (1) 
-1.022452882595563

>  <r_i_glide_lipo>  (1) 
-4.1336163682730866

>  <r_i_glide_metal>  (1) 
-0

>  <r_i_glide_rewards>  (1) 
-1.4247503417311822

>  <r_lp_Energy>  (1) 
41.866791999999997

>  <r_lp_tautomer_probability>  (1) 
0.99990000499974985

>  <s_epik_cmdline>  (1) 
J2VwaWtfcHl0aG9uJywgJy1waHQnLCAnMS4wJywgJy1waCcsICc3LjQnLCAnLXRuJywgJzgnLCAnLW1hJywgJzUwMCcsICctaW1hZScsICc8aW5maWxlLm1hZT4nLCAnLW9tYWUnLCAnPG91dGZpbGUubWFlPic=

>  <s_epik_input>  (1) 
W0NIXTE9W0NIXVtDSF09W0NIXVtDSDJdW0NIXT1DMWMyW2NIXVtjSF1jKFtDSDNdKVtjSF1jMkMoPU8pW0NIMl1bQ0gyXVtOSF1bQ0gyXUMoPU8pW05IXUMoPU8pW1NIXQ==

>  <s_glide_docking_method>  (1) 
confgen

>  <s_i_glide_gridfile>  (1) 
gpcr_5ht2c_6bqh_protein_autoprepared_prepared

>  <s_lp_Force_Field>  (1) 
S-OPLS

>  <s_lp_Variant>  (1) 
DiffSBDD_21_num_sample_50-2

>  <s_m_source_file>  (1) 
generated__ligand_DiffSBDD_2026-05-06_prepared.sdf

>  <GenAI_Model>  (1) 
DiffSBDD

>  <Protein>  (1) 
GPCR_5HT2C

$$$$
DiffSBDD_21_num_sample_50
     RDKit          3D

  0  0  0  0  0  0  0  0  0  0999 V3000
M  V30 BEGIN CTAB
M  V30 COUNTS 47 48 0 0 1
M  V30 BEGIN ATOM
M  V30 1 C 38.159513 28.061334 56.254254 0
M  V30 2 C 39.536838 30.228770 52.490212 0
M  V30 3 C 39.283847 30.553759 54.928987 0
M  V30 4 C 38.974890 27.470462 52.575125 0
M  V30 5 C 38.572298 32.872926 55.978845 0
M  V30 6 N 37.867671 32.322653 57.130943 0
M  V30 7 O 36.259568 32.834275 60.011874 0
M  V30 8 C 39.162079 25.370809 57.368456 0
M  V30 9 C 38.501750 27.429175 55.098397 0
M  V30 10 C 37.675529 33.341744 58.150793 0
M  V30 11 C 38.595351 31.919489 54.763737 0
M  V30 12 O 39.867099 30.272715 55.973750 0
M  V30 13 O 37.268536 31.229641 61.853518 0
M  V30 14 C 37.361673 32.669890 59.479977 0
M  V30 15 C 38.291606 31.235958 61.167824 0
M  V30 16 C 38.899580 28.215030 53.795380 0
M  V30 17 C 39.590395 29.458614 51.322176 0
M  V30 18 C 38.782284 25.056413 56.008632 0
M  V30 19 C 38.487081 25.939576 55.020527 0
M  V30 20 N 38.363625 31.915630 60.000770 0
M  V30 21 C 38.733948 26.433762 58.040690 0
M  V30 22 C 39.972691 30.111000 50.010578 0
M  V30 23 C 37.738475 27.395663 57.517453 0
M  V30 24 S 39.683273 30.325587 61.749654 0 CHG=-1
M  V30 25 C 39.312207 28.092231 51.365656 0
M  V30 26 C 39.210007 29.649513 53.737258 0
M  V30 27 H 38.096385 29.104235 56.296902 0
M  V30 28 H 39.782789 31.278559 52.433340 0
M  V30 29 H 38.769250 26.423079 52.554772 0
M  V30 30 H 39.592881 33.123862 56.272086 0
M  V30 31 H 38.091746 33.805764 55.677657 0
M  V30 32 H 36.907042 32.021673 56.891634 0
M  V30 33 H 39.828846 24.688558 57.864032 0
M  V30 34 H 38.581817 33.928292 58.290643 0
M  V30 35 H 36.872104 34.019952 57.859740 0
M  V30 36 H 39.064843 32.421922 53.929246 0
M  V30 37 H 37.566824 31.726848 54.458722 0
M  V30 38 H 38.781636 24.021430 55.735218 0
M  V30 39 H 38.270522 25.497856 54.075619 0
M  V30 40 H 39.222002 31.859764 59.479796 0
M  V30 41 H 39.068813 26.590638 59.054934 0
M  V30 42 H 39.810887 29.442056 49.166329 0
M  V30 43 H 39.391802 31.019202 49.851919 0
M  V30 44 H 41.029632 30.378525 50.027771 0
M  V30 45 H 37.601953 28.180837 58.261931 0
M  V30 46 H 36.774424 26.898145 57.413947 0
M  V30 47 H 39.359591 27.505788 50.459952 0
M  V30 END ATOM
M  V30 BEGIN BOND
M  V30 1 1 6 5
M  V30 2 2 9 1
M  V30 3 1 10 6
M  V30 4 1 11 3
M  V30 5 1 11 5
M  V30 6 2 12 3
M  V30 7 2 14 7
M  V30 8 1 14 10
M  V30 9 2 15 13
M  V30 10 1 16 4
M  V30 11 1 16 9
M  V30 12 2 17 2
M  V30 13 1 18 8
M  V30 14 1 19 9
M  V30 15 2 19 18
M  V30 16 1 20 14
M  V30 17 1 20 15
M  V30 18 2 21 8
M  V30 19 1 22 17
M  V30 20 1 23 1
M  V30 21 1 23 21
M  V30 22 1 24 15
M  V30 23 2 25 4
M  V30 24 1 25 17
M  V30 25 1 26 2
M  V30 26 1 26 3
M  V30 27 2 26 16
M  V30 28 1 27 1
M  V30 29 1 28 2
M  V30 30 1 29 4
M  V30 31 1 30 5
M  V30 32 1 31 5
M  V30 33 1 32 6
M  V30 34 1 33 8
M  V30 35 1 34 10
M  V30 36 1 35 10
M  V30 37 1 36 11
M  V30 38 1 37 11
M  V30 39 1 38 18
M  V30 40 1 39 19
M  V30 41 1 40 20
M  V30 42 1 41 21
M  V30 43 1 42 22
M  V30 44 1 43 22
M  V30 45 1 44 22
M  V30 46 1 45 23
M  V30 47 1 46 23
M  V30 48 1 47 25
M  V30 END BOND
M  V30 END CTAB
M  END
>  <i_epik_Tot_Q>  (1) 
-1

>  <i_epik_Tot_abs_Q>  (1) 
1

>  <i_i_glide_confnum>  (1) 
1399

>  <i_i_glide_lignum>  (1) 
59

>  <i_i_glide_posenum>  (1) 
274

>  <i_i_glide_rotatable_bonds>  (1) 
9

>  <i_lp_mmshare_version>  (1) 
72125

>  <i_m_source_file_index>  (1) 
22

>  <i_f3d_flags>  (1) 
0

>  <num_sample>  (1) 
50

>  <b_lp_Chiralities_Consistent>  (1) 
1

>  <r_epik_Charging_Adjusted_Penalty>  (1) 
0.22945974625511478

>  <r_epik_Ionization_Penalty>  (1) 
0.22945989326340552

>  <r_epik_Ionization_Penalty_Charging>  (1) 
1.0968492178591481e-07

>  <r_epik_Ionization_Penalty_Neutral>  (1) 
0.22945978357848373

>  <r_epik_State_Penalty>  (1) 
0.229459636570193

>  <r_glide_ring_energy>  (1) 
0.00060046885337470873

>  <r_i_docking_score>  (1) 
-8.9715763286774983

>  <r_i_glide_ecoul>  (1) 
-13.485545625167298

>  <r_i_glide_eff_state_penalty>  (1) 
0.229459636570193

>  <r_i_glide_einternal>  (1) 
2.7520850826666887

>  <r_i_glide_emodel>  (1) 
-76.122378483527768

>  <r_i_glide_emodel_strain>  (1) 
2.0623100290465715

>  <r_i_glide_energy>  (1) 
-52.307650955668713

>  <r_i_glide_erotb>  (1) 
1.1299975728892471

>  <r_i_glide_esite>  (1) 
-0.067920938360462854

>  <r_i_glide_evdw>  (1) 
-38.822105330501415

>  <r_i_glide_gscore>  (1) 
-9.2010359652476907

>  <r_i_glide_gscore_strain>  (1) 
0

>  <r_i_glide_hbond>  (1) 
-0.45599999999999996

>  <r_i_glide_ligand_efficiency>  (1) 
-0.34506062802605764

>  <r_i_glide_ligand_efficiency_ln>  (1) 
-2.1069452626468936

>  <r_i_glide_ligand_efficiency_sa>  (1) 
-1.0222407538893741

>  <r_i_glide_lipo>  (1) 
-3.839435376575731

>  <r_i_glide_metal>  (1) 
-0

>  <r_i_glide_rewards>  (1) 
-2.0037401129005792

>  <r_lp_Energy>  (1) 
38.298136999999997

>  <r_lp_tautomer_probability>  (1) 
0.99980002499700049

>  <s_epik_cmdline>  (1) 
J2VwaWtfcHl0aG9uJywgJy1waHQnLCAnMS4wJywgJy1waCcsICc3LjQnLCAnLXRuJywgJzgnLCAnLW1hJywgJzUwMCcsICctaW1hZScsICc8aW5maWxlLm1hZT4nLCAnLW9tYWUnLCAnPG91dGZpbGUubWFlPic=

>  <s_epik_input>  (1) 
W0NIXTE9W0NIXVtDSF09W0NIXVtDSDJdW0NIXT1DMWMyW2NIXVtjSF1jKFtDSDNdKVtjSF1jMkMoPU8pW0NIMl1bQ0gyXVtOSF1bQ0gyXUMoPU8pW05IXUMoPU8pW1NIXQ==

>  <s_glide_docking_method>  (1) 
confgen

>  <s_i_glide_gridfile>  (1) 
gpcr_5ht2c_6bqh_protein_autoprepared_prepared

>  <s_lp_Force_Field>  (1) 
S-OPLS

>  <s_lp_Variant>  (1) 
DiffSBDD_21_num_sample_50-1

>  <s_m_source_file>  (1) 
generated__ligand_DiffSBDD_2026-05-06_prepared.sdf

>  <GenAI_Model>  (1) 
DiffSBDD

>  <Protein>  (1) 
GPCR_5HT2C

$$$$
DiffSBDD_21_num_sample_50
     RDKit          3D

  0  0  0  0  0  0  0  0  0  0999 V3000
M  V30 BEGIN CTAB
M  V30 COUNTS 47 48 0 0 1
M  V30 BEGIN ATOM
M  V30 1 C 37.652685 26.370074 54.069679 0
M  V30 2 C 39.867395 30.377240 52.301070 0
M  V30 3 C 39.113975 30.414066 54.674526 0
M  V30 4 C 39.040486 27.707253 51.900341 0
M  V30 5 C 37.818621 29.860755 56.980089 0
M  V30 6 N 39.067394 30.226184 57.637575 0
M  V30 7 O 39.032333 30.136396 61.269869 0
M  V30 8 C 38.877681 25.188149 56.729086 0
M  V30 9 C 38.557050 27.336300 54.340683 0
M  V30 10 C 39.285273 29.617101 58.947289 0
M  V30 11 C 37.802683 30.112658 55.450413 0
M  V30 12 O 39.867539 31.304377 55.064490 0
M  V30 13 O 37.067309 31.734889 61.946757 0
M  V30 14 C 38.604088 30.320670 60.128064 0
M  V30 15 C 36.815100 31.804846 60.747313 0
M  V30 16 C 38.962768 28.262721 53.201514 0
M  V30 17 C 39.970569 29.785080 51.031777 0
M  V30 18 C 39.366563 26.564246 56.672698 0
M  V30 19 C 39.227412 27.483809 55.667997 0
M  V30 20 N 37.541640 31.122798 59.828178 0
M  V30 21 C 37.900208 24.665401 55.994756 0
M  V30 22 C 40.525612 30.582194 49.872590 0
M  V30 23 C 37.067412 25.396481 55.030108 0
M  V30 24 S 35.467423 32.821601 60.253502 0 CHG=-1
M  V30 25 C 39.539348 28.464521 50.830584 0
M  V30 26 C 39.332211 29.654871 53.391323 0
M  V30 27 H 37.233445 26.322337 53.076629 0
M  V30 28 H 40.161858 31.409360 52.432870 0
M  V30 29 H 38.763374 26.680452 51.730420 0
M  V30 30 H 37.001613 30.421431 57.423631 0
M  V30 31 H 37.575200 28.817010 57.174762 0
M  V30 32 H 39.237252 31.224337 57.623918 0
M  V30 33 H 39.353562 24.532064 57.444211 0
M  V30 34 H 38.987653 28.568139 58.940600 0
M  V30 35 H 40.358439 29.621497 59.137931 0
M  V30 36 H 37.210742 31.017913 55.307734 0
M  V30 37 H 37.209541 29.349998 54.950718 0
M  V30 38 H 39.962813 26.882243 57.515889 0
M  V30 39 H 39.749743 28.399466 55.840793 0
M  V30 40 H 37.275331 31.213569 58.859283 0
M  V30 41 H 37.637931 23.628107 56.145443 0
M  V30 42 H 40.903465 29.923382 49.090400 0
M  V30 43 H 39.743433 31.215199 49.453536 0
M  V30 44 H 41.345526 31.221420 50.200541 0
M  V30 45 H 36.273284 25.886531 55.591514 0
M  V30 46 H 36.578578 24.634002 54.422094 0
M  V30 47 H 39.611205 28.021049 49.853490 0
M  V30 END ATOM
M  V30 BEGIN BOND
M  V30 1 1 6 5
M  V30 2 2 9 1
M  V30 3 1 10 6
M  V30 4 1 11 3
M  V30 5 1 11 5
M  V30 6 2 12 3
M  V30 7 2 14 7
M  V30 8 1 14 10
M  V30 9 2 15 13
M  V30 10 1 16 4
M  V30 11 1 16 9
M  V30 12 2 17 2
M  V30 13 1 18 8
M  V30 14 1 19 9
M  V30 15 2 19 18
M  V30 16 1 20 14
M  V30 17 1 20 15
M  V30 18 2 21 8
M  V30 19 1 22 17
M  V30 20 1 23 1
M  V30 21 1 23 21
M  V30 22 1 24 15
M  V30 23 2 25 4
M  V30 24 1 25 17
M  V30 25 1 26 2
M  V30 26 1 26 3
M  V30 27 2 26 16
M  V30 28 1 27 1
M  V30 29 1 28 2
M  V30 30 1 29 4
M  V30 31 1 30 5
M  V30 32 1 31 5
M  V30 33 1 32 6
M  V30 34 1 33 8
M  V30 35 1 34 10
M  V30 36 1 35 10
M  V30 37 1 36 11
M  V30 38 1 37 11
M  V30 39 1 38 18
M  V30 40 1 39 19
M  V30 41 1 40 20
M  V30 42 1 41 21
M  V30 43 1 42 22
M  V30 44 1 43 22
M  V30 45 1 44 22
M  V30 46 1 45 23
M  V30 47 1 46 23
M  V30 48 1 47 25
M  V30 END BOND
M  V30 END CTAB
M  END
>  <i_epik_Tot_Q>  (1) 
-1

>  <i_epik_Tot_abs_Q>  (1) 
1

>  <i_i_glide_confnum>  (1) 
40

>  <i_i_glide_lignum>  (1) 
59

>  <i_i_glide_posenum>  (1) 
169

>  <i_i_glide_rotatable_bonds>  (1) 
9

>  <i_lp_mmshare_version>  (1) 
72125

>  <i_m_source_file_index>  (1) 
22

>  <i_f3d_flags>  (1) 
0

>  <num_sample>  (1) 
50

>  <b_lp_Chiralities_Consistent>  (1) 
1

>  <r_epik_Charging_Adjusted_Penalty>  (1) 
0.22945974625511478

>  <r_epik_Ionization_Penalty>  (1) 
0.22945989326340552

>  <r_epik_Ionization_Penalty_Charging>  (1) 
1.0968492178591481e-07

>  <r_epik_Ionization_Penalty_Neutral>  (1) 
0.22945978357848373

>  <r_epik_State_Penalty>  (1) 
0.229459636570193

>  <r_glide_ring_energy>  (1) 
0

>  <r_i_docking_score>  (1) 
-8.9711690245932019

>  <r_i_glide_ecoul>  (1) 
-10.059255319786898

>  <r_i_glide_eff_state_penalty>  (1) 
0.229459636570193

>  <r_i_glide_einternal>  (1) 
26.400633495857171

>  <r_i_glide_emodel>  (1) 
-65.959893331928328

>  <r_i_glide_emodel_strain>  (1) 
4.5250590527240888

>  <r_i_glide_energy>  (1) 
-56.433395451844966

>  <r_i_glide_erotb>  (1) 
1.1299975728892471

>  <r_i_glide_esite>  (1) 
-0.081457018043217949

>  <r_i_glide_evdw>  (1) 
-46.374140132058066

>  <r_i_glide_gscore>  (1) 
-9.2006286611633943

>  <r_i_glide_gscore_strain>  (1) 
0.1312647631810222

>  <r_i_glide_hbond>  (1) 
-0.32000000000000001

>  <r_i_glide_ligand_efficiency>  (1) 
-0.3450449624843539

>  <r_i_glide_ligand_efficiency_ln>  (1) 
-2.1068496086191701

>  <r_i_glide_ligand_efficiency_sa>  (1) 
-1.0221943447836674

>  <r_i_glide_lipo>  (1) 
-4.0961825837201413

>  <r_i_glide_metal>  (1) 
-0

>  <r_i_glide_rewards>  (1) 
-2.1366560908993639

>  <r_lp_Energy>  (1) 
38.298136999999997

>  <r_lp_tautomer_probability>  (1) 
0.99980002499700049

>  <s_epik_cmdline>  (1) 
J2VwaWtfcHl0aG9uJywgJy1waHQnLCAnMS4wJywgJy1waCcsICc3LjQnLCAnLXRuJywgJzgnLCAnLW1hJywgJzUwMCcsICctaW1hZScsICc8aW5maWxlLm1hZT4nLCAnLW9tYWUnLCAnPG91dGZpbGUubWFlPic=

>  <s_epik_input>  (1) 
W0NIXTE9W0NIXVtDSF09W0NIXVtDSDJdW0NIXT1DMWMyW2NIXVtjSF1jKFtDSDNdKVtjSF1jMkMoPU8pW0NIMl1bQ0gyXVtOSF1bQ0gyXUMoPU8pW05IXUMoPU8pW1NIXQ==

>  <s_glide_docking_method>  (1) 
confgen

>  <s_i_glide_gridfile>  (1) 
gpcr_5ht2c_6bqh_protein_autoprepared_prepared

>  <s_lp_Force_Field>  (1) 
S-OPLS

>  <s_lp_Variant>  (1) 
DiffSBDD_21_num_sample_50-1

>  <s_m_source_file>  (1) 
generated__ligand_DiffSBDD_2026-05-06_prepared.sdf

>  <GenAI_Model>  (1) 
DiffSBDD

>  <Protein>  (1) 
GPCR_5HT2C

$$$$
DiffSBDD_26_num_sample_50
     RDKit          3D

  0  0  0  0  0  0  0  0  0  0999 V3000
M  V30 BEGIN CTAB
M  V30 COUNTS 96 102 0 0 1
M  V30 BEGIN ATOM
M  V30 1 C 44.167239 29.553529 65.184693 0
M  V30 2 N 44.135181 29.719866 67.722421 0
M  V30 3 C 37.405136 24.929678 55.274386 0
M  V30 4 C 36.959714 31.720963 59.447042 0
M  V30 5 N 45.024598 31.639638 68.123975 0 CHG=1
M  V30 6 N 40.674883 29.613449 61.305451 0
M  V30 7 C 40.654740 32.309754 62.881366 0
M  V30 8 C 42.176785 30.985708 64.330289 0
M  V30 9 C 38.011629 24.900243 57.629446 0
M  V30 10 C 44.445805 30.260454 66.486201 0
M  V30 11 C 41.460685 28.133599 59.360687 0
M  V30 12 C 42.236508 28.407681 63.953612 0
M  V30 13 O 37.227109 34.714308 59.452901 0
M  V30 14 C 39.707242 30.333879 60.465868 0
M  V30 15 N 40.488958 27.725796 58.306018 0 CFG=2 CHG=1
M  V30 16 C 44.489221 30.568446 68.686167 0
M  V30 17 S 38.094882 29.994343 57.693434 0
M  V30 18 C 38.191946 31.759951 57.294020 0
M  V30 19 C 40.543857 29.826621 62.779784 0 CFG=1
M  V30 20 N 44.332228 30.375712 69.998327 0
M  V30 21 C 37.248579 24.402366 56.563504 0
M  V30 22 C 40.140550 27.541040 55.865105 0
M  V30 23 C 45.020789 31.495685 66.759048 0
M  V30 24 C 38.481691 26.573656 53.645474 0
M  V30 25 C 39.116332 26.458387 56.109774 0
M  V30 26 C 45.070099 28.377562 64.837295 0
M  V30 27 C 38.285261 29.755616 60.460716 0
M  V30 28 C 37.278737 33.946003 58.265981 0
M  V30 29 C 37.887696 32.567493 58.565715 0 CFG=1
M  V30 30 C 45.192490 29.668231 64.076294 0
M  V30 31 C 40.916958 28.247497 60.810772 0
M  V30 32 C 38.328578 25.973999 55.041625 0
M  V30 33 O 42.667261 31.993869 64.832337 0
M  V30 34 C 39.810305 26.426731 58.552859 0
M  V30 35 C 41.295224 33.693282 63.016131 0
M  V30 36 O 36.667415 24.423787 54.254669 0
M  V30 37 C 40.769861 28.562113 63.634132 0
M  V30 38 C 41.316459 32.980968 61.695464 0
M  V30 39 C 37.361237 30.249458 59.332214 0 CFG=1
M  V30 40 C 43.510605 28.417996 68.006062 0
M  V30 41 C 42.660084 29.587699 64.822664 0 CFG=1
M  V30 42 N 41.196405 31.046729 63.358637 0
M  V30 43 C 41.161563 27.670107 56.991455 0
M  V30 44 C 38.954493 25.922365 57.404923 0
M  V30 45 H 35.936026 31.825101 59.085548 0
M  V30 46 H 36.959720 32.065199 60.480741 0
M  V30 47 H 39.566650 32.349266 62.898374 0
M  V30 48 H 37.882796 24.486548 58.618674 0
M  V30 49 H 42.267850 27.401142 59.355318 0
M  V30 50 H 41.920345 29.076739 59.061160 0
M  V30 51 H 42.845269 28.357370 63.053643 0
M  V30 52 H 42.382540 27.469977 64.490210 0
M  V30 53 H 36.553226 34.354362 60.008575 0
M  V30 54 H 39.643267 31.376556 60.747119 0
M  V30 55 H 40.087978 30.331207 59.453806 0
M  V30 56 H 39.174152 32.005638 56.888536 0
M  V30 57 H 37.467413 31.971809 56.508062 0
M  V30 58 H 39.479469 30.005949 62.939962 0
M  V30 59 H 43.911672 29.537125 70.374792 0
M  V30 60 H 44.616487 31.060041 70.685085 0
M  V30 61 H 36.543572 23.605403 56.731443 0
M  V30 62 H 40.667333 27.221867 54.973816 0
M  V30 63 H 39.648560 28.492302 55.667760 0
M  V30 64 H 45.409689 32.256316 66.097373 0
M  V30 65 H 39.376908 26.189082 53.158061 0
M  V30 66 H 37.619402 26.398484 53.006807 0
M  V30 67 H 38.577197 27.658213 53.703862 0
M  V30 68 H 45.866357 28.137335 65.540050 0
M  V30 69 H 44.689229 27.523937 64.282156 0
M  V30 70 H 38.306079 28.671112 60.386541 0
M  V30 71 H 37.840287 30.021540 61.416854 0
M  V30 72 H 37.867357 34.461675 57.511194 0
M  V30 73 H 36.272423 33.854424 57.856036 0
M  V30 74 H 38.833239 32.711124 59.088750 0
M  V30 75 H 44.825833 29.676165 63.053706 0
M  V30 76 H 46.079544 30.272360 64.257097 0
M  V30 77 H 40.051252 27.621465 60.993779 0
M  V30 78 H 41.708821 27.819362 61.412167 0
M  V30 79 H 39.202340 26.474648 59.449846 0
M  V30 80 H 40.561433 25.647413 58.653448 0
M  V30 81 H 40.616723 34.539361 63.109333 0
M  V30 82 H 42.277210 33.860770 63.446951 0
M  V30 83 H 36.811420 24.858885 53.427532 0
M  V30 84 H 40.267428 28.685210 64.591715 0
M  V30 85 H 40.334775 27.656779 63.215589 0
M  V30 86 H 42.270617 32.583458 61.355199 0
M  V30 87 H 40.667242 33.373899 60.915809 0
M  V30 88 H 36.448515 29.651817 59.374746 0
M  V30 89 H 42.540900 28.576943 68.480183 0
M  V30 90 H 43.368961 27.849536 67.088622 0
M  V30 91 H 44.157318 27.845892 68.672265 0
M  V30 92 H 42.120712 29.447804 65.760363 0
M  V30 93 H 41.844526 26.821453 56.978553 0
M  V30 94 H 41.782971 28.541107 56.821450 0
M  V30 95 H 45.381240 32.443156 68.627565 0
M  V30 96 H 39.770845 28.437326 58.247973 0
M  V30 END ATOM
M  V30 BEGIN BOND
M  V30 1 1 10 1
M  V30 2 1 10 2
M  V30 3 1 14 6
M  V30 4 1 15 11
M  V30 5 1 16 2
M  V30 6 2 16 5
M  V30 7 1 18 17
M  V30 8 1 19 6
M  V30 9 1 20 16
M  V30 10 1 21 3
M  V30 11 2 21 9
M  V30 12 1 23 5
M  V30 13 2 23 10
M  V30 14 1 25 22
M  V30 15 1 26 1
M  V30 16 1 27 14
M  V30 17 1 28 13
M  V30 18 1 29 4
M  V30 19 1 29 18
M  V30 20 1 29 28
M  V30 21 1 30 1
M  V30 22 1 30 26
M  V30 23 1 31 6
M  V30 24 1 31 11
M  V30 25 2 32 3
M  V30 26 1 32 24
M  V30 27 1 32 25
M  V30 28 2 33 8
M  V30 29 1 34 15
M  V30 30 1 35 7
M  V30 31 1 36 3
M  V30 32 1 37 12
M  V30 33 1 37 19
M  V30 34 1 38 7
M  V30 35 1 38 35
M  V30 36 1 39 4
M  V30 37 1 39 17
M  V30 38 1 39 27
M  V30 39 1 40 2
M  V30 40 1 41 1
M  V30 41 1 41 8
M  V30 42 1 41 12
M  V30 43 1 42 7
M  V30 44 1 42 8
M  V30 45 1 42 19
M  V30 46 1 43 15
M  V30 47 1 43 22
M  V30 48 1 44 9
M  V30 49 2 44 25
M  V30 50 1 44 34
M  V30 51 1 45 4
M  V30 52 1 46 4
M  V30 53 1 47 7
M  V30 54 1 48 9
M  V30 55 1 49 11
M  V30 56 1 50 11
M  V30 57 1 51 12
M  V30 58 1 52 12
M  V30 59 1 53 13
M  V30 60 1 54 14
M  V30 61 1 55 14
M  V30 62 1 56 18
M  V30 63 1 57 18
M  V30 64 1 19 58 CFG=3
M  V30 65 1 59 20
M  V30 66 1 60 20
M  V30 67 1 61 21
M  V30 68 1 62 22
M  V30 69 1 63 22
M  V30 70 1 64 23
M  V30 71 1 65 24
M  V30 72 1 66 24
M  V30 73 1 67 24
M  V30 74 1 68 26
M  V30 75 1 69 26
M  V30 76 1 70 27
M  V30 77 1 71 27
M  V30 78 1 72 28
M  V30 79 1 73 28
M  V30 80 1 29 74 CFG=1
M  V30 81 1 75 30
M  V30 82 1 76 30
M  V30 83 1 77 31
M  V30 84 1 78 31
M  V30 85 1 79 34
M  V30 86 1 80 34
M  V30 87 1 81 35
M  V30 88 1 82 35
M  V30 89 1 83 36
M  V30 90 1 84 37
M  V30 91 1 85 37
M  V30 92 1 86 38
M  V30 93 1 87 38
M  V30 94 1 39 88 CFG=3
M  V30 95 1 89 40
M  V30 96 1 90 40
M  V30 97 1 91 40
M  V30 98 1 41 92 CFG=1
M  V30 99 1 93 43
M  V30 100 1 94 43
M  V30 101 1 95 5
M  V30 102 1 15 96 CFG=3
M  V30 END BOND
M  V30 END CTAB
M  END
>  <i_epik_Tot_Q>  (1) 
2

>  <i_epik_Tot_abs_Q>  (1) 
2

>  <i_i_glide_confnum>  (1) 
9258

>  <i_i_glide_lignum>  (1) 
68

>  <i_i_glide_posenum>  (1) 
88

>  <i_i_glide_rotatable_bonds>  (1) 
13

>  <i_lp_mmshare_version>  (1) 
72125

>  <i_m_source_file_index>  (1) 
27

>  <i_f3d_flags>  (1) 
0

>  <num_sample>  (1) 
50

>  <b_lp_Chiralities_Consistent>  (1) 
1

>  <r_epik_Charging_Adjusted_Penalty>  (1) 
0.023035094209541071

>  <r_epik_Ionization_Penalty>  (1) 
0.04084289902745275

>  <r_epik_Ionization_Penalty_Charging>  (1) 
0.023035094209541071

>  <r_epik_Ionization_Penalty_Neutral>  (1) 
0.017807804817911676

>  <r_epik_State_Penalty>  (1) 
-0

>  <r_glide_ring_energy>  (1) 
0

>  <r_i_docking_score>  (1) 
-8.9392084593686025

>  <r_i_glide_ecoul>  (1) 
-6.5526494127113502

>  <r_i_glide_eff_state_penalty>  (1) 
-0

>  <r_i_glide_einternal>  (1) 
21.05504396633193

>  <r_i_glide_emodel>  (1) 
-69.473889033406067

>  <r_i_glide_emodel_strain>  (1) 
0.34849955353978146

>  <r_i_glide_energy>  (1) 
-54.714708188984829

>  <r_i_glide_erotb>  (1) 
0.45984128746928787

>  <r_i_glide_esite>  (1) 
-0.036471253329649733

>  <r_i_glide_evdw>  (1) 
-48.162058776273483

>  <r_i_glide_gscore>  (1) 
-8.9392084593686025

>  <r_i_glide_gscore_strain>  (1) 
0

>  <r_i_glide_hbond>  (1) 
-0.31224771434285514

>  <r_i_glide_ligand_efficiency>  (1) 
-0.20316382862201368

>  <r_i_glide_ligand_efficiency_ln>  (1) 
-1.8684895757460542

>  <r_i_glide_ligand_efficiency_sa>  (1) 
-0.7172390841741958

>  <r_i_glide_lipo>  (1) 
-4.7390102025179051

>  <r_i_glide_metal>  (1) 
-0

>  <r_i_glide_rewards>  (1) 
-0.92032022592710661

>  <r_lp_Energy>  (1) 
49.558928999999999

>  <r_lp_tautomer_probability>  (1) 
1

>  <s_epik_Chemistry_Notes>  (1) 
This compound contains an acetal/aminal-like group ( X-CH(R)-Y where X, Y are N, S, or O) that may be acid/base labile, releasing an aldehyde.

>  <s_epik_cmdline>  (1) 
J2VwaWtfcHl0aG9uJywgJy1waHQnLCAnMS4wJywgJy1waCcsICc3LjQnLCAnLXRuJywgJzgnLCAnLW1hJywgJzUwMCcsICctaW1hZScsICc8aW5maWxlLm1hZT4nLCAnLW9tYWUnLCAnPG91dGZpbGUubWFlPic=

>  <s_epik_input>  (1) 
W05IMl1jMW5bY0hdYyhuMVtDSDNdKUMyKFtDSDJdW0NIMl0yKVtDQEBIXShDMz1PKVtDSDJdW0NIMl1bQ0BASF0oTjNbQ0hdNFtDSDJdW0NIMl00KU4oW0NIMl1bQ0gyXVtDQEhdKFNbQ0gyXTUpW0NIMl1bQ0BASF01W0NIMl1bT0hdKVtDSDJdW0NIMl1OKFtDSDJdW0NIMl02KVtDSDJdYyhjNjcpW2NIXVtjSF1jKFtPSF0pYzdbQ0gzXQ==

>  <s_glide_docking_method>  (1) 
confgen

>  <s_i_glide_gridfile>  (1) 
gpcr_5ht2c_6bqh_protein_autoprepared_prepared

>  <s_lp_Force_Field>  (1) 
S-OPLS

>  <s_lp_Variant>  (1) 
DiffSBDD_26_num_sample_50-1

>  <s_m_source_file>  (1) 
generated__ligand_DiffSBDD_2026-05-06_prepared.sdf

>  <GenAI_Model>  (1) 
DiffSBDD

>  <Protein>  (1) 
GPCR_5HT2C

$$$$
DiffSBDD_4_num_sample_50
     RDKit          3D

  0  0  0  0  0  0  0  0  0  0999 V3000
M  V30 BEGIN CTAB
M  V30 COUNTS 73 75 0 0 1
M  V30 BEGIN ATOM
M  V30 1 C 38.413945 29.048919 53.345700 0
M  V30 2 C 39.938377 32.885412 61.902219 0
M  V30 3 C 38.465021 34.311593 60.670984 0
M  V30 4 N 39.434199 30.823785 61.229310 0
M  V30 5 C 37.282250 24.079516 55.525015 0
M  V30 6 C 39.024863 35.450288 61.305150 0
M  V30 7 C 40.260728 31.501708 62.060081 0
M  V30 8 N 39.894767 26.597420 56.468172 0
M  V30 9 C 40.938412 29.178746 59.053515 0
M  V30 10 C 37.989052 27.074639 54.978975 0
M  V30 11 O 38.736695 28.121527 57.695417 0
M  V30 12 C 39.369425 29.365192 61.117825 0
M  V30 13 F 40.003258 30.097861 50.122993 0
M  V30 14 C 39.190598 27.632305 51.507104 0
M  V30 15 C 38.461292 31.706147 60.407885 0
M  V30 16 C 39.868570 30.069593 51.448513 0
M  V30 17 N 38.777361 26.821444 52.653551 0 CHG=1
M  V30 18 C 40.534042 33.976870 62.581503 0
M  V30 19 C 41.113645 28.056752 58.010437 0
M  V30 20 C 38.830616 27.668985 53.844156 0 CFG=1
M  V30 21 C 38.960429 33.044426 61.004751 0
M  V30 22 O 37.464166 34.445662 59.754377 0
M  V30 23 C 40.065417 35.285799 62.266740 0
M  V30 24 C 38.778487 29.057045 51.848892 0 CFG=2
M  V30 25 C 37.968875 25.034975 56.526697 0
M  V30 26 C 39.801680 27.592429 57.376897 0
M  V30 27 N 38.738015 26.090699 55.804599 0
M  V30 28 C 38.877475 24.200045 57.440711 0
M  V30 29 C 41.641361 33.766574 63.621941 0
M  V30 30 N 41.932488 34.961740 64.442265 0 CHG=1
M  V30 31 F 39.600180 31.296151 51.888889 0
M  V30 32 C 40.598307 28.692043 60.476640 0
M  V30 33 C 36.893346 25.624834 57.438921 0
M  V30 34 O 41.119946 31.042539 62.811887 0
M  V30 35 H 37.338343 29.186487 53.465128 0
M  V30 36 H 38.903483 29.844670 53.908556 0
M  V30 37 H 36.508437 24.573647 54.937042 0
M  V30 38 H 37.998488 23.651854 54.824583 0
M  V30 39 H 36.789720 23.251153 56.036752 0
M  V30 40 H 38.663631 36.438481 61.062915 0
M  V30 41 H 37.208819 35.336677 59.572001 0
M  V30 42 H 40.788222 26.181240 56.242040 0
M  V30 43 H 40.188315 29.889377 58.708523 0
M  V30 44 H 41.867398 29.736377 59.082863 0
M  V30 45 H 37.099842 26.608830 54.557596 0
M  V30 46 H 37.609457 27.873501 55.613297 0
M  V30 47 H 39.204250 28.947571 62.111929 0
M  V30 48 H 38.487575 29.107952 60.530925 0
M  V30 49 H 38.742267 27.271719 50.580929 0
M  V30 50 H 40.267376 27.591362 51.393593 0
M  V30 51 H 37.414757 31.513717 60.646107 0
M  V30 52 H 38.637916 31.646093 59.333074 0
M  V30 53 H 40.840150 29.798008 51.853473 0
M  V30 54 H 39.351745 25.998664 52.760535 0
M  V30 55 H 41.741456 28.421368 57.197558 0
M  V30 56 H 41.642926 27.208117 58.444719 0
M  V30 57 H 39.867406 27.734263 54.155152 0
M  V30 58 H 40.489030 36.152484 62.750223 0
M  V30 59 H 37.867308 29.221467 51.293452 0
M  V30 60 H 39.238472 24.822183 58.253515 0
M  V30 61 H 38.346337 23.350436 57.868265 0
M  V30 62 H 39.760166 23.837601 56.930108 0
M  V30 63 H 41.335486 32.991445 64.324955 0
M  V30 64 H 42.552199 33.426987 63.127711 0
M  V30 65 H 42.650582 34.745025 65.118277 0
M  V30 66 H 42.249301 35.721564 63.856778 0
M  V30 67 H 41.467213 28.804640 61.124860 0
M  V30 68 H 40.401616 27.621365 60.452020 0
M  V30 69 H 36.267416 26.303129 56.881651 0
M  V30 70 H 36.267504 24.856520 57.886760 0
M  V30 71 H 37.331871 26.190151 58.253488 0
M  V30 72 H 37.816442 26.543610 52.499194 0
M  V30 73 H 41.097300 35.252000 64.931094 0
M  V30 END ATOM
M  V30 BEGIN BOND
M  V30 1 1 6 3
M  V30 2 1 7 2
M  V30 3 1 7 4
M  V30 4 1 12 4
M  V30 5 1 15 4
M  V30 6 1 16 13
M  V30 7 1 17 14
M  V30 8 2 18 2
M  V30 9 1 19 9
M  V30 10 1 20 1
M  V30 11 1 20 10
M  V30 12 1 20 17
M  V30 13 1 21 2
M  V30 14 2 21 3
M  V30 15 1 21 15
M  V30 16 1 22 3
M  V30 17 2 23 6
M  V30 18 1 23 18
M  V30 19 1 24 1
M  V30 20 1 24 14
M  V30 21 1 24 16
M  V30 22 1 25 5
M  V30 23 1 26 8
M  V30 24 2 26 11
M  V30 25 1 26 19
M  V30 26 1 27 8
M  V30 27 1 27 10
M  V30 28 1 27 25
M  V30 29 1 28 25
M  V30 30 1 29 18
M  V30 31 1 30 29
M  V30 32 1 31 16
M  V30 33 1 32 9
M  V30 34 1 32 12
M  V30 35 1 33 25
M  V30 36 2 34 7
M  V30 37 1 35 1
M  V30 38 1 36 1
M  V30 39 1 37 5
M  V30 40 1 38 5
M  V30 41 1 39 5
M  V30 42 1 40 6
M  V30 43 1 41 22
M  V30 44 1 42 8
M  V30 45 1 43 9
M  V30 46 1 44 9
M  V30 47 1 45 10
M  V30 48 1 46 10
M  V30 49 1 47 12
M  V30 50 1 48 12
M  V30 51 1 49 14
M  V30 52 1 50 14
M  V30 53 1 51 15
M  V30 54 1 52 15
M  V30 55 1 53 16
M  V30 56 1 54 17
M  V30 57 1 55 19
M  V30 58 1 56 19
M  V30 59 1 20 57 CFG=1
M  V30 60 1 58 23
M  V30 61 1 24 59 CFG=3
M  V30 62 1 60 28
M  V30 63 1 61 28
M  V30 64 1 62 28
M  V30 65 1 63 29
M  V30 66 1 64 29
M  V30 67 1 65 30
M  V30 68 1 66 30
M  V30 69 1 67 32
M  V30 70 1 68 32
M  V30 71 1 69 33
M  V30 72 1 70 33
M  V30 73 1 71 33
M  V30 74 1 72 17
M  V30 75 1 73 30
M  V30 END BOND
M  V30 END CTAB
M  END
>  <i_epik_Tot_Q>  (1) 
2

>  <i_epik_Tot_abs_Q>  (1) 
2

>  <i_i_glide_confnum>  (1) 
1260

>  <i_i_glide_lignum>  (1) 
12

>  <i_i_glide_posenum>  (1) 
252

>  <i_i_glide_rotatable_bonds>  (1) 
13

>  <i_lp_mmshare_version>  (1) 
72125

>  <i_m_source_file_index>  (1) 
5

>  <i_f3d_flags>  (1) 
0

>  <num_sample>  (1) 
50

>  <b_lp_Chiralities_Consistent>  (1) 
1

>  <r_epik_Charging_Adjusted_Penalty>  (1) 
0.15324589145217746

>  <r_epik_Ionization_Penalty>  (1) 
0.11737889030673737

>  <r_epik_Ionization_Penalty_Charging>  (1) 
0.07766807882096001

>  <r_epik_Ionization_Penalty_Neutral>  (1) 
0.039710811485777361

>  <r_epik_State_Penalty>  (1) 
0.075577812631217448

>  <r_glide_ring_energy>  (1) 
0

>  <r_i_docking_score>  (1) 
-8.7770429653379427

>  <r_i_glide_ecoul>  (1) 
-2.594120032680781

>  <r_i_glide_eff_state_penalty>  (1) 
0.075577812631217448

>  <r_i_glide_einternal>  (1) 
14.608658561979039

>  <r_i_glide_emodel>  (1) 
-73.000497522452122

>  <r_i_glide_emodel_strain>  (1) 
0.1166083954666135

>  <r_i_glide_energy>  (1) 
-46.509483051028766

>  <r_i_glide_erotb>  (1) 
0.78126008755577614

>  <r_i_glide_esite>  (1) 
0

>  <r_i_glide_evdw>  (1) 
-43.915363018347989

>  <r_i_glide_gscore>  (1) 
-8.852620777969161

>  <r_i_glide_gscore_strain>  (1) 
0

>  <r_i_glide_hbond>  (1) 
0

>  <r_i_glide_ligand_efficiency>  (1) 
-0.25814832250993947

>  <r_i_glide_ligand_efficiency_ln>  (1) 
-1.9390949787593956

>  <r_i_glide_ligand_efficiency_sa>  (1) 
-0.83630035208318587

>  <r_i_glide_lipo>  (1) 
-5.019336736832142

>  <r_i_glide_metal>  (1) 
-0

>  <r_i_glide_rewards>  (1) 
-2.0296579728732791

>  <r_lp_Energy>  (1) 
24.236581999999999

>  <r_lp_tautomer_probability>  (1) 
0.99999999999736477

>  <s_epik_cmdline>  (1) 
J2VwaWtfcHl0aG9uJywgJy1waHQnLCAnMS4wJywgJy1waCcsICc3LjQnLCAnLXRuJywgJzgnLCAnLW1hJywgJzUwMCcsICctaW1hZScsICc8aW5maWxlLm1hZT4nLCAnLW9tYWUnLCAnPG91dGZpbGUubWFlPic=

>  <s_epik_input>  (1) 
RltDSF0oRilbQ0BASF0oW0NIMl1bTkhdMSlbQ0gyXVtDQEhdMVtDSDJdTihDKFtDSDNdKShbQ0gzXSlbQ0gzXSlbTkhdQyg9TylbQ0gyXVtDSDJdW0NIMl1bQ0gyXU4oQzI9TylbQ0gyXUMoPUMyMylDKD1PKVtDSDJdW0NIXT1DM1tDSDJdW05IMl0=

>  <s_glide_docking_method>  (1) 
confgen

>  <s_i_glide_gridfile>  (1) 
gpcr_5ht2c_6bqh_protein_autoprepared_prepared

>  <s_lp_Force_Field>  (1) 
S-OPLS

>  <s_lp_Variant>  (1) 
DiffSBDD_4_num_sample_50-1

>  <s_m_source_file>  (1) 
generated__ligand_DiffSBDD_2026-05-06_prepared.sdf

>  <GenAI_Model>  (1) 
DiffSBDD

>  <Protein>  (1) 
GPCR_5HT2C

$$$$
DiffSBDD_26_num_sample_50
     RDKit          3D

  0  0  0  0  0  0  0  0  0  0999 V3000
M  V30 BEGIN CTAB
M  V30 COUNTS 96 102 0 0 1
M  V30 BEGIN ATOM
M  V30 1 C 39.419605 35.474549 62.020044 0
M  V30 2 N 40.268760 35.960605 64.368309 0
M  V30 3 C 38.946317 27.953453 51.999875 0
M  V30 4 C 38.980929 26.320690 58.059353 0
M  V30 5 N 38.707223 37.170501 65.230966 0 CHG=1
M  V30 6 N 38.726316 31.109764 59.035706 0
M  V30 7 C 36.282699 32.353643 59.891251 0
M  V30 8 C 37.686028 33.714066 61.332123 0
M  V30 9 C 37.469260 28.136889 53.928193 0
M  V30 10 C 39.306072 36.095963 63.380872 0
M  V30 11 C 37.867229 32.005203 56.989114 0
M  V30 12 C 40.181359 33.152097 61.299878 0
M  V30 13 O 37.584937 25.272746 55.657509 0
M  V30 14 C 39.494216 29.902766 58.758321 0
M  V30 15 N 38.342929 31.266867 55.806542 0 CFG=1 CHG=1
M  V30 16 C 39.867666 36.590400 65.478411 0
M  V30 17 S 41.302134 27.642404 58.200742 0
M  V30 18 C 40.754148 27.180366 56.546164 0
M  V30 19 C 38.526350 31.523756 60.440869 0 CFG=1
M  V30 20 N 40.524815 36.628975 66.644310 0
M  V30 21 C 37.964260 27.404210 52.841580 0
M  V30 22 C 39.483875 31.387726 53.643545 0
M  V30 23 C 38.311840 36.882271 63.942889 0
M  V30 24 C 40.503688 29.836514 51.319295 0
M  V30 25 C 38.951760 29.991911 53.355065 0
M  V30 26 C 40.405453 36.028247 61.028994 0
M  V30 27 C 38.853927 28.603076 59.263628 0
M  V30 28 C 38.977627 25.530815 55.642886 0
M  V30 29 C 39.293174 26.690471 56.606939 0 CFG=1
M  V30 30 C 38.968839 36.393620 60.891125 0
M  V30 31 C 38.940886 32.174885 58.035798 0
M  V30 32 C 39.446025 29.247724 52.248529 0
M  V30 33 O 36.799881 34.563301 61.452771 0
M  V30 34 C 37.403407 30.213747 55.368912 0
M  V30 35 C 35.632038 30.988628 59.775594 0
M  V30 36 O 39.416368 27.230301 50.942326 0
M  V30 37 C 39.817192 31.697173 61.268780 0
M  V30 38 C 35.032843 32.067419 60.643971 0
M  V30 39 C 39.682769 27.329632 58.955208 0 CFG=1
M  V30 40 C 41.546039 35.236358 64.286582 0
M  V30 41 C 39.075205 33.958816 61.986487 0 CFG=1
M  V30 42 N 37.491768 32.568386 60.617912 0
M  V30 43 C 38.687342 32.161680 54.691453 0
M  V30 44 C 37.955775 29.427249 54.191432 0
M  V30 45 H 39.376912 25.328363 58.274412 0
M  V30 46 H 37.910344 26.271724 58.251977 0
M  V30 47 H 36.164922 32.999023 59.023598 0
M  V30 48 H 36.713976 27.703708 54.565515 0
M  V30 49 H 37.458166 32.974148 56.707038 0
M  V30 50 H 37.074196 31.426595 57.453970 0
M  V30 51 H 40.266259 33.444880 60.259164 0
M  V30 52 H 41.142413 33.306001 61.789629 0
M  V30 53 H 37.397401 24.539810 55.090376 0
M  V30 54 H 39.604424 29.810090 57.677725 0
M  V30 55 H 40.497550 29.993984 59.167599 0
M  V30 56 H 40.873452 28.012218 55.851264 0
M  V30 57 H 41.444846 26.406509 56.248361 0
M  V30 58 H 38.070858 30.655806 60.911544 0
M  V30 59 H 41.411091 36.162509 66.778618 0
M  V30 60 H 40.166519 37.114532 67.454632 0
M  V30 61 H 37.588110 26.418198 52.655171 0
M  V30 62 H 40.523634 31.280020 53.960911 0
M  V30 63 H 39.466041 31.989058 52.732221 0
M  V30 64 H 37.377924 37.239933 63.529114 0
M  V30 65 H 40.873983 30.820496 51.593253 0
M  V30 66 H 41.361246 29.167735 51.247461 0
M  V30 67 H 40.082118 29.924340 50.317377 0
M  V30 68 H 41.089049 36.808154 61.361938 0
M  V30 69 H 40.716540 35.453933 60.178863 0
M  V30 70 H 38.733402 28.651898 60.346485 0
M  V30 71 H 37.845712 28.520679 58.853314 0
M  V30 72 H 39.293454 25.776873 54.628564 0
M  V30 73 H 39.510080 24.625457 55.933831 0
M  V30 74 H 38.674242 27.545665 56.343911 0
M  V30 75 H 38.464306 35.977308 60.024233 0
M  V30 76 H 38.675922 37.412922 61.130641 0
M  V30 77 H 39.866659 32.145684 57.455267 0
M  V30 78 H 38.860527 33.162512 58.493760 0
M  V30 79 H 36.449130 30.658933 55.077604 0
M  V30 80 H 37.210549 29.534226 56.203310 0
M  V30 81 H 35.110051 30.749012 58.853821 0
M  V30 82 H 36.072763 30.126375 60.262079 0
M  V30 83 H 38.936804 26.429806 50.786186 0
M  V30 84 H 39.644733 31.355036 62.289178 0
M  V30 85 H 40.653012 31.103038 60.909881 0
M  V30 86 H 35.092539 31.958599 61.724283 0
M  V30 87 H 34.190610 32.630770 60.256243 0
M  V30 88 H 39.864452 26.824551 59.885459 0
M  V30 89 H 41.448327 34.259813 64.762574 0
M  V30 90 H 41.844415 35.117255 63.245130 0
M  V30 91 H 42.324210 35.818060 64.787567 0
M  V30 92 H 39.037637 33.601818 63.017649 0
M  V30 93 H 39.285445 32.996450 55.059056 0
M  V30 94 H 37.775113 32.580338 54.257838 0
M  V30 95 H 38.182228 37.720660 65.899424 0
M  V30 96 H 39.186750 30.792589 56.087232 0
M  V30 END ATOM
M  V30 BEGIN BOND
M  V30 1 1 10 1
M  V30 2 1 10 2
M  V30 3 1 14 6
M  V30 4 1 15 11
M  V30 5 1 16 2
M  V30 6 2 16 5
M  V30 7 1 18 17
M  V30 8 1 19 6
M  V30 9 1 20 16
M  V30 10 1 21 3
M  V30 11 2 21 9
M  V30 12 1 23 5
M  V30 13 2 23 10
M  V30 14 1 25 22
M  V30 15 1 26 1
M  V30 16 1 27 14
M  V30 17 1 28 13
M  V30 18 1 29 4
M  V30 19 1 29 18
M  V30 20 1 29 28
M  V30 21 1 30 1
M  V30 22 1 30 26
M  V30 23 1 31 6
M  V30 24 1 31 11
M  V30 25 2 32 3
M  V30 26 1 32 24
M  V30 27 1 32 25
M  V30 28 2 33 8
M  V30 29 1 34 15
M  V30 30 1 35 7
M  V30 31 1 36 3
M  V30 32 1 37 12
M  V30 33 1 37 19
M  V30 34 1 38 7
M  V30 35 1 38 35
M  V30 36 1 39 4
M  V30 37 1 39 17
M  V30 38 1 39 27
M  V30 39 1 40 2
M  V30 40 1 41 1
M  V30 41 1 41 8
M  V30 42 1 41 12
M  V30 43 1 42 7
M  V30 44 1 42 8
M  V30 45 1 42 19
M  V30 46 1 43 15
M  V30 47 1 43 22
M  V30 48 1 44 9
M  V30 49 2 44 25
M  V30 50 1 44 34
M  V30 51 1 45 4
M  V30 52 1 46 4
M  V30 53 1 47 7
M  V30 54 1 48 9
M  V30 55 1 49 11
M  V30 56 1 50 11
M  V30 57 1 51 12
M  V30 58 1 52 12
M  V30 59 1 53 13
M  V30 60 1 54 14
M  V30 61 1 55 14
M  V30 62 1 56 18
M  V30 63 1 57 18
M  V30 64 1 19 58 CFG=1
M  V30 65 1 59 20
M  V30 66 1 60 20
M  V30 67 1 61 21
M  V30 68 1 62 22
M  V30 69 1 63 22
M  V30 70 1 64 23
M  V30 71 1 65 24
M  V30 72 1 66 24
M  V30 73 1 67 24
M  V30 74 1 68 26
M  V30 75 1 69 26
M  V30 76 1 70 27
M  V30 77 1 71 27
M  V30 78 1 72 28
M  V30 79 1 73 28
M  V30 80 1 29 74 CFG=3
M  V30 81 1 75 30
M  V30 82 1 76 30
M  V30 83 1 77 31
M  V30 84 1 78 31
M  V30 85 1 79 34
M  V30 86 1 80 34
M  V30 87 1 81 35
M  V30 88 1 82 35
M  V30 89 1 83 36
M  V30 90 1 84 37
M  V30 91 1 85 37
M  V30 92 1 86 38
M  V30 93 1 87 38
M  V30 94 1 39 88 CFG=1
M  V30 95 1 89 40
M  V30 96 1 90 40
M  V30 97 1 91 40
M  V30 98 1 41 92 CFG=1
M  V30 99 1 93 43
M  V30 100 1 94 43
M  V30 101 1 95 5
M  V30 102 1 15 96 CFG=1
M  V30 END BOND
M  V30 END CTAB
M  END
>  <i_epik_Tot_Q>  (1) 
2

>  <i_epik_Tot_abs_Q>  (1) 
2

>  <i_i_glide_confnum>  (1) 
1446

>  <i_i_glide_lignum>  (1) 
69

>  <i_i_glide_posenum>  (1) 
45

>  <i_i_glide_rotatable_bonds>  (1) 
13

>  <i_lp_mmshare_version>  (1) 
72125

>  <i_m_source_file_index>  (1) 
27

>  <i_f3d_flags>  (1) 
0

>  <num_sample>  (1) 
50

>  <b_lp_Chiralities_Consistent>  (1) 
1

>  <r_epik_Charging_Adjusted_Penalty>  (1) 
0.023035094209541071

>  <r_epik_Ionization_Penalty>  (1) 
0.04084289902745275

>  <r_epik_Ionization_Penalty_Charging>  (1) 
0.023035094209541071

>  <r_epik_Ionization_Penalty_Neutral>  (1) 
0.017807804817911676

>  <r_epik_State_Penalty>  (1) 
-0

>  <r_glide_ring_energy>  (1) 
0

>  <r_i_docking_score>  (1) 
-8.7696280571822562

>  <r_i_glide_ecoul>  (1) 
-2.1144407679195627

>  <r_i_glide_eff_state_penalty>  (1) 
-0

>  <r_i_glide_einternal>  (1) 
13.917231318738814

>  <r_i_glide_emodel>  (1) 
-60.18725009094593

>  <r_i_glide_emodel_strain>  (1) 
3.0767006120020852

>  <r_i_glide_energy>  (1) 
-46.177384693659974

>  <r_i_glide_erotb>  (1) 
0.45984128746928787

>  <r_i_glide_esite>  (1) 
-0.11223105781965291

>  <r_i_glide_evdw>  (1) 
-44.062943925740413

>  <r_i_glide_gscore>  (1) 
-8.7696280571822562

>  <r_i_glide_gscore_strain>  (1) 
0

>  <r_i_glide_hbond>  (1) 
-0.015525083617468358

>  <r_i_glide_ligand_efficiency>  (1) 
-0.19930972857232401

>  <r_i_glide_ligand_efficiency_ln>  (1) 
-1.8330435723133978

>  <r_i_glide_ligand_efficiency_sa>  (1) 
-0.70363276847959366

>  <r_i_glide_lipo>  (1) 
-5.480731010112164

>  <r_i_glide_metal>  (1) 
-0

>  <r_i_glide_rewards>  (1) 
-1.1006688816273036

>  <r_lp_Energy>  (1) 
46.785410999999996

>  <r_lp_tautomer_probability>  (1) 
1

>  <s_epik_Chemistry_Notes>  (1) 
This compound contains an acetal/aminal-like group ( X-CH(R)-Y where X, Y are N, S, or O) that may be acid/base labile, releasing an aldehyde.

>  <s_epik_cmdline>  (1) 
J2VwaWtfcHl0aG9uJywgJy1waHQnLCAnMS4wJywgJy1waCcsICc3LjQnLCAnLXRuJywgJzgnLCAnLW1hJywgJzUwMCcsICctaW1hZScsICc8aW5maWxlLm1hZT4nLCAnLW9tYWUnLCAnPG91dGZpbGUubWFlPic=

>  <s_epik_input>  (1) 
W05IMl1jMW5bY0hdYyhuMVtDSDNdKUMyKFtDSDJdW0NIMl0yKVtDQEBIXShDMz1PKVtDSDJdW0NIMl1bQ0BASF0oTjNbQ0hdNFtDSDJdW0NIMl00KU4oW0NIMl1bQ0gyXVtDQEhdKFNbQ0gyXTUpW0NIMl1bQ0BASF01W0NIMl1bT0hdKVtDSDJdW0NIMl1OKFtDSDJdW0NIMl02KVtDSDJdYyhjNjcpW2NIXVtjSF1jKFtPSF0pYzdbQ0gzXQ==

>  <s_glide_docking_method>  (1) 
confgen

>  <s_i_glide_gridfile>  (1) 
gpcr_5ht2c_6bqh_protein_autoprepared_prepared

>  <s_lp_Force_Field>  (1) 
S-OPLS

>  <s_lp_Variant>  (1) 
DiffSBDD_26_num_sample_50-2

>  <s_m_source_file>  (1) 
generated__ligand_DiffSBDD_2026-05-06_prepared.sdf

>  <GenAI_Model>  (1) 
DiffSBDD

>  <Protein>  (1) 
GPCR_5HT2C

$$$$
DiffSBDD_41_num_sample_50
     RDKit          3D

  0  0  0  0  0  0  0  0  0  0999 V3000
M  V30 BEGIN CTAB
M  V30 COUNTS 83 87 0 0 1
M  V30 BEGIN ATOM
M  V30 1 C 38.422467 28.888703 56.765431 0
M  V30 2 C 38.375793 27.725037 57.761796 0 CFG=2
M  V30 3 C 41.320045 32.006009 64.459060 0
M  V30 4 C 45.532493 32.061722 67.895900 0
M  V30 5 C 38.617616 26.098854 55.776812 0 CFG=1
M  V30 6 O 39.867382 25.507616 56.061653 0
M  V30 7 O 39.064528 27.049625 53.625596 0
M  V30 8 C 40.297123 34.945853 69.238259 0
M  V30 9 C 40.948825 27.837802 57.909663 0
M  V30 10 C 41.133023 34.435821 64.239960 0
M  V30 11 C 41.067383 28.246359 65.360417 0
M  V30 12 C 40.964762 28.297257 62.301590 0
M  V30 13 C 39.679696 27.597004 58.634635 0 CFG=1
M  V30 14 C 40.026481 36.073496 66.942829 0
M  V30 15 F 40.427245 35.220302 70.536230 0
M  V30 16 O 41.447420 30.654697 62.453031 0
M  V30 17 C 41.442005 30.767593 65.346595 0 CFG=2
M  V30 18 C 40.956645 28.433773 60.765088 0
M  V30 19 C 41.149883 34.307025 62.838395 0
M  V30 20 C 37.880512 26.437564 57.067391 0 CFG=1
M  V30 21 O 37.881065 25.289115 57.888119 0
M  V30 22 F 39.182931 34.244082 69.053480 0
M  V30 23 C 43.749166 29.923707 65.990327 0 CFG=1
M  V30 24 C 40.890218 29.569114 63.176567 0 CFG=2
M  V30 25 C 41.344284 35.904544 66.177335 0
M  V30 26 N 41.074720 28.190498 66.624267 0
M  V30 27 F 41.332771 34.202235 68.851279 0
M  V30 28 O 45.467360 30.707799 67.486110 0
M  V30 29 C 38.634033 28.660212 55.369027 0
M  V30 30 C 41.338986 31.885176 63.047894 0
M  V30 31 C 42.625669 30.911090 66.341268 0
M  V30 32 C 38.312155 31.295080 56.341129 0
M  V30 33 C 41.206242 33.278228 65.050859 0
M  V30 34 O 41.048195 35.691951 64.798663 0
M  V30 35 C 41.613449 29.442424 64.557406 0 CFG=2
M  V30 36 S 43.414169 29.308347 64.327313 0
M  V30 37 C 38.529424 31.071894 54.970700 0
M  V30 38 C 42.055647 28.021446 57.429523 0
M  V30 39 C 38.799638 27.273114 54.807508 0
M  V30 40 C 45.154338 30.519990 66.112993 0
M  V30 41 C 39.604532 28.338935 60.010865 0
M  V30 42 C 40.202634 36.265508 68.456224 0
M  V30 43 C 41.252223 33.035859 62.245058 0
M  V30 44 C 38.259784 30.210444 57.235942 0
M  V30 45 C 38.690186 29.761976 54.484508 0
M  V30 46 H 37.577849 27.987775 58.454579 0
M  V30 47 H 45.833842 32.098682 68.942574 0
M  V30 48 H 46.267404 32.615098 67.312227 0
M  V30 49 H 44.570652 32.564635 67.808857 0
M  V30 50 H 38.034119 25.345370 55.245912 0
M  V30 51 H 40.271076 25.257214 55.243858 0
M  V30 52 H 40.664137 27.430234 64.757825 0
M  V30 53 H 40.169225 27.621428 62.598635 0
M  V30 54 H 41.895885 27.791633 62.555132 0
M  V30 55 H 39.776548 26.551233 58.923821 0
M  V30 56 H 39.511160 36.944422 66.536185 0
M  V30 57 H 39.371931 35.224948 66.753478 0
M  V30 58 H 40.504796 30.747902 65.906648 0
M  V30 59 H 41.596050 27.621432 60.430905 0
M  V30 60 H 41.467391 29.331230 60.431850 0
M  V30 61 H 41.089660 35.187865 62.216480 0
M  V30 62 H 36.835055 26.587173 56.806679 0
M  V30 63 H 38.760069 24.936159 57.847471 0
M  V30 64 H 43.684231 29.061056 66.654669 0
M  V30 65 H 39.834311 29.795531 63.335539 0
M  V30 66 H 42.008674 35.162848 66.615499 0
M  V30 67 H 41.920077 36.821435 66.253517 0
M  V30 68 H 40.672967 27.343169 67.000727 0
M  V30 69 H 43.009733 31.928846 66.351438 0
M  V30 70 H 42.288223 30.713345 67.358938 0
M  V30 71 H 38.182611 32.302538 56.708233 0
M  V30 72 H 41.184862 33.360928 66.124983 0
M  V30 73 H 38.568333 31.908572 54.288525 0
M  V30 74 H 43.040566 28.178011 57.053510 0
M  V30 75 H 45.867419 29.805805 65.704872 0
M  V30 76 H 45.259629 31.432351 65.523247 0
M  V30 77 H 39.228376 29.351949 59.878562 0
M  V30 78 H 38.864680 27.838077 60.634043 0
M  V30 79 H 41.067336 36.896269 68.658613 0
M  V30 80 H 39.342884 36.821147 68.832137 0
M  V30 81 H 41.266982 32.942685 61.169894 0
M  V30 82 H 38.092609 30.392471 58.285813 0
M  V30 83 H 38.851703 29.599662 53.428272 0
M  V30 END ATOM
M  V30 BEGIN BOND
M  V30 1 1 2 1
M  V30 2 1 6 5
M  V30 3 1 13 2
M  V30 4 1 13 9
M  V30 5 1 15 8
M  V30 6 1 17 3
M  V30 7 1 18 12
M  V30 8 1 19 10
M  V30 9 1 20 2
M  V30 10 1 20 5
M  V30 11 1 21 20
M  V30 12 1 22 8
M  V30 13 1 24 12
M  V30 14 1 24 16
M  V30 15 1 25 14
M  V30 16 2 26 11
M  V30 17 1 27 8
M  V30 18 1 28 4
M  V30 19 1 29 1
M  V30 20 2 30 3
M  V30 21 1 30 16
M  V30 22 1 31 17
M  V30 23 1 31 23
M  V30 24 1 33 3
M  V30 25 2 33 10
M  V30 26 1 34 10
M  V30 27 1 34 25
M  V30 28 1 35 11 CFG=1
M  V30 29 1 35 17
M  V30 30 1 35 24
M  V30 31 1 36 23
M  V30 32 1 36 35
M  V30 33 2 37 32
M  V30 34 3 38 9
M  V30 35 1 39 5
M  V30 36 2 39 7
M  V30 37 1 39 29
M  V30 38 1 40 23
M  V30 39 1 40 28
M  V30 40 1 41 13
M  V30 41 1 41 18
M  V30 42 1 42 8
M  V30 43 1 42 14
M  V30 44 2 43 19
M  V30 45 1 43 30
M  V30 46 2 44 1
M  V30 47 1 44 32
M  V30 48 2 45 29
M  V30 49 1 45 37
M  V30 50 1 2 46 CFG=1
M  V30 51 1 47 4
M  V30 52 1 48 4
M  V30 53 1 49 4
M  V30 54 1 5 50 CFG=3
M  V30 55 1 51 6
M  V30 56 1 52 11
M  V30 57 1 53 12
M  V30 58 1 54 12
M  V30 59 1 13 55 CFG=1
M  V30 60 1 56 14
M  V30 61 1 57 14
M  V30 62 1 17 58 CFG=1
M  V30 63 1 59 18
M  V30 64 1 60 18
M  V30 65 1 61 19
M  V30 66 1 20 62 CFG=3
M  V30 67 1 63 21
M  V30 68 1 23 64 CFG=1
M  V30 69 1 24 65 CFG=1
M  V30 70 1 66 25
M  V30 71 1 67 25
M  V30 72 1 68 26
M  V30 73 1 69 31
M  V30 74 1 70 31
M  V30 75 1 71 32
M  V30 76 1 72 33
M  V30 77 1 73 37
M  V30 78 1 74 38
M  V30 79 1 75 40
M  V30 80 1 76 40
M  V30 81 1 77 41
M  V30 82 1 78 41
M  V30 83 1 79 42
M  V30 84 1 80 42
M  V30 85 1 81 43
M  V30 86 1 82 44
M  V30 87 1 83 45
M  V30 END BOND
M  V30 END CTAB
M  END
>  <i_epik_Tot_Q>  (1) 
0

>  <i_epik_Tot_abs_Q>  (1) 
0

>  <i_i_glide_confnum>  (1) 
3629

>  <i_i_glide_lignum>  (1) 
97

>  <i_i_glide_posenum>  (1) 
67

>  <i_i_glide_rotatable_bonds>  (1) 
16

>  <i_lp_mmshare_version>  (1) 
72125

>  <i_m_source_file_index>  (1) 
42

>  <i_f3d_flags>  (1) 
0

>  <num_sample>  (1) 
50

>  <b_lp_Chiralities_Consistent>  (1) 
1

>  <r_epik_Charging_Adjusted_Penalty>  (1) 
0.41067983895260396

>  <r_epik_Ionization_Penalty>  (1) 
0.0048607436090088536

>  <r_epik_Ionization_Penalty_Charging>  (1) 
0

>  <r_epik_Ionization_Penalty_Neutral>  (1) 
0.0048607436090088536

>  <r_epik_State_Penalty>  (1) 
0.41067983895260396

>  <r_glide_ring_energy>  (1) 
0.56107915077030179

>  <r_i_docking_score>  (1) 
-8.7181440491603261

>  <r_i_glide_ecoul>  (1) 
-2.2883867104953932

>  <r_i_glide_eff_state_penalty>  (1) 
0.41067983895260396

>  <r_i_glide_einternal>  (1) 
26.653936588191762

>  <r_i_glide_emodel>  (1) 
-74.728031775860785

>  <r_i_glide_emodel_strain>  (1) 
3.0262775131830466

>  <r_i_glide_energy>  (1) 
-62.487353108057761

>  <r_i_glide_erotb>  (1) 
0.41134081239429626

>  <r_i_glide_esite>  (1) 
0

>  <r_i_glide_evdw>  (1) 
-60.198966397562366

>  <r_i_glide_gscore>  (1) 
-9.1288238881129296

>  <r_i_glide_gscore_strain>  (1) 
0

>  <r_i_glide_hbond>  (1) 
-0.31678534768911415

>  <r_i_glide_ligand_efficiency>  (1) 
-0.19373653442578503

>  <r_i_glide_ligand_efficiency_ln>  (1) 
-1.8137624740065559

>  <r_i_glide_ligand_efficiency_sa>  (1) 
-0.68910018213418334

>  <r_i_glide_lipo>  (1) 
-4.7037732296509116

>  <r_i_glide_metal>  (1) 
-0

>  <r_i_glide_rewards>  (1) 
-1.1663997967147717

>  <r_lp_Energy>  (1) 
46.140012999999996

>  <r_lp_tautomer_probability>  (1) 
0.5

>  <s_epik_Chemistry_Notes>  (1) 
This compound has an imine and may undergo hydrolysis.

>  <s_epik_cmdline>  (1) 
J2VwaWtfcHl0aG9uJywgJy1waHQnLCAnMS4wJywgJy1waCcsICc3LjQnLCAnLXRuJywgJzgnLCAnLW1hJywgJzUwMCcsICctaW1hZScsICc8aW5maWxlLm1hZT4nLCAnLW9tYWUnLCAnPG91dGZpbGUubWFlPic=

>  <s_epik_input>  (1) 
W2NIXTFbY0hdW2NIXVtjSF1jKGMxMilDKD1PKVtDQEBIXShbT0hdKVtDQEBIXShbT0hdKVtDQEBIXTJbQ0BASF0oQyNbQ0hdKVtDSDJdW0NIMl1bQ0gyXVtDQEBIXTNPYyhjNFtDQEBIXShbQ0BAXTM1L1tDSF09Ti9bSF0pW0NIMl1bQ0BASF0oUzUpW0NIMl1PW0NIM10pW2NIXVtjSF1jKFtjSF00KU9bQ0gyXVtDSDJdW0NIMl1DKEYpKEYpRg==

>  <s_glide_docking_method>  (1) 
confgen

>  <s_i_glide_gridfile>  (1) 
gpcr_5ht2c_6bqh_protein_autoprepared_prepared

>  <s_lp_Force_Field>  (1) 
S-OPLS

>  <s_lp_Variant>  (1) 
DiffSBDD_41_num_sample_50-2

>  <s_m_source_file>  (1) 
generated__ligand_DiffSBDD_2026-05-06_prepared.sdf

>  <GenAI_Model>  (1) 
DiffSBDD

>  <Protein>  (1) 
GPCR_5HT2C

$$$$
DiffSBDD_29_num_sample_50
     RDKit          3D

  0  0  0  0  0  0  0  0  0  0999 V3000
M  V30 BEGIN CTAB
M  V30 COUNTS 79 81 0 0 1
M  V30 BEGIN ATOM
M  V30 1 C 39.867266 29.520752 51.513011 0
M  V30 2 C 37.206894 33.814682 58.674201 0
M  V30 3 C 39.867334 30.203841 52.892268 0
M  V30 4 C 40.576002 35.815378 62.569085 0
M  V30 5 C 39.758148 27.322011 58.084579 0
M  V30 6 C 38.147147 36.413146 61.958455 0
M  V30 7 C 38.052619 27.232592 55.093625 0 CFG=2
M  V30 8 N 37.711895 31.424310 59.097449 0 CHG=1
M  V30 9 C 39.265613 28.332726 57.113287 0 CFG=1
M  V30 10 N 38.033174 35.337523 61.287770 0
M  V30 11 C 37.937826 27.921230 56.443182 0
M  V30 12 C 38.092831 30.647863 57.894067 0 CFG=2
M  V30 13 O 39.414768 31.975985 61.152471 0
M  V30 14 O 39.175530 27.597889 54.280827 0
M  V30 15 C 39.737700 27.663421 59.341164 0
M  V30 16 C 39.064579 37.018167 64.213494 0
M  V30 17 C 40.267846 25.989814 57.563671 0
M  V30 18 C 37.629840 29.491127 53.853374 0
M  V30 19 C 39.148915 29.540184 58.183758 0 CFG=1
M  V30 20 C 40.061901 34.392900 62.365348 0
M  V30 21 C 40.286534 30.365537 50.310477 0
M  V30 22 F 39.467366 31.401229 50.153817 0
M  V30 23 O 35.036034 34.821444 58.677173 0
M  V30 24 O 39.867339 38.037848 62.253219 0
M  V30 25 C 39.193192 24.899653 57.452046 0
M  V30 26 C 38.204697 32.805057 59.292806 0 CFG=2
M  V30 27 F 41.521416 30.816377 50.486151 0
M  V30 28 C 39.219018 28.998519 59.679373 0
M  V30 29 C 35.787002 33.785003 59.260427 0
M  V30 30 C 38.510211 33.006806 60.799784 0 CFG=2
M  V30 31 C 38.482958 30.452923 53.453511 0
M  V30 32 F 40.267396 29.621385 49.207759 0
M  V30 33 C 39.130170 34.390013 61.130761 0 CFG=1
M  V30 34 O 39.552279 28.338550 51.382914 0
M  V30 35 C 37.894461 28.024481 53.815257 0 CFG=2
M  V30 36 C 39.405478 36.808032 62.731257 0 CFG=1
M  V30 37 C 38.500257 31.481434 56.663145 0
M  V30 38 H 37.132996 33.654909 57.600223 0
M  V30 39 H 37.600229 34.821349 58.770935 0
M  V30 40 H 40.389104 31.157831 52.820578 0
M  V30 41 H 40.398711 29.621470 53.632257 0
M  V30 42 H 41.177635 36.076876 61.697232 0
M  V30 43 H 41.253243 35.868327 63.422219 0
M  V30 44 H 37.326211 37.132763 62.025232 0
M  V30 45 H 37.760516 26.188386 55.037688 0
M  V30 46 H 38.042454 30.901134 59.897647 0
M  V30 47 H 40.033355 28.572626 56.376920 0
M  V30 48 H 37.329944 27.317510 57.117655 0
M  V30 49 H 37.373366 28.819055 56.245368 0
M  V30 50 H 37.134022 30.181462 57.689201 0
M  V30 51 H 39.653489 32.087580 62.062152 0
M  V30 52 H 40.084642 27.019925 60.124725 0
M  V30 53 H 38.896787 36.070845 64.716391 0
M  V30 54 H 39.867405 37.521978 64.748014 0
M  V30 55 H 38.167727 37.621439 64.339820 0
M  V30 56 H 40.761713 26.138082 56.602631 0
M  V30 57 H 41.035874 25.644471 58.253418 0
M  V30 58 H 36.667569 29.787785 54.237992 0
M  V30 59 H 40.118394 30.021400 58.080351 0
M  V30 60 H 39.533674 34.040279 63.250136 0
M  V30 61 H 40.917630 33.733741 62.218391 0
M  V30 62 H 35.446811 35.104049 57.867433 0
M  V30 63 H 40.155518 37.916054 61.361455 0
M  V30 64 H 39.648180 23.909559 57.453385 0
M  V30 65 H 38.475664 24.947853 58.268751 0
M  V30 66 H 38.635936 24.971058 56.526217 0
M  V30 67 H 39.164764 32.923525 58.794372 0
M  V30 68 H 39.916439 29.549614 60.309434 0
M  V30 69 H 38.249095 28.904568 60.164643 0
M  V30 70 H 35.785582 33.922005 60.341495 0
M  V30 71 H 35.289482 32.837901 59.053649 0
M  V30 72 H 37.612730 32.852039 61.400447 0
M  V30 73 H 38.181917 31.487930 53.528447 0
M  V30 74 H 39.737531 34.699414 60.277678 0
M  V30 75 H 37.517119 27.504394 52.935550 0
M  V30 76 H 38.881168 30.814948 55.901624 0
M  V30 77 H 37.661068 32.024905 56.229851 0
M  V30 78 H 39.319628 32.173514 56.844668 0
M  V30 79 H 36.702126 31.459729 59.119285 0
M  V30 END ATOM
M  V30 BEGIN BOND
M  V30 1 1 3 1
M  V30 2 1 9 5
M  V30 3 2 10 6
M  V30 4 1 11 7
M  V30 5 1 11 9
M  V30 6 1 12 8
M  V30 7 1 14 7
M  V30 8 2 15 5
M  V30 9 1 17 5
M  V30 10 1 19 9
M  V30 11 1 19 12
M  V30 12 1 20 4
M  V30 13 1 21 1
M  V30 14 1 22 21
M  V30 15 1 25 17
M  V30 16 1 26 2
M  V30 17 1 26 8
M  V30 18 1 27 21
M  V30 19 1 28 15
M  V30 20 1 28 19
M  V30 21 1 29 2
M  V30 22 1 29 23
M  V30 23 1 30 13
M  V30 24 1 30 26
M  V30 25 1 31 3
M  V30 26 2 31 18
M  V30 27 1 32 21
M  V30 28 1 33 10
M  V30 29 1 33 20
M  V30 30 1 33 30
M  V30 31 2 34 1
M  V30 32 1 35 7
M  V30 33 1 35 14
M  V30 34 1 35 18
M  V30 35 1 36 4
M  V30 36 1 36 6
M  V30 37 1 36 16
M  V30 38 1 36 24 CFG=3
M  V30 39 1 37 12
M  V30 40 1 38 2
M  V30 41 1 39 2
M  V30 42 1 40 3
M  V30 43 1 41 3
M  V30 44 1 42 4
M  V30 45 1 43 4
M  V30 46 1 44 6
M  V30 47 1 7 45 CFG=1
M  V30 48 1 46 8
M  V30 49 1 9 47 CFG=3
M  V30 50 1 48 11
M  V30 51 1 49 11
M  V30 52 1 12 50 CFG=3
M  V30 53 1 51 13
M  V30 54 1 52 15
M  V30 55 1 53 16
M  V30 56 1 54 16
M  V30 57 1 55 16
M  V30 58 1 56 17
M  V30 59 1 57 17
M  V30 60 1 58 18
M  V30 61 1 19 59 CFG=3
M  V30 62 1 60 20
M  V30 63 1 61 20
M  V30 64 1 62 23
M  V30 65 1 63 24
M  V30 66 1 64 25
M  V30 67 1 65 25
M  V30 68 1 66 25
M  V30 69 1 26 67 CFG=3
M  V30 70 1 68 28
M  V30 71 1 69 28
M  V30 72 1 70 29
M  V30 73 1 71 29
M  V30 74 1 30 72 CFG=1
M  V30 75 1 73 31
M  V30 76 1 33 74 CFG=3
M  V30 77 1 35 75 CFG=3
M  V30 78 1 76 37
M  V30 79 1 77 37
M  V30 80 1 78 37
M  V30 81 1 79 8
M  V30 END BOND
M  V30 END CTAB
M  END
>  <i_epik_Tot_Q>  (1) 
1

>  <i_epik_Tot_abs_Q>  (1) 
1

>  <i_i_glide_confnum>  (1) 
2141

>  <i_i_glide_lignum>  (1) 
74

>  <i_i_glide_posenum>  (1) 
208

>  <i_i_glide_rotatable_bonds>  (1) 
17

>  <i_lp_mmshare_version>  (1) 
72125

>  <i_m_source_file_index>  (1) 
30

>  <i_f3d_flags>  (1) 
0

>  <num_sample>  (1) 
50

>  <b_lp_Chiralities_Consistent>  (1) 
1

>  <r_epik_Charging_Adjusted_Penalty>  (1) 
0.073066720001252791

>  <r_epik_Ionization_Penalty>  (1) 
0.041882768558209021

>  <r_epik_Ionization_Penalty_Charging>  (1) 
0.011280877963412759

>  <r_epik_Ionization_Penalty_Neutral>  (1) 
0.030601890594796264

>  <r_epik_State_Penalty>  (1) 
0.061785842037840037

>  <r_glide_ring_energy>  (1) 
0

>  <r_i_docking_score>  (1) 
-8.7017714889731685

>  <r_i_glide_ecoul>  (1) 
-4.8038469775411796

>  <r_i_glide_eff_state_penalty>  (1) 
0.061785842037840037

>  <r_i_glide_einternal>  (1) 
6.413065659926378

>  <r_i_glide_emodel>  (1) 
-66.685710643505374

>  <r_i_glide_emodel_strain>  (1) 
3.3985828015173638

>  <r_i_glide_energy>  (1) 
-45.122910855369412

>  <r_i_glide_erotb>  (1) 
0.87550365807384167

>  <r_i_glide_esite>  (1) 
-0.063604019559245703

>  <r_i_glide_evdw>  (1) 
-40.319063877828235

>  <r_i_glide_gscore>  (1) 
-8.7635573310110093

>  <r_i_glide_gscore_strain>  (1) 
0

>  <r_i_glide_hbond>  (1) 
-0.32000000000000001

>  <r_i_glide_ligand_efficiency>  (1) 
-0.23518301321549104

>  <r_i_glide_ligand_efficiency_ln>  (1) 
-1.8872102374910773

>  <r_i_glide_ligand_efficiency_sa>  (1) 
-0.78368197577259835

>  <r_i_glide_lipo>  (1) 
-4.2431881383987982

>  <r_i_glide_metal>  (1) 
-0

>  <r_i_glide_rewards>  (1) 
-2.2757385906042193

>  <r_lp_Energy>  (1) 
35.125267000000001

>  <s_epik_Chemistry_Notes>  (1) 
This compound has an imine and may undergo hydrolysis.

>  <s_epik_cmdline>  (1) 
J2VwaWtfcHl0aG9uJywgJy1waHQnLCAnMS4wJywgJy1waCcsICc3LjQnLCAnLXRuJywgJzgnLCAnLW1hJywgJzUwMCcsICctaW1hZScsICc8aW5maWxlLm1hZT4nLCAnLW9tYWUnLCAnPG91dGZpbGUubWFlPic=

>  <s_epik_input>  (1) 
RkMoRikoRilDKD1PKVtDSDJdL1tDSF09W0NIXVxbQ0BIXTFPW0NASF0xW0NIMl1bQ0BIXTJbQ0BIXShbQ0gyXVtDSF09QzJbQ0gyXVtDSDNdKVtDQEhdKFtDSDNdKVtOSF1bQ0BASF0oW0NIMl1bQ0gyXVtPSF0pW0NAQEhdKFtPSF0pW0NAQEhdKE49W0NIXTMpW0NIMl1bQ0gyXVtDQEBdMyhbQ0gzXSlbT0hd

>  <s_glide_docking_method>  (1) 
confgen

>  <s_i_glide_gridfile>  (1) 
gpcr_5ht2c_6bqh_protein_autoprepared_prepared

>  <s_lp_Force_Field>  (1) 
S-OPLS

>  <s_lp_Variant>  (1) 
DiffSBDD_29_num_sample_50-2

>  <s_m_source_file>  (1) 
generated__ligand_DiffSBDD_2026-05-06_prepared.sdf

>  <GenAI_Model>  (1) 
DiffSBDD

>  <Protein>  (1) 
GPCR_5HT2C

$$$$
DiffSBDD_41_num_sample_50
     RDKit          3D

  0  0  0  0  0  0  0  0  0  0999 V3000
M  V30 BEGIN CTAB
M  V30 COUNTS 83 87 0 0 1
M  V30 BEGIN ATOM
M  V30 1 C 39.200035 33.147070 62.100133 0
M  V30 2 C 39.770443 31.761386 62.474513 0 CFG=1
M  V30 3 C 38.104449 26.814692 55.136047 0
M  V30 4 C 39.867458 30.304514 49.624432 0
M  V30 5 C 41.823733 32.979332 63.464482 0 CFG=1
M  V30 6 O 42.545557 33.053761 64.693355 0
M  V30 7 O 41.813652 35.374680 63.453527 0
M  V30 8 C 35.782291 18.647143 55.883971 0
M  V30 9 C 40.634905 29.543206 61.668162 0
M  V30 10 C 37.632515 24.438909 55.459015 0
M  V30 11 C 37.248520 30.437619 55.002615 0
M  V30 12 C 39.005572 30.256673 57.537282 0
M  V30 13 C 40.225037 30.894289 61.236884 0 CFG=1
M  V30 14 C 35.787709 21.176540 55.453487 0
M  V30 15 F 34.509985 18.548171 55.502317 0
M  V30 16 O 39.399666 27.992513 56.791078 0
M  V30 17 C 37.970093 28.092997 54.311645 0 CFG=2
M  V30 18 C 39.512608 29.799810 58.922328 0
M  V30 19 C 38.346008 24.476175 56.682580 0
M  V30 20 C 40.840159 31.827484 63.602087 0 CFG=1
M  V30 21 O 40.267411 31.904324 64.885215 0
M  V30 22 F 36.578930 18.419665 54.840225 0
M  V30 23 C 39.426829 29.359890 52.733969 0 CFG=1
M  V30 24 C 38.530766 29.095326 56.634494 0 CFG=2
M  V30 25 C 36.159850 22.612488 55.886618 0
M  V30 26 N 37.467085 31.634170 54.653544 0
M  V30 27 F 36.026477 17.725617 56.815413 0
M  V30 28 O 40.035368 29.125234 50.387457 0
M  V30 29 C 39.900866 34.353737 62.415033 0
M  V30 30 C 38.824430 26.834515 56.352027 0
M  V30 31 C 38.811019 27.994786 53.016527 0
M  V30 32 C 37.408518 34.476995 61.083510 0
M  V30 33 C 37.516097 25.611965 54.685802 0
M  V30 34 O 37.067196 23.262484 55.009708 0
M  V30 35 C 38.342683 29.396973 55.116609 0 CFG=2
M  V30 36 S 39.867411 30.021475 54.354541 0
M  V30 37 C 38.103777 35.659441 61.385127 0
M  V30 38 C 41.014094 28.489014 62.148767 0
M  V30 39 C 41.214609 34.345929 63.135282 0
M  V30 40 C 40.549324 29.377206 51.682126 0
M  V30 41 C 39.217098 30.813967 60.053044 0
M  V30 42 C 36.056021 20.039685 56.463878 0
M  V30 43 C 38.943737 25.668325 57.117855 0
M  V30 44 C 37.946142 33.229177 61.445426 0
M  V30 45 C 39.340272 35.601407 62.051661 0
M  V30 46 H 38.920533 31.218079 62.895127 0
M  V30 47 H 39.467444 30.023143 48.653550 0
M  V30 48 H 39.167974 30.992428 50.100200 0
M  V30 49 H 40.812901 30.824908 49.466423 0
M  V30 50 H 42.523692 32.757013 62.658474 0
M  V30 51 H 43.037192 32.253641 64.805045 0
M  V30 52 H 36.246677 30.085916 55.257914 0
M  V30 53 H 38.173622 30.952426 57.659149 0
M  V30 54 H 39.797699 30.824507 57.052435 0
M  V30 55 H 41.131178 31.349094 60.840405 0
M  V30 56 H 34.717070 21.160118 55.246598 0
M  V30 57 H 36.267258 20.945347 54.503387 0
M  V30 58 H 36.921173 28.139244 54.016511 0
M  V30 59 H 40.584825 29.617626 58.837680 0
M  V30 60 H 39.069116 28.841184 59.195553 0
M  V30 61 H 38.443991 23.595236 57.282106 0
M  V30 62 H 41.432686 30.916899 63.660641 0
M  V30 63 H 40.902823 32.352236 65.431477 0
M  V30 64 H 38.667304 30.021456 52.367673 0
M  V30 65 H 37.565020 28.791903 57.052963 0
M  V30 66 H 36.543728 22.599139 56.905060 0
M  V30 67 H 35.251638 23.216855 55.853491 0
M  V30 68 H 36.636715 32.218709 54.726026 0
M  V30 69 H 39.618071 27.277873 53.162877 0
M  V30 70 H 38.223000 27.632290 52.171678 0
M  V30 71 H 36.455527 34.526433 60.575871 0
M  V30 72 H 36.976641 25.590146 53.749632 0
M  V30 73 H 37.684898 36.616476 61.110584 0
M  V30 74 H 41.359261 27.621468 62.655606 0
M  V30 75 H 41.067391 30.334613 51.707603 0
M  V30 76 H 41.281104 28.594246 51.853490 0
M  V30 77 H 38.231632 30.556793 60.440599 0
M  V30 78 H 39.130570 31.802577 59.603606 0
M  V30 79 H 37.067416 20.057991 56.832394 0
M  V30 80 H 35.467469 20.168825 57.360412 0
M  V30 81 H 39.492764 25.688369 58.048587 0
M  V30 82 H 37.397622 32.331642 61.218292 0
M  V30 83 H 39.863531 36.517216 62.289132 0
M  V30 END ATOM
M  V30 BEGIN BOND
M  V30 1 1 2 1
M  V30 2 1 6 5
M  V30 3 1 13 2
M  V30 4 1 13 9
M  V30 5 1 15 8
M  V30 6 1 17 3
M  V30 7 1 18 12
M  V30 8 1 19 10
M  V30 9 1 20 2
M  V30 10 1 20 5
M  V30 11 1 21 20
M  V30 12 1 22 8
M  V30 13 1 24 12
M  V30 14 1 24 16
M  V30 15 1 25 14
M  V30 16 2 26 11
M  V30 17 1 27 8
M  V30 18 1 28 4
M  V30 19 1 29 1
M  V30 20 2 30 3
M  V30 21 1 30 16
M  V30 22 1 31 17
M  V30 23 1 31 23
M  V30 24 1 33 3
M  V30 25 2 33 10
M  V30 26 1 34 10
M  V30 27 1 34 25
M  V30 28 1 35 11 CFG=1
M  V30 29 1 35 17
M  V30 30 1 35 24
M  V30 31 1 36 23
M  V30 32 1 36 35
M  V30 33 2 37 32
M  V30 34 3 38 9
M  V30 35 1 39 5
M  V30 36 2 39 7
M  V30 37 1 39 29
M  V30 38 1 40 23
M  V30 39 1 40 28
M  V30 40 1 41 13
M  V30 41 1 41 18
M  V30 42 1 42 8
M  V30 43 1 42 14
M  V30 44 2 43 19
M  V30 45 1 43 30
M  V30 46 2 44 1
M  V30 47 1 44 32
M  V30 48 2 45 29
M  V30 49 1 45 37
M  V30 50 1 2 46 CFG=1
M  V30 51 1 47 4
M  V30 52 1 48 4
M  V30 53 1 49 4
M  V30 54 1 5 50 CFG=3
M  V30 55 1 51 6
M  V30 56 1 52 11
M  V30 57 1 53 12
M  V30 58 1 54 12
M  V30 59 1 13 55 CFG=3
M  V30 60 1 56 14
M  V30 61 1 57 14
M  V30 62 1 17 58 CFG=3
M  V30 63 1 59 18
M  V30 64 1 60 18
M  V30 65 1 61 19
M  V30 66 1 20 62 CFG=1
M  V30 67 1 63 21
M  V30 68 1 23 64 CFG=3
M  V30 69 1 24 65 CFG=1
M  V30 70 1 66 25
M  V30 71 1 67 25
M  V30 72 1 68 26
M  V30 73 1 69 31
M  V30 74 1 70 31
M  V30 75 1 71 32
M  V30 76 1 72 33
M  V30 77 1 73 37
M  V30 78 1 74 38
M  V30 79 1 75 40
M  V30 80 1 76 40
M  V30 81 1 77 41
M  V30 82 1 78 41
M  V30 83 1 79 42
M  V30 84 1 80 42
M  V30 85 1 81 43
M  V30 86 1 82 44
M  V30 87 1 83 45
M  V30 END BOND
M  V30 END CTAB
M  END
>  <i_epik_Tot_Q>  (1) 
0

>  <i_epik_Tot_abs_Q>  (1) 
0

>  <i_i_glide_confnum>  (1) 
1626

>  <i_i_glide_lignum>  (1) 
96

>  <i_i_glide_posenum>  (1) 
266

>  <i_i_glide_rotatable_bonds>  (1) 
16

>  <i_lp_mmshare_version>  (1) 
72125

>  <i_m_source_file_index>  (1) 
42

>  <i_f3d_flags>  (1) 
0

>  <num_sample>  (1) 
50

>  <b_lp_Chiralities_Consistent>  (1) 
1

>  <r_epik_Charging_Adjusted_Penalty>  (1) 
0.41067983895260396

>  <r_epik_Ionization_Penalty>  (1) 
0.0048607436090088536

>  <r_epik_Ionization_Penalty_Charging>  (1) 
0

>  <r_epik_Ionization_Penalty_Neutral>  (1) 
0.0048607436090088536

>  <r_epik_State_Penalty>  (1) 
0.41067983895260396

>  <r_glide_ring_energy>  (1) 
1.8793194922327243

>  <r_i_docking_score>  (1) 
-8.6980298951778927

>  <r_i_glide_ecoul>  (1) 
-0.19673197674586618

>  <r_i_glide_eff_state_penalty>  (1) 
0.41067983895260396

>  <r_i_glide_einternal>  (1) 
22.672168886720304

>  <r_i_glide_emodel>  (1) 
-57.147234818794644

>  <r_i_glide_emodel_strain>  (1) 
4.821812234251297

>  <r_i_glide_energy>  (1) 
-51.076590507514368

>  <r_i_glide_erotb>  (1) 
0.41134081239429626

>  <r_i_glide_esite>  (1) 
-0.070419095455863001

>  <r_i_glide_evdw>  (1) 
-50.879858530768502

>  <r_i_glide_gscore>  (1) 
-9.1087097341304961

>  <r_i_glide_gscore_strain>  (1) 
0.20545305856282425

>  <r_i_glide_hbond>  (1) 
-0.16

>  <r_i_glide_ligand_efficiency>  (1) 
-0.19328955322617539

>  <r_i_glide_ligand_efficiency_ln>  (1) 
-1.8095778336193347

>  <r_i_glide_ligand_efficiency_sa>  (1) 
-0.68751031769805893

>  <r_i_glide_lipo>  (1) 
-5.8863998418024064

>  <r_i_glide_metal>  (1) 
-0

>  <r_i_glide_rewards>  (1) 
-1.0351819447790414

>  <r_lp_Energy>  (1) 
42.968447999999995

>  <r_lp_tautomer_probability>  (1) 
0.5

>  <s_epik_Chemistry_Notes>  (1) 
This compound has an imine and may undergo hydrolysis.

>  <s_epik_cmdline>  (1) 
J2VwaWtfcHl0aG9uJywgJy1waHQnLCAnMS4wJywgJy1waCcsICc3LjQnLCAnLXRuJywgJzgnLCAnLW1hJywgJzUwMCcsICctaW1hZScsICc8aW5maWxlLm1hZT4nLCAnLW9tYWUnLCAnPG91dGZpbGUubWFlPic=

>  <s_epik_input>  (1) 
W2NIXTFbY0hdW2NIXVtjSF1jKGMxMilDKD1PKVtDQEBIXShbT0hdKVtDQEBIXShbT0hdKVtDQEBIXTJbQ0BASF0oQyNbQ0hdKVtDSDJdW0NIMl1bQ0gyXVtDQEBIXTNPYyhjNFtDQEBIXShbQ0BAXTM1L1tDSF09Ti9bSF0pW0NIMl1bQ0BASF0oUzUpW0NIMl1PW0NIM10pW2NIXVtjSF1jKFtjSF00KU9bQ0gyXVtDSDJdW0NIMl1DKEYpKEYpRg==

>  <s_glide_docking_method>  (1) 
confgen

>  <s_i_glide_gridfile>  (1) 
gpcr_5ht2c_6bqh_protein_autoprepared_prepared

>  <s_lp_Force_Field>  (1) 
S-OPLS

>  <s_lp_Variant>  (1) 
DiffSBDD_41_num_sample_50-1

>  <s_m_source_file>  (1) 
generated__ligand_DiffSBDD_2026-05-06_prepared.sdf

>  <GenAI_Model>  (1) 
DiffSBDD

>  <Protein>  (1) 
GPCR_5HT2C

$$$$
DiffSBDD_8_num_sample_50
     RDKit          3D

  0  0  0  0  0  0  0  0  0  0999 V3000
M  V30 BEGIN CTAB
M  V30 COUNTS 70 74 0 0 1
M  V30 BEGIN ATOM
M  V30 1 C 38.536735 31.419580 56.261705 0
M  V30 2 N 38.643237 32.691394 60.877414 0
M  V30 3 C 40.267380 31.030978 63.655081 0
M  V30 4 C 42.059361 29.969010 65.099670 0
M  V30 5 C 40.794424 33.681215 61.649426 0
M  V30 6 C 36.974229 37.230841 62.536381 0
M  V30 7 C 41.136221 29.946593 63.898521 0
M  V30 8 C 38.048036 36.821453 63.344009 0
M  V30 9 C 38.181752 32.750116 58.422796 0
M  V30 10 C 39.067307 36.018688 62.804944 0
M  V30 11 N 37.867402 31.584953 57.569970 0 CHG=1
M  V30 12 N 39.868101 33.354272 60.558611 0
M  V30 13 C 38.405082 28.473156 53.687597 0
M  V30 14 C 38.574946 27.522924 56.693261 0
M  V30 15 N 37.676520 27.490829 54.371091 0
M  V30 16 C 39.867399 30.434203 52.430133 0
M  V30 17 C 41.148175 28.842729 63.021242 0
M  V30 18 O 36.747440 31.734628 60.072419 0
M  V30 19 C 38.479306 32.197960 62.256406 0
M  V30 20 C 39.411285 31.012861 62.532482 0
M  V30 21 O 39.839368 26.467115 54.901167 0
M  V30 22 C 38.530643 26.795054 55.331761 0 CFG=1
M  V30 23 N 39.487613 30.658862 53.712653 0
M  V30 24 O 43.356953 30.410323 64.763644 0
M  V30 25 C 36.918346 36.834742 61.190100 0
M  V30 26 C 40.099546 34.765341 60.878218 0 CFG=1
M  V30 27 C 39.157568 28.954091 56.682878 0
M  V30 28 C 38.811504 28.258884 52.360848 0
M  V30 29 C 40.293841 28.821390 61.903137 0
M  V30 30 C 37.790325 32.357595 59.872074 0
M  V30 31 C 39.009317 35.603856 61.456219 0
M  V30 32 F 35.996109 38.012059 63.053455 0
M  V30 33 C 39.426599 29.902615 61.657752 0
M  V30 34 C 38.763552 29.689437 54.322140 0
M  V30 35 C 38.375716 29.946426 55.782410 0 CFG=2
M  V30 36 C 39.554812 29.258441 51.718702 0
M  V30 37 C 37.924632 36.017454 60.653459 0
M  V30 38 H 38.074267 32.114722 55.558973 0
M  V30 39 H 39.593911 31.679446 56.332925 0
M  V30 40 H 40.261168 31.877279 64.326410 0
M  V30 41 H 41.651480 30.623191 65.870596 0
M  V30 42 H 42.120481 28.971051 65.535694 0
M  V30 43 H 40.544870 33.623806 62.702634 0
M  V30 44 H 41.852488 33.525113 61.453558 0
M  V30 45 H 38.094112 37.130462 64.378235 0
M  V30 46 H 39.231501 32.993367 58.272923 0
M  V30 47 H 37.597162 33.610783 58.095855 0
M  V30 48 H 39.896550 35.716520 63.428042 0
M  V30 49 H 38.049439 30.762527 58.124460 0
M  V30 50 H 39.148743 26.917424 57.396483 0
M  V30 51 H 37.565891 27.559451 57.105536 0
M  V30 52 H 36.859204 27.863754 54.829903 0
M  V30 53 H 40.438977 31.219361 51.957739 0
M  V30 54 H 41.813406 28.012064 63.206407 0
M  V30 55 H 38.644566 32.989298 62.983597 0
M  V30 56 H 37.457870 31.868285 62.442264 0
M  V30 57 H 40.123539 25.688535 55.355881 0
M  V30 58 H 38.040590 25.834213 55.495078 0
M  V30 59 H 43.750564 29.771671 64.188565 0
M  V30 60 H 36.097372 37.156277 60.567250 0
M  V30 61 H 40.740864 35.371735 60.249860 0
M  V30 62 H 39.155748 29.296101 57.717421 0
M  V30 63 H 40.208294 28.932420 56.389533 0
M  V30 64 H 38.558131 27.342634 51.846199 0
M  V30 65 H 40.303999 27.974369 61.233148 0
M  V30 66 H 38.773853 29.881014 60.799273 0
M  V30 67 H 37.309615 29.724391 55.856836 0
M  V30 68 H 39.883471 29.129402 50.697856 0
M  V30 69 H 37.869537 35.712963 59.619022 0
M  V30 70 H 36.854091 31.621413 57.398243 0
M  V30 END ATOM
M  V30 BEGIN BOND
M  V30 1 2 7 3
M  V30 2 1 7 4
M  V30 3 1 8 6
M  V30 4 2 10 8
M  V30 5 1 11 1
M  V30 6 1 11 9
M  V30 7 1 12 2
M  V30 8 1 12 5
M  V30 9 1 15 13
M  V30 10 1 17 7
M  V30 11 1 19 2
M  V30 12 1 20 3
M  V30 13 1 20 19
M  V30 14 1 22 14
M  V30 15 1 22 15
M  V30 16 1 22 21
M  V30 17 1 23 16
M  V30 18 1 24 4
M  V30 19 2 25 6
M  V30 20 1 26 5
M  V30 21 1 26 12
M  V30 22 1 27 14
M  V30 23 2 28 13
M  V30 24 2 29 17
M  V30 25 1 30 2
M  V30 26 1 30 9
M  V30 27 2 30 18
M  V30 28 1 31 10
M  V30 29 1 31 26
M  V30 30 1 32 6
M  V30 31 2 33 20
M  V30 32 1 33 29
M  V30 33 1 34 13
M  V30 34 2 34 23
M  V30 35 1 35 1
M  V30 36 1 35 27
M  V30 37 1 35 34
M  V30 38 2 36 16
M  V30 39 1 36 28
M  V30 40 1 37 25
M  V30 41 2 37 31
M  V30 42 1 38 1
M  V30 43 1 39 1
M  V30 44 1 40 3
M  V30 45 1 41 4
M  V30 46 1 42 4
M  V30 47 1 43 5
M  V30 48 1 44 5
M  V30 49 1 45 8
M  V30 50 1 46 9
M  V30 51 1 47 9
M  V30 52 1 48 10
M  V30 53 1 49 11
M  V30 54 1 50 14
M  V30 55 1 51 14
M  V30 56 1 52 15
M  V30 57 1 53 16
M  V30 58 1 54 17
M  V30 59 1 55 19
M  V30 60 1 56 19
M  V30 61 1 57 21
M  V30 62 1 22 58 CFG=1
M  V30 63 1 59 24
M  V30 64 1 60 25
M  V30 65 1 26 61 CFG=3
M  V30 66 1 62 27
M  V30 67 1 63 27
M  V30 68 1 64 28
M  V30 69 1 65 29
M  V30 70 1 66 33
M  V30 71 1 35 67 CFG=3
M  V30 72 1 68 36
M  V30 73 1 69 37
M  V30 74 1 70 11
M  V30 END BOND
M  V30 END CTAB
M  END
>  <i_epik_Tot_Q>  (1) 
1

>  <i_epik_Tot_abs_Q>  (1) 
1

>  <i_i_glide_confnum>  (1) 
133

>  <i_i_glide_lignum>  (1) 
29

>  <i_i_glide_posenum>  (1) 
51

>  <i_i_glide_rotatable_bonds>  (1) 
12

>  <i_lp_mmshare_version>  (1) 
72125

>  <i_m_source_file_index>  (1) 
9

>  <i_f3d_flags>  (1) 
0

>  <num_sample>  (1) 
50

>  <b_lp_Chiralities_Consistent>  (1) 
1

>  <r_epik_Charging_Adjusted_Penalty>  (1) 
0.46903428826383708

>  <r_epik_Ionization_Penalty>  (1) 
0.30166015279675507

>  <r_epik_Ionization_Penalty_Charging>  (1) 
0.29766720737570945

>  <r_epik_Ionization_Penalty_Neutral>  (1) 
0.0039929454210456379

>  <r_epik_State_Penalty>  (1) 
0.17136708088812766

>  <r_glide_ring_energy>  (1) 
0

>  <r_i_docking_score>  (1) 
-8.6554495050842135

>  <r_i_glide_ecoul>  (1) 
-5.9204019000361319

>  <r_i_glide_eff_state_penalty>  (1) 
0.17136708088812766

>  <r_i_glide_einternal>  (1) 
5.0549185563192296

>  <r_i_glide_emodel>  (1) 
-96.477115255777434

>  <r_i_glide_emodel_strain>  (1) 
0.0044726378640973508

>  <r_i_glide_energy>  (1) 
-58.184070752538261

>  <r_i_glide_erotb>  (1) 
0.79724194346153032

>  <r_i_glide_esite>  (1) 
-0.12698987851383628

>  <r_i_glide_evdw>  (1) 
-52.263668852502128

>  <r_i_glide_gscore>  (1) 
-8.8268165859723418

>  <r_i_glide_gscore_strain>  (1) 
0

>  <r_i_glide_hbond>  (1) 
-0.20000000000000001

>  <r_i_glide_ligand_efficiency>  (1) 
-0.23393106770497873

>  <r_i_glide_ligand_efficiency_ln>  (1) 
-1.8771640851269398

>  <r_i_glide_ligand_efficiency_sa>  (1) 
-0.77951021558539924

>  <r_i_glide_lipo>  (1) 
-4.1951388548733117

>  <r_i_glide_metal>  (1) 
-0

>  <r_i_glide_rewards>  (1) 
-1.6006860684161972

>  <r_lp_Energy>  (1) 
69.367840000000001

>  <s_epik_Chemistry_Notes>  (1) 
This compound contains an acetal/aminal-like group ( X-CH(R)-Y where X, Y are N, S, or O) that may be acid/base labile, releasing an aldehyde.

>  <s_epik_cmdline>  (1) 
J2VwaWtfcHl0aG9uJywgJy1waHQnLCAnMS4wJywgJy1waCcsICc3LjQnLCAnLXRuJywgJzgnLCAnLW1hJywgJzUwMCcsICctaW1hZScsICc8aW5maWxlLm1hZT4nLCAnLW9tYWUnLCAnPG91dGZpbGUubWFlPic=

>  <s_epik_input>  (1) 
W2NIXTFbY0hdW2NIXW5jKGMxMilbQ0BASF0oW0NIMl1bQ0gyXVtDQEBIXShbTkhdMilbT0hdKVtDSDJdW05IXVtDSDJdQyg9TylOKFtDSDJdYyhbY0hdW2NIXVtjSF0zKVtjSF1jM1tDSDJdW09IXSlONFtDSDJdW0NAQEhdNGMoW2NIXVtjSF01KVtjSF1bY0hdYzVG

>  <s_glide_docking_method>  (1) 
confgen

>  <s_i_glide_gridfile>  (1) 
gpcr_5ht2c_6bqh_protein_autoprepared_prepared

>  <s_lp_Force_Field>  (1) 
S-OPLS

>  <s_lp_Variant>  (1) 
DiffSBDD_8_num_sample_50-1

>  <s_m_source_file>  (1) 
generated__ligand_DiffSBDD_2026-05-06_prepared.sdf

>  <GenAI_Model>  (1) 
DiffSBDD

>  <Protein>  (1) 
GPCR_5HT2C

$$$$
DiffSBDD_4_num_sample_50
     RDKit          3D

  0  0  0  0  0  0  0  0  0  0999 V3000
M  V30 BEGIN CTAB
M  V30 COUNTS 73 75 0 0 1
M  V30 BEGIN ATOM
M  V30 1 C 39.069096 28.882492 52.962686 0
M  V30 2 C 37.983451 33.190055 61.325198 0
M  V30 3 C 39.578401 34.938247 61.662291 0
M  V30 4 N 39.164460 31.316443 61.280079 0
M  V30 5 C 36.808738 25.368386 56.485684 0
M  V30 6 C 38.542508 35.901536 61.585021 0
M  V30 7 C 37.903328 31.779476 61.203645 0
M  V30 8 N 38.335062 28.042076 56.020224 0
M  V30 9 C 38.505490 29.984248 58.600455 0
M  V30 10 C 38.199861 26.676595 54.094774 0
M  V30 11 O 40.499587 28.550525 56.414005 0
M  V30 12 C 39.539427 29.916504 61.057676 0
M  V30 13 F 40.422111 30.520711 49.876449 0
M  V30 14 C 39.485266 27.889089 50.781499 0
M  V30 15 C 40.247377 32.395348 61.545554 0
M  V30 16 C 40.406026 30.207940 51.171341 0
M  V30 17 N 38.938209 26.883411 51.694399 0 CHG=1
M  V30 18 C 36.909998 34.098929 61.226424 0
M  V30 19 C 38.861668 30.143728 57.113812 0
M  V30 20 C 39.151515 27.350742 53.072676 0 CFG=1
M  V30 21 C 39.245932 33.581809 61.519643 0
M  V30 22 O 40.870014 35.330548 61.865747 0
M  V30 23 C 37.198463 35.482034 61.362777 0
M  V30 24 C 39.271520 29.221986 51.472142 0 CFG=2
M  V30 25 C 38.310835 25.690930 56.463372 0
M  V30 26 C 39.303852 28.837158 56.479696 0
M  V30 27 N 38.648839 26.791275 55.502111 0
M  V30 28 C 39.077786 24.424382 56.104786 0
M  V30 29 C 35.484270 33.632644 60.959817 0
M  V30 30 N 35.236662 33.538805 59.505683 0 CHG=1
M  V30 31 F 40.257154 31.318410 51.884486 0
M  V30 32 C 39.671895 29.576959 59.543907 0
M  V30 33 C 38.729493 26.022213 57.924442 0
M  V30 34 O 36.873485 31.131960 61.032180 0
M  V30 35 H 38.091147 29.238098 53.285806 0
M  V30 36 H 39.810545 29.370105 53.596743 0
M  V30 37 H 36.266243 26.209036 56.898721 0
M  V30 38 H 36.405050 25.142819 55.498327 0
M  V30 39 H 36.597564 24.510885 57.125373 0
M  V30 40 H 38.770548 36.949683 61.687647 0
M  V30 41 H 41.476637 34.628422 62.034864 0
M  V30 42 H 37.360376 28.298380 56.087587 0
M  V30 43 H 37.688277 29.275450 58.728430 0
M  V30 44 H 38.088149 30.956703 58.827547 0
M  V30 45 H 38.151231 25.620805 53.849017 0
M  V30 46 H 37.180756 27.053756 53.995380 0
M  V30 47 H 40.495309 29.718555 61.543665 0
M  V30 48 H 38.817582 29.251164 61.539989 0
M  V30 49 H 38.979817 27.874333 49.825432 0
M  V30 50 H 40.542345 27.702719 50.605357 0
M  V30 51 H 40.992526 32.444703 60.755377 0
M  V30 52 H 40.716390 32.284710 62.520544 0
M  V30 53 H 41.382161 29.790303 51.405446 0
M  V30 54 H 39.359677 25.982233 51.523068 0
M  V30 55 H 37.986893 30.515230 56.577472 0
M  V30 56 H 39.633351 30.899812 56.984795 0
M  V30 57 H 40.170174 27.054311 53.315298 0
M  V30 58 H 36.408510 36.211106 61.293655 0
M  V30 59 H 38.337720 29.612415 51.076695 0
M  V30 60 H 40.147527 24.625626 56.072127 0
M  V30 61 H 38.932971 23.635924 56.845581 0
M  V30 62 H 38.772064 24.025201 55.141187 0
M  V30 63 H 35.222860 32.704152 61.461584 0
M  V30 64 H 34.802033 34.348141 61.398938 0
M  V30 65 H 34.278889 33.273354 59.334661 0
M  V30 66 H 35.412266 34.430129 59.063362 0
M  V30 67 H 40.586214 30.021429 59.167976 0
M  V30 68 H 39.837393 28.504082 59.442565 0
M  V30 69 H 38.176194 26.864883 58.338323 0
M  V30 70 H 38.536325 25.199485 58.608589 0
M  V30 71 H 39.792968 26.257469 57.990091 0
M  V30 72 H 37.939903 26.822792 51.528141 0
M  V30 73 H 35.842728 32.843854 59.086415 0
M  V30 END ATOM
M  V30 BEGIN BOND
M  V30 1 1 6 3
M  V30 2 1 7 2
M  V30 3 1 7 4
M  V30 4 1 12 4
M  V30 5 1 15 4
M  V30 6 1 16 13
M  V30 7 1 17 14
M  V30 8 2 18 2
M  V30 9 1 19 9
M  V30 10 1 20 1
M  V30 11 1 20 10
M  V30 12 1 20 17
M  V30 13 1 21 2
M  V30 14 2 21 3
M  V30 15 1 21 15
M  V30 16 1 22 3
M  V30 17 2 23 6
M  V30 18 1 23 18
M  V30 19 1 24 1
M  V30 20 1 24 14
M  V30 21 1 24 16
M  V30 22 1 25 5
M  V30 23 1 26 8
M  V30 24 2 26 11
M  V30 25 1 26 19
M  V30 26 1 27 8
M  V30 27 1 27 10
M  V30 28 1 27 25
M  V30 29 1 28 25
M  V30 30 1 29 18
M  V30 31 1 30 29
M  V30 32 1 31 16
M  V30 33 1 32 9
M  V30 34 1 32 12
M  V30 35 1 33 25
M  V30 36 2 34 7
M  V30 37 1 35 1
M  V30 38 1 36 1
M  V30 39 1 37 5
M  V30 40 1 38 5
M  V30 41 1 39 5
M  V30 42 1 40 6
M  V30 43 1 41 22
M  V30 44 1 42 8
M  V30 45 1 43 9
M  V30 46 1 44 9
M  V30 47 1 45 10
M  V30 48 1 46 10
M  V30 49 1 47 12
M  V30 50 1 48 12
M  V30 51 1 49 14
M  V30 52 1 50 14
M  V30 53 1 51 15
M  V30 54 1 52 15
M  V30 55 1 53 16
M  V30 56 1 54 17
M  V30 57 1 55 19
M  V30 58 1 56 19
M  V30 59 1 20 57 CFG=1
M  V30 60 1 58 23
M  V30 61 1 24 59 CFG=3
M  V30 62 1 60 28
M  V30 63 1 61 28
M  V30 64 1 62 28
M  V30 65 1 63 29
M  V30 66 1 64 29
M  V30 67 1 65 30
M  V30 68 1 66 30
M  V30 69 1 67 32
M  V30 70 1 68 32
M  V30 71 1 69 33
M  V30 72 1 70 33
M  V30 73 1 71 33
M  V30 74 1 72 17
M  V30 75 1 73 30
M  V30 END BOND
M  V30 END CTAB
M  END
>  <i_epik_Tot_Q>  (1) 
2

>  <i_epik_Tot_abs_Q>  (1) 
2

>  <i_i_glide_confnum>  (1) 
375

>  <i_i_glide_lignum>  (1) 
12

>  <i_i_glide_posenum>  (1) 
365

>  <i_i_glide_rotatable_bonds>  (1) 
13

>  <i_lp_mmshare_version>  (1) 
72125

>  <i_m_source_file_index>  (1) 
5

>  <i_f3d_flags>  (1) 
0

>  <num_sample>  (1) 
50

>  <b_lp_Chiralities_Consistent>  (1) 
1

>  <r_epik_Charging_Adjusted_Penalty>  (1) 
0.15324589145217746

>  <r_epik_Ionization_Penalty>  (1) 
0.11737889030673737

>  <r_epik_Ionization_Penalty_Charging>  (1) 
0.07766807882096001

>  <r_epik_Ionization_Penalty_Neutral>  (1) 
0.039710811485777361

>  <r_epik_State_Penalty>  (1) 
0.075577812631217448

>  <r_glide_ring_energy>  (1) 
0

>  <r_i_docking_score>  (1) 
-8.6339126280802017

>  <r_i_glide_ecoul>  (1) 
-2.4671908028112615

>  <r_i_glide_eff_state_penalty>  (1) 
0.075577812631217448

>  <r_i_glide_einternal>  (1) 
11.301390766157736

>  <r_i_glide_emodel>  (1) 
-70.026506787281207

>  <r_i_glide_emodel_strain>  (1) 
0.60404731899170372

>  <r_i_glide_energy>  (1) 
-42.917590244752837

>  <r_i_glide_erotb>  (1) 
0.78126008755577614

>  <r_i_glide_esite>  (1) 
-0.038283821839852017

>  <r_i_glide_evdw>  (1) 
-40.450399441941578

>  <r_i_glide_gscore>  (1) 
-8.70949044071142

>  <r_i_glide_gscore_strain>  (1) 
0

>  <r_i_glide_hbond>  (1) 
-0.27286578691230157

>  <r_i_glide_ligand_efficiency>  (1) 
-0.2539386067082412

>  <r_i_glide_ligand_efficiency_ln>  (1) 
-1.9074734725891864

>  <r_i_glide_ligand_efficiency_sa>  (1) 
-0.82266250709197986

>  <r_i_glide_lipo>  (1) 
-4.6028605333877017

>  <r_i_glide_metal>  (1) 
-0

>  <r_i_glide_rewards>  (1) 
-2.184141793608573

>  <r_lp_Energy>  (1) 
24.236581999999999

>  <r_lp_tautomer_probability>  (1) 
0.99999999999736477

>  <s_epik_cmdline>  (1) 
J2VwaWtfcHl0aG9uJywgJy1waHQnLCAnMS4wJywgJy1waCcsICc3LjQnLCAnLXRuJywgJzgnLCAnLW1hJywgJzUwMCcsICctaW1hZScsICc8aW5maWxlLm1hZT4nLCAnLW9tYWUnLCAnPG91dGZpbGUubWFlPic=

>  <s_epik_input>  (1) 
RltDSF0oRilbQ0BASF0oW0NIMl1bTkhdMSlbQ0gyXVtDQEhdMVtDSDJdTihDKFtDSDNdKShbQ0gzXSlbQ0gzXSlbTkhdQyg9TylbQ0gyXVtDSDJdW0NIMl1bQ0gyXU4oQzI9TylbQ0gyXUMoPUMyMylDKD1PKVtDSDJdW0NIXT1DM1tDSDJdW05IMl0=

>  <s_glide_docking_method>  (1) 
confgen

>  <s_i_glide_gridfile>  (1) 
gpcr_5ht2c_6bqh_protein_autoprepared_prepared

>  <s_lp_Force_Field>  (1) 
S-OPLS

>  <s_lp_Variant>  (1) 
DiffSBDD_4_num_sample_50-1

>  <s_m_source_file>  (1) 
generated__ligand_DiffSBDD_2026-05-06_prepared.sdf

>  <GenAI_Model>  (1) 
DiffSBDD

>  <Protein>  (1) 
GPCR_5HT2C

$$$$
DiffSBDD_41_num_sample_50
     RDKit          3D

  0  0  0  0  0  0  0  0  0  0999 V3000
M  V30 BEGIN CTAB
M  V30 COUNTS 83 87 0 0 1
M  V30 BEGIN ATOM
M  V30 1 C 42.073299 30.871616 66.604057 0
M  V30 2 C 41.832238 29.351506 66.560220 0 CFG=1
M  V30 3 C 39.239058 29.175324 57.881425 0
M  V30 4 C 37.483426 35.142621 59.977452 0
M  V30 5 C 44.307118 29.009285 66.942480 0 CFG=1
M  V30 6 O 45.312502 28.278455 67.624958 0
M  V30 7 O 45.697176 30.944542 67.251094 0
M  V30 8 C 37.068730 24.491802 56.532887 0
M  V30 9 C 41.256084 27.351840 65.110328 0
M  V30 10 C 40.272649 27.657217 56.271117 0
M  V30 11 C 36.649721 30.421426 60.253541 0
M  V30 12 C 39.336335 30.023473 62.087583 0
M  V30 13 C 41.645520 28.780661 65.103727 0 CFG=1
M  V30 14 C 37.915313 26.205497 54.855573 0
M  V30 15 F 37.467385 23.621484 57.453171 0
M  V30 16 O 40.327909 29.566196 59.993159 0
M  V30 17 C 38.110016 30.110363 58.271327 0 CFG=2
M  V30 18 C 40.336962 29.096798 62.812142 0
M  V30 19 C 41.349974 27.467956 57.159015 0
M  V30 20 C 42.894911 28.594811 67.391550 0 CFG=1
M  V30 21 O 42.669602 28.848592 68.771263 0
M  V30 22 F 36.422041 25.475581 57.153514 0
M  V30 23 C 37.651714 32.510743 58.391314 0 CFG=1
M  V30 24 C 39.059210 29.597419 60.626669 0 CFG=2
M  V30 25 C 39.114975 26.941246 54.227314 0
M  V30 26 N 36.121781 31.245660 61.053537 0
M  V30 27 F 36.254498 23.886411 55.670888 0
M  V30 28 O 37.068597 34.853784 58.653979 0
M  V30 29 C 43.378767 31.407948 66.819329 0
M  V30 30 C 40.311895 28.956317 58.770942 0
M  V30 31 C 38.095242 31.403903 57.434757 0
M  V30 32 C 41.182145 33.145250 66.469808 0
M  V30 33 C 39.217064 28.527394 56.631818 0
M  V30 34 O 40.267120 26.981454 55.063793 0
M  V30 35 C 38.100716 30.501605 59.789158 0 CFG=2
M  V30 36 S 38.667537 32.206108 59.840821 0
M  V30 37 C 42.467488 33.669996 66.670817 0
M  V30 38 C 40.944334 26.171078 65.109418 0
M  V30 39 C 44.562202 30.519916 67.027782 0
M  V30 40 C 37.824429 33.907680 57.879896 0
M  V30 41 C 40.691551 29.630855 64.216752 0
M  V30 42 C 38.285259 25.038328 55.785792 0
M  V30 43 C 41.368188 28.112918 58.402689 0
M  V30 44 C 40.982853 31.753017 66.440315 0
M  V30 45 C 43.562465 32.807719 66.849449 0
M  V30 46 H 40.873271 29.195137 67.061585 0
M  V30 47 H 37.014748 36.071966 60.301319 0
M  V30 48 H 37.163894 34.366124 60.672217 0
M  V30 49 H 38.563275 35.268915 60.049492 0
M  V30 50 H 44.419155 28.749730 65.890557 0
M  V30 51 H 46.152783 28.583152 67.302896 0
M  V30 52 H 36.080080 29.584473 59.840865 0
M  V30 53 H 38.400593 30.039968 62.647260 0
M  V30 54 H 39.728528 31.038487 62.119555 0
M  V30 55 H 42.615042 28.803150 64.606635 0
M  V30 56 H 37.316948 26.915878 55.418702 0
M  V30 57 H 37.256192 25.848611 54.063982 0
M  V30 58 H 37.206861 29.557599 58.008382 0
M  V30 59 H 41.260596 28.996845 62.240485 0
M  V30 60 H 39.901591 28.099179 62.863588 0
M  V30 61 H 42.162446 26.821296 56.885359 0
M  V30 62 H 42.788921 27.515767 67.277690 0
M  V30 63 H 41.823402 28.493969 69.008456 0
M  V30 64 H 36.600764 32.415433 58.653323 0
M  V30 65 H 38.667471 28.577222 60.645024 0
M  V30 66 H 38.835115 27.942174 53.896367 0
M  V30 67 H 39.415643 26.416006 53.321623 0
M  V30 68 H 35.143708 31.049763 61.210782 0
M  V30 69 H 39.101019 31.633393 57.079556 0
M  V30 70 H 37.467440 31.319194 56.548414 0
M  V30 71 H 40.344692 33.813071 66.337846 0
M  V30 72 H 38.393154 28.698139 55.959281 0
M  V30 73 H 42.614285 34.739278 66.690532 0
M  V30 74 H 40.665463 25.142536 65.102315 0
M  V30 75 H 38.901827 34.021417 57.860095 0
M  V30 76 H 37.466446 33.965307 56.850073 0
M  V30 77 H 39.768540 29.795980 64.765230 0
M  V30 78 H 41.133764 30.616634 64.071237 0
M  V30 79 H 38.755984 24.243891 55.211257 0
M  V30 80 H 39.009531 25.354885 56.534301 0
M  V30 81 H 42.195273 27.953728 59.080423 0
M  V30 82 H 39.989925 31.358270 66.287730 0
M  V30 83 H 44.548577 33.220378 67.009951 0
M  V30 END ATOM
M  V30 BEGIN BOND
M  V30 1 1 2 1
M  V30 2 1 6 5
M  V30 3 1 13 2
M  V30 4 1 13 9
M  V30 5 1 15 8
M  V30 6 1 17 3
M  V30 7 1 18 12
M  V30 8 1 19 10
M  V30 9 1 20 2
M  V30 10 1 20 5
M  V30 11 1 21 20
M  V30 12 1 22 8
M  V30 13 1 24 12
M  V30 14 1 24 16
M  V30 15 1 25 14
M  V30 16 2 26 11
M  V30 17 1 27 8
M  V30 18 1 28 4
M  V30 19 1 29 1
M  V30 20 2 30 3
M  V30 21 1 30 16
M  V30 22 1 31 17
M  V30 23 1 31 23
M  V30 24 1 33 3
M  V30 25 2 33 10
M  V30 26 1 34 10
M  V30 27 1 34 25
M  V30 28 1 35 11 CFG=1
M  V30 29 1 35 17
M  V30 30 1 35 24
M  V30 31 1 36 23
M  V30 32 1 36 35
M  V30 33 2 37 32
M  V30 34 3 38 9
M  V30 35 1 39 5
M  V30 36 2 39 7
M  V30 37 1 39 29
M  V30 38 1 40 23
M  V30 39 1 40 28
M  V30 40 1 41 13
M  V30 41 1 41 18
M  V30 42 1 42 8
M  V30 43 1 42 14
M  V30 44 2 43 19
M  V30 45 1 43 30
M  V30 46 2 44 1
M  V30 47 1 44 32
M  V30 48 2 45 29
M  V30 49 1 45 37
M  V30 50 1 2 46 CFG=1
M  V30 51 1 47 4
M  V30 52 1 48 4
M  V30 53 1 49 4
M  V30 54 1 5 50 CFG=3
M  V30 55 1 51 6
M  V30 56 1 52 11
M  V30 57 1 53 12
M  V30 58 1 54 12
M  V30 59 1 13 55 CFG=3
M  V30 60 1 56 14
M  V30 61 1 57 14
M  V30 62 1 17 58 CFG=3
M  V30 63 1 59 18
M  V30 64 1 60 18
M  V30 65 1 61 19
M  V30 66 1 20 62 CFG=1
M  V30 67 1 63 21
M  V30 68 1 23 64 CFG=1
M  V30 69 1 24 65 CFG=1
M  V30 70 1 66 25
M  V30 71 1 67 25
M  V30 72 1 68 26
M  V30 73 1 69 31
M  V30 74 1 70 31
M  V30 75 1 71 32
M  V30 76 1 72 33
M  V30 77 1 73 37
M  V30 78 1 74 38
M  V30 79 1 75 40
M  V30 80 1 76 40
M  V30 81 1 77 41
M  V30 82 1 78 41
M  V30 83 1 79 42
M  V30 84 1 80 42
M  V30 85 1 81 43
M  V30 86 1 82 44
M  V30 87 1 83 45
M  V30 END BOND
M  V30 END CTAB
M  END
>  <i_epik_Tot_Q>  (1) 
0

>  <i_epik_Tot_abs_Q>  (1) 
0

>  <i_i_glide_confnum>  (1) 
63

>  <i_i_glide_lignum>  (1) 
96

>  <i_i_glide_posenum>  (1) 
389

>  <i_i_glide_rotatable_bonds>  (1) 
16

>  <i_lp_mmshare_version>  (1) 
72125

>  <i_m_source_file_index>  (1) 
42

>  <i_f3d_flags>  (1) 
0

>  <num_sample>  (1) 
50

>  <b_lp_Chiralities_Consistent>  (1) 
1

>  <r_epik_Charging_Adjusted_Penalty>  (1) 
0.41067983895260396

>  <r_epik_Ionization_Penalty>  (1) 
0.0048607436090088536

>  <r_epik_Ionization_Penalty_Charging>  (1) 
0

>  <r_epik_Ionization_Penalty_Neutral>  (1) 
0.0048607436090088536

>  <r_epik_State_Penalty>  (1) 
0.41067983895260396

>  <r_glide_ring_energy>  (1) 
1.8793194922327243

>  <r_i_docking_score>  (1) 
-8.615522281390815

>  <r_i_glide_ecoul>  (1) 
-6.5729364977655678

>  <r_i_glide_eff_state_penalty>  (1) 
0.41067983895260396

>  <r_i_glide_einternal>  (1) 
10.475762481632891

>  <r_i_glide_emodel>  (1) 
-69.995750981878913

>  <r_i_glide_emodel_strain>  (1) 
0.44828747793663126

>  <r_i_glide_energy>  (1) 
-53.654727083627627

>  <r_i_glide_erotb>  (1) 
0.41134081239429626

>  <r_i_glide_esite>  (1) 
-0.040521193333519806

>  <r_i_glide_evdw>  (1) 
-47.081790585862059

>  <r_i_glide_gscore>  (1) 
-9.0262021203434184

>  <r_i_glide_gscore_strain>  (1) 
0

>  <r_i_glide_hbond>  (1) 
-0.52826186562739619

>  <r_i_glide_ligand_efficiency>  (1) 
-0.19145605069757365

>  <r_i_glide_ligand_efficiency_ln>  (1) 
-1.792412573116299

>  <r_i_glide_ligand_efficiency_sa>  (1) 
-0.6809887448303098

>  <r_i_glide_lipo>  (1) 
-4.0540507902815159

>  <r_i_glide_metal>  (1) 
-0

>  <r_i_glide_rewards>  (1) 
-1.4746790795373461

>  <r_lp_Energy>  (1) 
42.968447999999995

>  <r_lp_tautomer_probability>  (1) 
0.5

>  <s_epik_Chemistry_Notes>  (1) 
This compound has an imine and may undergo hydrolysis.

>  <s_epik_cmdline>  (1) 
J2VwaWtfcHl0aG9uJywgJy1waHQnLCAnMS4wJywgJy1waCcsICc3LjQnLCAnLXRuJywgJzgnLCAnLW1hJywgJzUwMCcsICctaW1hZScsICc8aW5maWxlLm1hZT4nLCAnLW9tYWUnLCAnPG91dGZpbGUubWFlPic=

>  <s_epik_input>  (1) 
W2NIXTFbY0hdW2NIXVtjSF1jKGMxMilDKD1PKVtDQEBIXShbT0hdKVtDQEBIXShbT0hdKVtDQEBIXTJbQ0BASF0oQyNbQ0hdKVtDSDJdW0NIMl1bQ0gyXVtDQEBIXTNPYyhjNFtDQEBIXShbQ0BAXTM1L1tDSF09Ti9bSF0pW0NIMl1bQ0BASF0oUzUpW0NIMl1PW0NIM10pW2NIXVtjSF1jKFtjSF00KU9bQ0gyXVtDSDJdW0NIMl1DKEYpKEYpRg==

>  <s_glide_docking_method>  (1) 
confgen

>  <s_i_glide_gridfile>  (1) 
gpcr_5ht2c_6bqh_protein_autoprepared_prepared

>  <s_lp_Force_Field>  (1) 
S-OPLS

>  <s_lp_Variant>  (1) 
DiffSBDD_41_num_sample_50-1

>  <s_m_source_file>  (1) 
generated__ligand_DiffSBDD_2026-05-06_prepared.sdf

>  <GenAI_Model>  (1) 
DiffSBDD

>  <Protein>  (1) 
GPCR_5HT2C

$$$$
DiffSBDD_8_num_sample_50
     RDKit          3D

  0  0  0  0  0  0  0  0  0  0999 V3000
M  V30 BEGIN CTAB
M  V30 COUNTS 70 74 0 0 1
M  V30 BEGIN ATOM
M  V30 1 C 38.508974 31.488768 56.277366 0
M  V30 2 N 38.631118 32.787870 60.874262 0
M  V30 3 C 40.269456 31.112791 63.610271 0
M  V30 4 C 42.086908 30.022771 65.002286 0
M  V30 5 C 40.798527 33.758175 61.635109 0
M  V30 6 C 36.943307 37.252288 62.568899 0
M  V30 7 C 41.125026 30.012887 63.832296 0
M  V30 8 C 38.010568 36.821584 63.374447 0
M  V30 9 C 38.154496 32.836265 58.422443 0
M  V30 10 C 39.036326 36.034895 62.821640 0
M  V30 11 N 37.867403 31.642303 57.599117 0 CHG=1
M  V30 12 N 39.867523 33.431821 60.547317 0
M  V30 13 C 38.408267 28.566008 53.685873 0
M  V30 14 C 38.582798 27.581505 56.678452 0
M  V30 15 N 37.678922 27.573935 54.355553 0
M  V30 16 C 39.867529 30.546890 52.458337 0
M  V30 17 C 41.088583 28.904547 62.961144 0
M  V30 18 O 36.708550 31.869758 60.087936 0
M  V30 19 C 38.464977 32.305659 62.255740 0
M  V30 20 C 39.378814 31.104710 62.514128 0
M  V30 21 O 39.835280 26.530567 54.873475 0
M  V30 22 C 38.530669 26.866005 55.309879 0 CFG=1
M  V30 23 N 39.476949 30.756659 53.739901 0
M  V30 24 O 43.383187 30.432360 64.619263 0
M  V30 25 C 36.900714 36.895261 61.211451 0
M  V30 26 C 40.093614 34.842157 60.871056 0 CFG=1
M  V30 27 C 39.154835 29.017656 56.677993 0
M  V30 28 C 38.825790 28.366598 52.360397 0
M  V30 29 C 40.199297 28.893276 61.870958 0
M  V30 30 C 37.764211 32.466311 59.876368 0
M  V30 31 C 38.994134 35.662332 61.461068 0
M  V30 32 F 35.959022 38.016421 63.098291 0
M  V30 33 C 39.345145 29.989741 61.646921 0
M  V30 34 C 38.754717 29.777133 54.333876 0
M  V30 35 C 38.359960 30.015015 55.792991 0 CFG=2
M  V30 36 C 39.567761 29.376815 51.733446 0
M  V30 37 C 37.914893 36.097599 60.659773 0
M  V30 38 H 38.021046 32.175170 55.583175 0
M  V30 39 H 39.563148 31.763812 56.325842 0
M  V30 40 H 40.300370 31.963043 64.276933 0
M  V30 41 H 41.714846 30.683498 65.786334 0
M  V30 42 H 42.140968 29.021889 65.433783 0
M  V30 43 H 40.558707 33.693222 62.689034 0
M  V30 44 H 41.856203 33.602586 61.439825 0
M  V30 45 H 38.046352 37.099705 64.417853 0
M  V30 46 H 39.198874 33.100043 58.271531 0
M  V30 47 H 37.553318 33.677766 58.072685 0
M  V30 48 H 39.858420 35.714724 63.443356 0
M  V30 49 H 38.106571 30.839440 58.158911 0
M  V30 50 H 39.170822 26.974699 57.369395 0
M  V30 51 H 37.577397 27.604237 57.100809 0
M  V30 52 H 36.860308 27.940673 54.818276 0
M  V30 53 H 40.438650 31.338861 51.998032 0
M  V30 54 H 41.745415 28.063159 63.129468 0
M  V30 55 H 38.658250 33.093268 62.979796 0
M  V30 56 H 37.435540 32.005275 62.453937 0
M  V30 57 H 40.118485 25.756252 55.336081 0
M  V30 58 H 38.034440 25.906873 55.469097 0
M  V30 59 H 43.953043 30.384296 65.372254 0
M  V30 60 H 36.083882 37.232021 60.590750 0
M  V30 61 H 40.734118 35.459749 60.253280 0
M  V30 62 H 39.158417 29.348783 57.715816 0
M  V30 63 H 40.202773 29.007115 56.373405 0
M  V30 64 H 38.582352 27.453362 51.835762 0
M  V30 65 H 40.172721 28.042263 61.205344 0
M  V30 66 H 38.665479 29.976733 60.809046 0
M  V30 67 H 37.296736 29.782278 55.870760 0
M  V30 68 H 39.905393 29.259559 50.713982 0
M  V30 69 H 37.867995 35.825281 59.616424 0
M  V30 70 H 36.850473 31.622992 57.451076 0
M  V30 END ATOM
M  V30 BEGIN BOND
M  V30 1 2 7 3
M  V30 2 1 7 4
M  V30 3 1 8 6
M  V30 4 2 10 8
M  V30 5 1 11 1
M  V30 6 1 11 9
M  V30 7 1 12 2
M  V30 8 1 12 5
M  V30 9 1 15 13
M  V30 10 1 17 7
M  V30 11 1 19 2
M  V30 12 1 20 3
M  V30 13 1 20 19
M  V30 14 1 22 14
M  V30 15 1 22 15
M  V30 16 1 22 21
M  V30 17 1 23 16
M  V30 18 1 24 4
M  V30 19 2 25 6
M  V30 20 1 26 5
M  V30 21 1 26 12
M  V30 22 1 27 14
M  V30 23 2 28 13
M  V30 24 2 29 17
M  V30 25 1 30 2
M  V30 26 1 30 9
M  V30 27 2 30 18
M  V30 28 1 31 10
M  V30 29 1 31 26
M  V30 30 1 32 6
M  V30 31 2 33 20
M  V30 32 1 33 29
M  V30 33 1 34 13
M  V30 34 2 34 23
M  V30 35 1 35 1
M  V30 36 1 35 27
M  V30 37 1 35 34
M  V30 38 2 36 16
M  V30 39 1 36 28
M  V30 40 1 37 25
M  V30 41 2 37 31
M  V30 42 1 38 1
M  V30 43 1 39 1
M  V30 44 1 40 3
M  V30 45 1 41 4
M  V30 46 1 42 4
M  V30 47 1 43 5
M  V30 48 1 44 5
M  V30 49 1 45 8
M  V30 50 1 46 9
M  V30 51 1 47 9
M  V30 52 1 48 10
M  V30 53 1 49 11
M  V30 54 1 50 14
M  V30 55 1 51 14
M  V30 56 1 52 15
M  V30 57 1 53 16
M  V30 58 1 54 17
M  V30 59 1 55 19
M  V30 60 1 56 19
M  V30 61 1 57 21
M  V30 62 1 22 58 CFG=1
M  V30 63 1 59 24
M  V30 64 1 60 25
M  V30 65 1 26 61 CFG=3
M  V30 66 1 62 27
M  V30 67 1 63 27
M  V30 68 1 64 28
M  V30 69 1 65 29
M  V30 70 1 66 33
M  V30 71 1 35 67 CFG=3
M  V30 72 1 68 36
M  V30 73 1 69 37
M  V30 74 1 70 11
M  V30 END BOND
M  V30 END CTAB
M  END
>  <i_epik_Tot_Q>  (1) 
1

>  <i_epik_Tot_abs_Q>  (1) 
1

>  <i_i_glide_confnum>  (1) 
133

>  <i_i_glide_lignum>  (1) 
29

>  <i_i_glide_posenum>  (1) 
51

>  <i_i_glide_rotatable_bonds>  (1) 
12

>  <i_lp_mmshare_version>  (1) 
72125

>  <i_m_source_file_index>  (1) 
9

>  <i_f3d_flags>  (1) 
0

>  <num_sample>  (1) 
50

>  <b_lp_Chiralities_Consistent>  (1) 
1

>  <r_epik_Charging_Adjusted_Penalty>  (1) 
0.46903428826383708

>  <r_epik_Ionization_Penalty>  (1) 
0.30166015279675507

>  <r_epik_Ionization_Penalty_Charging>  (1) 
0.29766720737570945

>  <r_epik_Ionization_Penalty_Neutral>  (1) 
0.0039929454210456379

>  <r_epik_State_Penalty>  (1) 
0.17136708088812766

>  <r_glide_ring_energy>  (1) 
0

>  <r_i_docking_score>  (1) 
-8.611466285989037

>  <r_i_glide_ecoul>  (1) 
-6.0519234120413756

>  <r_i_glide_eff_state_penalty>  (1) 
0.17136708088812766

>  <r_i_glide_einternal>  (1) 
5.9236903931072931

>  <r_i_glide_emodel>  (1) 
-95.072621273832084

>  <r_i_glide_emodel_strain>  (1) 
0

>  <r_i_glide_energy>  (1) 
-57.412917171751751

>  <r_i_glide_erotb>  (1) 
0.79724194346153032

>  <r_i_glide_esite>  (1) 
-0.12657819961911912

>  <r_i_glide_evdw>  (1) 
-51.360993759710375

>  <r_i_glide_gscore>  (1) 
-8.7828333668771652

>  <r_i_glide_gscore_strain>  (1) 
0

>  <r_i_glide_hbond>  (1) 
-0.20000000000000001

>  <r_i_glide_ligand_efficiency>  (1) 
-0.23274233205375774

>  <r_i_glide_ligand_efficiency_ln>  (1) 
-1.8676251560181469

>  <r_i_glide_ligand_efficiency_sa>  (1) 
-0.77554908467257011

>  <r_i_glide_lipo>  (1) 
-4.2326332176149606

>  <r_i_glide_metal>  (1) 
-0

>  <r_i_glide_rewards>  (1) 
-1.5450256933128927

>  <r_lp_Energy>  (1) 
69.367840000000001

>  <s_epik_Chemistry_Notes>  (1) 
This compound contains an acetal/aminal-like group ( X-CH(R)-Y where X, Y are N, S, or O) that may be acid/base labile, releasing an aldehyde.

>  <s_epik_cmdline>  (1) 
J2VwaWtfcHl0aG9uJywgJy1waHQnLCAnMS4wJywgJy1waCcsICc3LjQnLCAnLXRuJywgJzgnLCAnLW1hJywgJzUwMCcsICctaW1hZScsICc8aW5maWxlLm1hZT4nLCAnLW9tYWUnLCAnPG91dGZpbGUubWFlPic=

>  <s_epik_input>  (1) 
W2NIXTFbY0hdW2NIXW5jKGMxMilbQ0BASF0oW0NIMl1bQ0gyXVtDQEBIXShbTkhdMilbT0hdKVtDSDJdW05IXVtDSDJdQyg9TylOKFtDSDJdYyhbY0hdW2NIXVtjSF0zKVtjSF1jM1tDSDJdW09IXSlONFtDSDJdW0NAQEhdNGMoW2NIXVtjSF01KVtjSF1bY0hdYzVG

>  <s_glide_docking_method>  (1) 
confgen

>  <s_i_glide_gridfile>  (1) 
gpcr_5ht2c_6bqh_protein_autoprepared_prepared

>  <s_lp_Force_Field>  (1) 
S-OPLS

>  <s_lp_Variant>  (1) 
DiffSBDD_8_num_sample_50-1

>  <s_m_source_file>  (1) 
generated__ligand_DiffSBDD_2026-05-06_prepared.sdf

>  <GenAI_Model>  (1) 
DiffSBDD

>  <Protein>  (1) 
GPCR_5HT2C

$$$$
DiffSBDD_21_num_sample_50
     RDKit          3D

  0  0  0  0  0  0  0  0  0  0999 V3000
M  V30 BEGIN CTAB
M  V30 COUNTS 47 48 0 0 1
M  V30 BEGIN ATOM
M  V30 1 C 38.475966 27.551829 56.202644 0
M  V30 2 C 39.467780 30.253047 52.797183 0
M  V30 3 C 38.430518 30.367521 55.082965 0
M  V30 4 C 39.010528 27.479104 52.542143 0
M  V30 5 C 39.110612 32.222701 56.748941 0
M  V30 6 N 37.867211 32.907044 57.063598 0
M  V30 7 O 36.311747 32.612901 59.858597 0
M  V30 8 C 37.544069 24.545958 56.639831 0
M  V30 9 C 38.200145 27.217725 54.917833 0
M  V30 10 C 37.865565 33.615791 58.335859 0
M  V30 11 C 39.152629 31.702356 55.300371 0
M  V30 12 O 37.523104 30.031337 55.840901 0
M  V30 13 O 37.326260 31.222202 61.853438 0
M  V30 14 C 37.496057 32.756719 59.544816 0
M  V30 15 C 38.422423 31.457895 61.343250 0
M  V30 16 C 38.700684 28.111385 53.773597 0
M  V30 17 C 39.794267 29.585669 51.602431 0
M  V30 18 C 37.195085 24.857651 55.257271 0
M  V30 19 C 37.467381 25.983492 54.529653 0
M  V30 20 N 38.541013 32.206462 60.219345 0
M  V30 21 C 37.929025 25.402736 57.578135 0
M  V30 22 C 40.387232 30.362094 50.443114 0
M  V30 23 C 38.022098 26.862897 57.436030 0
M  V30 24 S 39.855031 30.796799 62.126231 0 CHG=-1
M  V30 25 C 39.551209 28.210642 51.472297 0
M  V30 26 C 38.895143 29.552560 53.888697 0
M  V30 27 H 39.065908 28.425005 56.391795 0
M  V30 28 H 39.623108 31.319525 52.860780 0
M  V30 29 H 38.866074 26.421431 52.428672 0
M  V30 30 H 39.286528 31.411935 57.456358 0
M  V30 31 H 39.922024 32.937705 56.856561 0
M  V30 32 H 36.998694 32.358170 56.963151 0
M  V30 33 H 37.467221 23.514145 56.936200 0
M  V30 34 H 38.854611 34.020759 58.523617 0
M  V30 35 H 37.164203 34.447895 58.270319 0
M  V30 36 H 40.198204 31.562416 55.025980 0
M  V30 37 H 38.739788 32.449823 54.622814 0
M  V30 38 H 36.676660 24.074948 54.722601 0
M  V30 39 H 37.123112 25.952191 53.506628 0
M  V30 40 H 39.467238 32.376065 59.867698 0
M  V30 41 H 38.145191 25.019689 58.564289 0
M  V30 42 H 40.577762 29.717426 49.584693 0
M  V30 43 H 39.703649 31.151153 50.127359 0
M  V30 44 H 41.330439 30.822080 50.737077 0
M  V30 45 H 38.726611 27.174342 58.208253 0
M  V30 46 H 37.067747 27.297974 57.731511 0
M  V30 47 H 39.794272 27.706179 50.548291 0
M  V30 END ATOM
M  V30 BEGIN BOND
M  V30 1 1 6 5
M  V30 2 2 9 1
M  V30 3 1 10 6
M  V30 4 1 11 3
M  V30 5 1 11 5
M  V30 6 2 12 3
M  V30 7 2 14 7
M  V30 8 1 14 10
M  V30 9 2 15 13
M  V30 10 1 16 4
M  V30 11 1 16 9
M  V30 12 2 17 2
M  V30 13 1 18 8
M  V30 14 1 19 9
M  V30 15 2 19 18
M  V30 16 1 20 14
M  V30 17 1 20 15
M  V30 18 2 21 8
M  V30 19 1 22 17
M  V30 20 1 23 1
M  V30 21 1 23 21
M  V30 22 1 24 15
M  V30 23 2 25 4
M  V30 24 1 25 17
M  V30 25 1 26 2
M  V30 26 1 26 3
M  V30 27 2 26 16
M  V30 28 1 27 1
M  V30 29 1 28 2
M  V30 30 1 29 4
M  V30 31 1 30 5
M  V30 32 1 31 5
M  V30 33 1 32 6
M  V30 34 1 33 8
M  V30 35 1 34 10
M  V30 36 1 35 10
M  V30 37 1 36 11
M  V30 38 1 37 11
M  V30 39 1 38 18
M  V30 40 1 39 19
M  V30 41 1 40 20
M  V30 42 1 41 21
M  V30 43 1 42 22
M  V30 44 1 43 22
M  V30 45 1 44 22
M  V30 46 1 45 23
M  V30 47 1 46 23
M  V30 48 1 47 25
M  V30 END BOND
M  V30 END CTAB
M  END
>  <i_epik_Tot_Q>  (1) 
-1

>  <i_epik_Tot_abs_Q>  (1) 
1

>  <i_i_glide_confnum>  (1) 
733

>  <i_i_glide_lignum>  (1) 
59

>  <i_i_glide_posenum>  (1) 
299

>  <i_i_glide_rotatable_bonds>  (1) 
9

>  <i_lp_mmshare_version>  (1) 
72125

>  <i_m_source_file_index>  (1) 
22

>  <i_f3d_flags>  (1) 
0

>  <num_sample>  (1) 
50

>  <b_lp_Chiralities_Consistent>  (1) 
1

>  <r_epik_Charging_Adjusted_Penalty>  (1) 
0.22945974625511478

>  <r_epik_Ionization_Penalty>  (1) 
0.22945989326340552

>  <r_epik_Ionization_Penalty_Charging>  (1) 
1.0968492178591481e-07

>  <r_epik_Ionization_Penalty_Neutral>  (1) 
0.22945978357848373

>  <r_epik_State_Penalty>  (1) 
0.229459636570193

>  <r_glide_ring_energy>  (1) 
0

>  <r_i_docking_score>  (1) 
-8.5868063143350355

>  <r_i_glide_ecoul>  (1) 
-9.9561221913090261

>  <r_i_glide_eff_state_penalty>  (1) 
0.229459636570193

>  <r_i_glide_einternal>  (1) 
24.564401953896265

>  <r_i_glide_emodel>  (1) 
-68.161238973697408

>  <r_i_glide_emodel_strain>  (1) 
0.29118679756814458

>  <r_i_glide_energy>  (1) 
-54.621219189010745

>  <r_i_glide_erotb>  (1) 
1.1299975728892471

>  <r_i_glide_esite>  (1) 
-0.045757078834818894

>  <r_i_glide_evdw>  (1) 
-44.665096997701717

>  <r_i_glide_gscore>  (1) 
-8.8162659509052279

>  <r_i_glide_gscore_strain>  (1) 
0

>  <r_i_glide_hbond>  (1) 
-0.45599999999999996

>  <r_i_glide_ligand_efficiency>  (1) 
-0.33026178132057826

>  <r_i_glide_ligand_efficiency_ln>  (1) 
-2.0165832873119598

>  <r_i_glide_ligand_efficiency_sa>  (1) 
-0.97839922870742813

>  <r_i_glide_lipo>  (1) 
-3.9613929481568735

>  <r_i_glide_metal>  (1) 
-0

>  <r_i_glide_rewards>  (1) 
-1.7564403182213413

>  <r_lp_Energy>  (1) 
38.298136999999997

>  <r_lp_tautomer_probability>  (1) 
0.99980002499700049

>  <s_epik_cmdline>  (1) 
J2VwaWtfcHl0aG9uJywgJy1waHQnLCAnMS4wJywgJy1waCcsICc3LjQnLCAnLXRuJywgJzgnLCAnLW1hJywgJzUwMCcsICctaW1hZScsICc8aW5maWxlLm1hZT4nLCAnLW9tYWUnLCAnPG91dGZpbGUubWFlPic=

>  <s_epik_input>  (1) 
W0NIXTE9W0NIXVtDSF09W0NIXVtDSDJdW0NIXT1DMWMyW2NIXVtjSF1jKFtDSDNdKVtjSF1jMkMoPU8pW0NIMl1bQ0gyXVtOSF1bQ0gyXUMoPU8pW05IXUMoPU8pW1NIXQ==

>  <s_glide_docking_method>  (1) 
confgen

>  <s_i_glide_gridfile>  (1) 
gpcr_5ht2c_6bqh_protein_autoprepared_prepared

>  <s_lp_Force_Field>  (1) 
S-OPLS

>  <s_lp_Variant>  (1) 
DiffSBDD_21_num_sample_50-1

>  <s_m_source_file>  (1) 
generated__ligand_DiffSBDD_2026-05-06_prepared.sdf

>  <GenAI_Model>  (1) 
DiffSBDD

>  <Protein>  (1) 
GPCR_5HT2C

$$$$
DiffSBDD_4_num_sample_50
     RDKit          3D

  0  0  0  0  0  0  0  0  0  0999 V3000
M  V30 BEGIN CTAB
M  V30 COUNTS 73 75 0 0 1
M  V30 BEGIN ATOM
M  V30 1 C 38.947401 28.934069 52.980586 0
M  V30 2 C 39.758240 34.557414 62.253856 0
M  V30 3 C 38.008972 36.017990 61.541378 0
M  V30 4 N 39.248926 32.600445 61.339005 0
M  V30 5 C 36.729737 25.452156 56.673016 0
M  V30 6 C 38.601703 37.081297 62.247726 0
M  V30 7 C 40.173487 33.198379 62.123350 0
M  V30 8 N 38.277491 28.069634 56.094670 0
M  V30 9 C 39.148446 29.874812 58.704378 0
M  V30 10 C 37.955432 26.791733 54.127115 0
M  V30 11 O 40.488599 28.504686 56.253493 0
M  V30 12 C 39.311339 31.215316 60.888183 0
M  V30 13 F 40.399582 30.453908 49.888226 0
M  V30 14 C 39.358901 27.877670 50.830420 0
M  V30 15 C 38.089576 33.515850 60.874007 0
M  V30 16 C 40.354919 30.171061 51.189409 0
M  V30 17 N 38.684049 26.943775 51.727174 0 CHG=1
M  V30 18 C 40.411487 35.589025 62.977978 0
M  V30 19 C 38.990377 30.104134 57.195002 0
M  V30 20 C 38.931225 27.404070 53.097524 0 CFG=1
M  V30 21 C 38.621733 34.769271 61.577336 0
M  V30 22 O 36.858053 36.207403 60.836574 0
M  V30 23 C 39.811516 36.872308 62.969605 0
M  V30 24 C 39.185573 29.229671 51.488330 0 CFG=2
M  V30 25 C 38.222726 25.701338 56.432156 0
M  V30 26 C 39.317580 28.821101 56.466020 0
M  V30 27 N 38.491485 26.835136 55.502511 0
M  V30 28 C 38.839587 24.421423 55.877874 0
M  V30 29 C 41.708662 35.359371 63.750509 0
M  V30 30 N 41.434858 35.221418 65.187105 0 CHG=1
M  V30 31 F 40.227061 31.299512 51.879602 0
M  V30 32 C 38.734462 31.121074 59.466926 0
M  V30 33 C 38.871177 25.913968 57.821769 0
M  V30 34 O 41.177343 32.694877 62.624739 0
M  V30 35 H 37.994189 29.360379 53.295159 0
M  V30 36 H 39.719228 29.373097 53.612169 0
M  V30 37 H 36.267423 26.277795 57.209097 0
M  V30 38 H 36.196697 25.284412 55.740720 0
M  V30 39 H 36.598640 24.563650 57.289043 0
M  V30 40 H 38.139271 38.039320 62.239201 0
M  V30 41 H 36.568680 37.106763 60.816722 0
M  V30 42 H 37.325714 28.348479 56.287376 0
M  V30 43 H 40.187270 29.622520 58.922778 0
M  V30 44 H 38.543745 29.033233 59.045103 0
M  V30 45 H 37.793583 25.751288 53.852816 0
M  V30 46 H 36.973956 27.265532 54.089004 0
M  V30 47 H 40.349122 30.877439 60.891875 0
M  V30 48 H 38.761032 30.569735 61.573467 0
M  V30 49 H 38.927088 27.860027 49.841096 0
M  V30 50 H 40.409539 27.621719 50.735482 0
M  V30 51 H 37.122625 33.205400 61.271728 0
M  V30 52 H 38.037426 33.684710 59.798495 0
M  V30 53 H 41.309181 29.719729 51.452338 0
M  V30 54 H 39.021112 26.002431 51.583728 0
M  V30 55 H 37.974883 30.426669 56.956910 0
M  V30 56 H 39.659474 30.891328 56.846304 0
M  V30 57 H 39.934481 27.055500 53.334989 0
M  V30 58 H 40.267291 37.688850 63.506490 0
M  V30 59 H 38.267439 29.621436 51.068438 0
M  V30 60 H 39.863312 24.597261 55.548752 0
M  V30 61 H 38.868253 23.647537 56.647613 0
M  V30 62 H 38.277772 24.021260 55.034330 0
M  V30 63 H 42.315715 34.526732 63.420778 0
M  V30 64 H 42.340047 36.238171 63.609560 0
M  V30 65 H 42.301963 35.076453 65.682173 0
M  V30 66 H 40.999530 36.073985 65.513476 0
M  V30 67 H 37.645136 31.185297 59.492685 0
M  V30 68 H 39.067340 31.980050 58.886003 0
M  V30 69 H 38.479679 26.787354 58.341503 0
M  V30 70 H 38.660593 25.076368 58.478362 0
M  V30 71 H 39.954837 26.016132 57.752942 0
M  V30 72 H 37.687241 26.968423 51.541616 0
M  V30 73 H 40.817786 34.437613 65.340443 0
M  V30 END ATOM
M  V30 BEGIN BOND
M  V30 1 1 6 3
M  V30 2 1 7 2
M  V30 3 1 7 4
M  V30 4 1 12 4
M  V30 5 1 15 4
M  V30 6 1 16 13
M  V30 7 1 17 14
M  V30 8 2 18 2
M  V30 9 1 19 9
M  V30 10 1 20 1
M  V30 11 1 20 10
M  V30 12 1 20 17
M  V30 13 1 21 2
M  V30 14 2 21 3
M  V30 15 1 21 15
M  V30 16 1 22 3
M  V30 17 2 23 6
M  V30 18 1 23 18
M  V30 19 1 24 1
M  V30 20 1 24 14
M  V30 21 1 24 16
M  V30 22 1 25 5
M  V30 23 1 26 8
M  V30 24 2 26 11
M  V30 25 1 26 19
M  V30 26 1 27 8
M  V30 27 1 27 10
M  V30 28 1 27 25
M  V30 29 1 28 25
M  V30 30 1 29 18
M  V30 31 1 30 29
M  V30 32 1 31 16
M  V30 33 1 32 9
M  V30 34 1 32 12
M  V30 35 1 33 25
M  V30 36 2 34 7
M  V30 37 1 35 1
M  V30 38 1 36 1
M  V30 39 1 37 5
M  V30 40 1 38 5
M  V30 41 1 39 5
M  V30 42 1 40 6
M  V30 43 1 41 22
M  V30 44 1 42 8
M  V30 45 1 43 9
M  V30 46 1 44 9
M  V30 47 1 45 10
M  V30 48 1 46 10
M  V30 49 1 47 12
M  V30 50 1 48 12
M  V30 51 1 49 14
M  V30 52 1 50 14
M  V30 53 1 51 15
M  V30 54 1 52 15
M  V30 55 1 53 16
M  V30 56 1 54 17
M  V30 57 1 55 19
M  V30 58 1 56 19
M  V30 59 1 20 57 CFG=1
M  V30 60 1 58 23
M  V30 61 1 24 59 CFG=3
M  V30 62 1 60 28
M  V30 63 1 61 28
M  V30 64 1 62 28
M  V30 65 1 63 29
M  V30 66 1 64 29
M  V30 67 1 65 30
M  V30 68 1 66 30
M  V30 69 1 67 32
M  V30 70 1 68 32
M  V30 71 1 69 33
M  V30 72 1 70 33
M  V30 73 1 71 33
M  V30 74 1 72 17
M  V30 75 1 73 30
M  V30 END BOND
M  V30 END CTAB
M  END
>  <i_epik_Tot_Q>  (1) 
2

>  <i_epik_Tot_abs_Q>  (1) 
2

>  <i_i_glide_confnum>  (1) 
354

>  <i_i_glide_lignum>  (1) 
12

>  <i_i_glide_posenum>  (1) 
250

>  <i_i_glide_rotatable_bonds>  (1) 
13

>  <i_lp_mmshare_version>  (1) 
72125

>  <i_m_source_file_index>  (1) 
5

>  <i_f3d_flags>  (1) 
0

>  <num_sample>  (1) 
50

>  <b_lp_Chiralities_Consistent>  (1) 
1

>  <r_epik_Charging_Adjusted_Penalty>  (1) 
0.15324589145217746

>  <r_epik_Ionization_Penalty>  (1) 
0.11737889030673737

>  <r_epik_Ionization_Penalty_Charging>  (1) 
0.07766807882096001

>  <r_epik_Ionization_Penalty_Neutral>  (1) 
0.039710811485777361

>  <r_epik_State_Penalty>  (1) 
0.075577812631217448

>  <r_glide_ring_energy>  (1) 
0

>  <r_i_docking_score>  (1) 
-8.5529462497139797

>  <r_i_glide_ecoul>  (1) 
-2.9732034331131354

>  <r_i_glide_eff_state_penalty>  (1) 
0.075577812631217448

>  <r_i_glide_einternal>  (1) 
11.003507433098727

>  <r_i_glide_emodel>  (1) 
-70.453567663836338

>  <r_i_glide_emodel_strain>  (1) 
2.3090983083459378

>  <r_i_glide_energy>  (1) 
-45.210920341140323

>  <r_i_glide_erotb>  (1) 
0.78126008755577614

>  <r_i_glide_esite>  (1) 
0

>  <r_i_glide_evdw>  (1) 
-42.237716908027188

>  <r_i_glide_gscore>  (1) 
-8.628524062345198

>  <r_i_glide_gscore_strain>  (1) 
0

>  <r_i_glide_hbond>  (1) 
0

>  <r_i_glide_ligand_efficiency>  (1) 
-0.25155724263864648

>  <r_i_glide_ligand_efficiency_ln>  (1) 
-1.8895857285780997

>  <r_i_glide_ligand_efficiency_sa>  (1) 
-0.81494781194898247

>  <r_i_glide_lipo>  (1) 
-4.7293767221618772

>  <r_i_glide_metal>  (1) 
-0

>  <r_i_glide_rewards>  (1) 
-2.1225410673707668

>  <r_lp_Energy>  (1) 
24.236581999999999

>  <r_lp_tautomer_probability>  (1) 
0.99999999999736477

>  <s_epik_cmdline>  (1) 
J2VwaWtfcHl0aG9uJywgJy1waHQnLCAnMS4wJywgJy1waCcsICc3LjQnLCAnLXRuJywgJzgnLCAnLW1hJywgJzUwMCcsICctaW1hZScsICc8aW5maWxlLm1hZT4nLCAnLW9tYWUnLCAnPG91dGZpbGUubWFlPic=

>  <s_epik_input>  (1) 
RltDSF0oRilbQ0BASF0oW0NIMl1bTkhdMSlbQ0gyXVtDQEhdMVtDSDJdTihDKFtDSDNdKShbQ0gzXSlbQ0gzXSlbTkhdQyg9TylbQ0gyXVtDSDJdW0NIMl1bQ0gyXU4oQzI9TylbQ0gyXUMoPUMyMylDKD1PKVtDSDJdW0NIXT1DM1tDSDJdW05IMl0=

>  <s_glide_docking_method>  (1) 
confgen

>  <s_i_glide_gridfile>  (1) 
gpcr_5ht2c_6bqh_protein_autoprepared_prepared

>  <s_lp_Force_Field>  (1) 
S-OPLS

>  <s_lp_Variant>  (1) 
DiffSBDD_4_num_sample_50-1

>  <s_m_source_file>  (1) 
generated__ligand_DiffSBDD_2026-05-06_prepared.sdf

>  <GenAI_Model>  (1) 
DiffSBDD

>  <Protein>  (1) 
GPCR_5HT2C

$$$$
DiffSBDD_7_num_sample_50
     RDKit          3D

  0  0  0  0  0  0  0  0  0  0999 V3000
M  V30 BEGIN CTAB
M  V30 COUNTS 93 96 0 0 1
M  V30 BEGIN ATOM
M  V30 1 C 39.132707 26.036984 56.049457 0 CFG=1
M  V30 2 O 40.552646 29.993812 61.036344 0
M  V30 3 C 38.729471 29.479395 54.945923 0 CFG=1
M  V30 4 C 38.977329 33.246676 60.793178 0
M  V30 5 O 37.119118 25.567544 57.249005 0 CHG=-1
M  V30 6 N 40.758679 33.304265 65.503942 0
M  V30 7 S 40.888469 28.743374 65.533758 0
M  V30 8 N 42.628205 26.170519 67.294877 0
M  V30 9 N 38.647161 31.841323 60.434826 0 CFG=1 CHG=1
M  V30 10 S 43.249776 26.824059 64.857299 0
M  V30 11 C 41.095352 33.720071 66.737026 0
M  V30 12 C 39.532924 29.009777 52.408797 0
M  V30 13 C 40.779524 28.629389 60.676995 0
M  V30 14 C 39.629728 30.164819 62.114134 0 CFG=1
M  V30 15 C 42.601168 28.149344 65.944138 0 CFG=2
M  V30 16 N 41.341216 34.022087 67.824665 0
M  V30 17 O 40.187677 33.059192 62.871516 0
M  V30 18 C 38.854186 30.695700 55.838980 0
M  V30 19 O 45.467302 28.707974 66.888264 0
M  V30 20 C 37.012679 27.821403 53.732654 0
M  V30 21 C 40.320817 30.668806 63.417632 0 CFG=2
M  V30 22 C 45.116141 28.078645 68.101958 0 CFG=1
M  V30 23 O 37.341812 24.684534 55.216921 0
M  V30 24 C 42.548426 27.613309 67.406919 0 CFG=2
M  V30 25 O 43.067403 24.394474 65.866453 0
M  V30 26 C 41.062946 32.037128 63.338667 0 CFG=2
M  V30 27 C 39.179215 27.535744 56.366928 0
M  V30 28 C 37.743160 25.373637 56.181525 0
M  V30 29 C 39.084657 29.505570 57.984078 0
M  V30 30 C 38.233306 30.508004 57.217670 0 CFG=1
M  V30 31 C 38.136788 31.866381 57.960202 0
M  V30 32 C 38.394815 30.981692 61.630526 0
M  V30 33 C 38.962405 28.047827 57.598227 0
M  V30 34 C 43.595019 28.210467 68.389047 0
M  V30 35 C 39.867364 25.636339 54.756544 0
M  V30 36 C 37.498892 29.203717 54.102379 0 CFG=2
M  V30 37 C 40.330696 33.383355 61.494446 0
M  V30 38 C 41.602756 32.458681 64.721806 0
M  V30 39 C 37.567988 31.788938 59.397278 0
M  V30 40 O 40.550718 29.882375 66.499113 0
M  V30 41 C 41.280294 29.596903 63.960696 0
M  V30 42 C 45.678099 26.651829 68.134439 0
M  V30 43 C 38.738662 29.777436 53.450373 0 CFG=1
M  V30 44 C 42.961296 25.593164 66.099600 0
M  V30 45 O 42.309766 29.335445 63.345800 0
M  V30 46 O 42.692540 32.090909 65.152554 0
M  V30 47 O 39.524955 28.328915 55.280953 0
M  V30 48 H 39.710264 25.577184 56.853066 0
M  V30 49 H 38.186958 33.684782 61.405121 0
M  V30 50 H 39.019422 33.837651 59.877541 0
M  V30 51 H 39.867845 33.602858 65.138128 0
M  V30 52 H 42.443150 25.572751 68.083391 0
M  V30 53 H 39.760093 27.993054 52.721637 0
M  V30 54 H 38.972630 28.963303 51.474651 0
M  V30 55 H 40.473510 29.523171 52.212329 0
M  V30 56 H 41.441997 28.580446 59.813588 0
M  V30 57 H 41.246782 28.056280 61.475806 0
M  V30 58 H 39.850656 28.118619 60.423234 0
M  V30 59 H 39.214971 29.189219 62.378496 0
M  V30 60 H 43.249665 29.020108 65.865720 0
M  V30 61 H 38.351574 31.529514 55.348601 0
M  V30 62 H 39.903509 30.979715 55.908750 0
M  V30 63 H 46.416190 28.822270 66.823526 0
M  V30 64 H 37.777788 27.216634 53.264744 0
M  V30 65 H 36.667696 27.300293 54.617640 0
M  V30 66 H 36.197711 27.903072 53.021655 0
M  V30 67 H 39.530886 30.763788 64.163087 0
M  V30 68 H 45.620298 28.634208 68.892739 0
M  V30 69 H 41.569395 27.816886 67.845929 0
M  V30 70 H 41.943173 31.948165 62.698710 0
M  V30 71 H 40.135732 29.790524 57.972287 0
M  V30 72 H 38.776122 29.520188 59.023272 0
M  V30 73 H 37.222422 30.111082 57.106618 0
M  V30 74 H 37.476250 32.510746 57.377001 0
M  V30 75 H 39.099198 32.375796 57.951539 0
M  V30 76 H 37.948102 31.551374 62.446497 0
M  V30 77 H 37.640525 30.251903 61.357992 0
M  V30 78 H 38.716559 27.368976 58.403670 0
M  V30 79 H 43.407305 27.783053 69.376110 0
M  V30 80 H 43.364111 29.272101 68.498884 0
M  V30 81 H 39.399339 26.031459 53.863645 0
M  V30 82 H 40.900471 25.980533 54.768349 0
M  V30 83 H 39.866753 24.553969 54.653383 0
M  V30 84 H 36.677224 29.893281 54.282340 0
M  V30 85 H 40.669997 34.419351 61.442702 0
M  V30 86 H 41.078687 32.788345 60.970940 0
M  V30 87 H 36.955974 30.890080 59.471657 0
M  V30 88 H 36.864103 32.606207 59.562512 0
M  V30 89 H 45.320401 26.108861 69.009457 0
M  V30 90 H 45.398938 26.083593 67.250572 0
M  V30 91 H 46.768342 26.663831 68.167773 0
M  V30 92 H 38.671600 30.831986 53.188187 0
M  V30 93 H 39.458932 31.429093 59.992793 0
M  V30 END ATOM
M  V30 BEGIN BOND
M  V30 1 1 9 4
M  V30 2 1 11 6
M  V30 3 1 13 2
M  V30 4 1 14 2
M  V30 5 1 15 7
M  V30 6 1 15 10
M  V30 7 3 16 11
M  V30 8 1 18 3
M  V30 9 1 21 14
M  V30 10 1 22 19
M  V30 11 1 24 8
M  V30 12 1 24 15
M  V30 13 1 26 17
M  V30 14 1 26 21
M  V30 15 1 27 1
M  V30 16 1 28 1
M  V30 17 1 28 5
M  V30 18 2 28 23
M  V30 19 1 30 18
M  V30 20 1 30 29
M  V30 21 1 31 30
M  V30 22 1 32 9
M  V30 23 1 32 14
M  V30 24 2 33 27
M  V30 25 1 33 29
M  V30 26 1 34 22
M  V30 27 1 34 24
M  V30 28 1 35 1
M  V30 29 1 36 3
M  V30 30 1 36 20
M  V30 31 1 37 4
M  V30 32 1 37 17
M  V30 33 1 38 6
M  V30 34 1 38 26
M  V30 35 1 39 9
M  V30 36 1 39 31
M  V30 37 2 40 7
M  V30 38 1 7 41 CFG=3
M  V30 39 1 41 21
M  V30 40 1 42 22
M  V30 41 1 43 3
M  V30 42 1 43 12
M  V30 43 1 43 36
M  V30 44 1 44 8
M  V30 45 1 44 10
M  V30 46 2 44 25
M  V30 47 2 45 41
M  V30 48 2 46 38
M  V30 49 1 3 47 CFG=3
M  V30 50 1 47 27
M  V30 51 1 1 48 CFG=1
M  V30 52 1 49 4
M  V30 53 1 50 4
M  V30 54 1 51 6
M  V30 55 1 52 8
M  V30 56 1 53 12
M  V30 57 1 54 12
M  V30 58 1 55 12
M  V30 59 1 56 13
M  V30 60 1 57 13
M  V30 61 1 58 13
M  V30 62 1 14 59 CFG=1
M  V30 63 1 15 60 CFG=1
M  V30 64 1 61 18
M  V30 65 1 62 18
M  V30 66 1 63 19
M  V30 67 1 64 20
M  V30 68 1 65 20
M  V30 69 1 66 20
M  V30 70 1 21 67 CFG=1
M  V30 71 1 22 68 CFG=1
M  V30 72 1 24 69 CFG=1
M  V30 73 1 26 70 CFG=3
M  V30 74 1 71 29
M  V30 75 1 72 29
M  V30 76 1 30 73 CFG=3
M  V30 77 1 74 31
M  V30 78 1 75 31
M  V30 79 1 76 32
M  V30 80 1 77 32
M  V30 81 1 78 33
M  V30 82 1 79 34
M  V30 83 1 80 34
M  V30 84 1 81 35
M  V30 85 1 82 35
M  V30 86 1 83 35
M  V30 87 1 36 84 CFG=1
M  V30 88 1 85 37
M  V30 89 1 86 37
M  V30 90 1 87 39
M  V30 91 1 88 39
M  V30 92 1 89 42
M  V30 93 1 90 42
M  V30 94 1 91 42
M  V30 95 1 43 92 CFG=1
M  V30 96 1 9 93 CFG=3
M  V30 END BOND
M  V30 END CTAB
M  END
>  <i_epik_Tot_Q>  (1) 
0

>  <i_epik_Tot_abs_Q>  (1) 
2

>  <i_i_glide_confnum>  (1) 
3155

>  <i_i_glide_lignum>  (1) 
25

>  <i_i_glide_posenum>  (1) 
168

>  <i_i_glide_rotatable_bonds>  (1) 
14

>  <i_lp_mmshare_version>  (1) 
72125

>  <i_m_source_file_index>  (1) 
8

>  <i_f3d_flags>  (1) 
0

>  <num_sample>  (1) 
50

>  <b_lp_Chiralities_Consistent>  (1) 
1

>  <r_epik_Charging_Adjusted_Penalty>  (1) 
2.2678334573304797

>  <r_epik_Ionization_Penalty>  (1) 
1.1498882506810455

>  <r_epik_Ionization_Penalty_Charging>  (1) 
1.1031410554290029

>  <r_epik_Ionization_Penalty_Neutral>  (1) 
0.046747195252042517

>  <r_epik_State_Penalty>  (1) 
1.164692401901477

>  <r_glide_ring_energy>  (1) 
0

>  <r_i_docking_score>  (1) 
-8.527954381459665

>  <r_i_glide_ecoul>  (1) 
-9.03353702442495

>  <r_i_glide_eff_state_penalty>  (1) 
1.164692401901477

>  <r_i_glide_einternal>  (1) 
14.169490867484441

>  <r_i_glide_emodel>  (1) 
-96.844658014995844

>  <r_i_glide_emodel_strain>  (1) 
0.48398992617381964

>  <r_i_glide_energy>  (1) 
-64.816798929954913

>  <r_i_glide_erotb>  (1) 
0.2643022598508753

>  <r_i_glide_esite>  (1) 
-0.0063558476228061369

>  <r_i_glide_evdw>  (1) 
-55.783261905529969

>  <r_i_glide_gscore>  (1) 
-9.6926467833611412

>  <r_i_glide_gscore_strain>  (1) 
0

>  <r_i_glide_hbond>  (1) 
-0.59262892803577316

>  <r_i_glide_ligand_efficiency>  (1) 
-0.18144583790339713

>  <r_i_glide_ligand_efficiency_ln>  (1) 
-1.7582875990109847

>  <r_i_glide_ligand_efficiency_sa>  (1) 
-0.65480647195839781

>  <r_i_glide_lipo>  (1) 
-3.1969964354157345

>  <r_i_glide_metal>  (1) 
-0

>  <r_i_glide_rewards>  (1) 
-2.0167741831974602

>  <r_lp_Energy>  (1) 
33.837415

>  <s_epik_Chemistry_Notes>  (1) 
This compound contains an acetal/aminal-like group ( X-CH(R)-Y where X, Y are N, S, or O) that may be acid/base labile, releasing an aldehyde.

>  <s_epik_cmdline>  (1) 
J2VwaWtfcHl0aG9uJywgJy1waHQnLCAnMS4wJywgJy1waCcsICc3LjQnLCAnLXRuJywgJzgnLCAnLW1hJywgJzUwMCcsICctaW1hZScsICc8aW5maWxlLm1hZT4nLCAnLW9tYWUnLCAnPG91dGZpbGUubWFlPic=

>  <s_epik_input>  (1) 
W09IXUMoPU8pW0NAQEhdKFtDSDNdKUMoTzEpPVtDSF1bQ0gyXVtDQEhdKFtDSDJdW0NAXTEyW0NASF0oW0NIM10pW0NAQEhdMltDSDNdKVtDSDJdW0NIMl1OM1tDSDJdW0NIMl1PW0NAQEhdKEMoPU8pW05IXUMjTilbQ0BASF0oW0NAQEhdKFtDSDJdMylPW0NIM10pQyg9TylTKD1PKVtDQEBIXTRTQyg9TylbTkhdW0NASF00W0NIMl1bQ0BIXShbT0hdKVtDSDNd

>  <s_glide_docking_method>  (1) 
confgen

>  <s_i_glide_gridfile>  (1) 
gpcr_5ht2c_6bqh_protein_autoprepared_prepared

>  <s_lp_Force_Field>  (1) 
S-OPLS

>  <s_lp_Variant>  (1) 
DiffSBDD_7_num_sample_50-3

>  <s_m_source_file>  (1) 
generated__ligand_DiffSBDD_2026-05-06_prepared.sdf

>  <GenAI_Model>  (1) 
DiffSBDD

>  <Protein>  (1) 
GPCR_5HT2C

$$$$
DiffSBDD_37_num_sample_50
     RDKit          3D

  0  0  0  0  0  0  0  0  0  0999 V3000
M  V30 BEGIN CTAB
M  V30 COUNTS 62 64 0 0 1
M  V30 BEGIN ATOM
M  V30 1 C 39.462991 30.094413 53.706149 0
M  V30 2 F 40.988584 31.221410 50.014594 0
M  V30 3 C 39.664746 29.401671 60.381034 0
M  V30 4 C 37.867271 29.451807 56.178640 0
M  V30 5 C 39.570600 31.033193 54.875003 0
M  V30 6 N 40.230189 30.093957 50.088080 0
M  V30 7 C 36.833985 32.038988 60.663643 0 CFG=1
M  V30 8 C 39.700124 27.626834 55.915428 0
M  V30 9 C 36.397212 33.445367 61.006119 0
M  V30 10 C 38.805699 27.935384 52.768382 0
M  V30 11 C 38.919853 28.800867 53.879663 0
M  V30 12 C 38.479529 28.334069 55.269344 0 CFG=2
M  V30 13 S 37.926312 31.139475 55.543839 0
M  V30 14 O 35.067400 33.379231 61.453489 0
M  V30 15 C 39.790257 29.656311 51.336779 0
M  V30 16 C 39.448391 32.517081 60.773839 0
M  V30 17 C 39.240750 28.363437 51.495834 0
M  V30 18 C 38.277933 31.576159 60.526606 0 CFG=1
M  V30 19 C 41.814104 27.571560 58.268974 0
M  V30 20 C 38.169368 25.115780 57.043884 0
M  V30 21 C 40.334016 28.002553 58.290775 0 CFG=2
M  V30 22 C 39.460587 25.762675 57.564225 0
M  V30 23 C 39.890804 30.514126 52.441836 0
M  V30 24 F 40.267399 29.221430 49.053500 0
M  V30 25 C 39.714298 28.015294 59.710852 0
M  V30 26 O 37.488665 31.279122 61.687614 0
M  V30 27 N 39.481715 27.230182 57.334142 0 CFG=2 CHG=1
M  V30 28 O 35.904922 31.337691 59.852880 0
M  V30 29 C 38.674842 30.365085 59.693309 0
M  V30 30 H 40.663928 29.835586 60.417140 0
M  V30 31 H 39.355031 29.263488 61.418471 0
M  V30 32 H 36.841772 29.249531 56.454894 0
M  V30 33 H 38.375038 29.496840 57.128666 0
M  V30 34 H 40.267406 30.672348 55.627339 0
M  V30 35 H 39.878706 32.021437 54.555336 0
M  V30 36 H 40.567987 28.282933 55.844837 0
M  V30 37 H 39.968946 26.753875 55.317842 0
M  V30 38 H 36.451403 34.071144 60.115165 0
M  V30 39 H 37.028332 33.883626 61.777834 0
M  V30 40 H 38.391928 26.944674 52.891985 0
M  V30 41 H 37.698976 27.585336 55.123694 0
M  V30 42 H 34.604437 32.805401 60.857878 0
M  V30 43 H 39.816762 32.920099 59.831582 0
M  V30 44 H 39.159940 33.354405 61.407383 0
M  V30 45 H 40.262402 31.996435 61.275951 0
M  V30 46 H 39.156829 27.700749 50.646030 0
M  V30 47 H 42.377841 28.123383 59.018646 0
M  V30 48 H 41.953680 26.512479 58.472897 0
M  V30 49 H 42.281434 27.773457 57.305331 0
M  V30 50 H 38.150888 24.051179 57.280590 0
M  V30 51 H 37.286590 25.565664 57.499299 0
M  V30 52 H 38.075393 25.209001 55.961793 0
M  V30 53 H 40.339978 29.035591 57.946281 0
M  V30 54 H 40.328088 25.287611 57.108659 0
M  V30 55 H 39.529495 25.574360 58.634829 0
M  V30 56 H 40.301800 31.505651 52.316947 0
M  V30 57 H 40.267427 27.332035 60.354920 0
M  V30 58 H 38.696692 27.621620 59.689280 0
M  V30 59 H 35.978138 31.621442 58.944451 0
M  V30 60 H 37.778868 29.802344 59.436005 0
M  V30 61 H 39.084117 30.741614 58.757984 0
M  V30 62 H 38.542366 27.534383 57.545618 0
M  V30 END ATOM
M  V30 BEGIN BOND
M  V30 1 1 5 1
M  V30 2 1 6 2
M  V30 3 1 9 7
M  V30 4 2 11 1
M  V30 5 1 11 10
M  V30 6 1 12 4
M  V30 7 1 12 8
M  V30 8 1 12 11
M  V30 9 1 13 4
M  V30 10 1 13 5
M  V30 11 1 14 9
M  V30 12 1 15 6
M  V30 13 2 17 10
M  V30 14 1 17 15
M  V30 15 1 18 7
M  V30 16 1 18 16 CFG=1
M  V30 17 1 21 19
M  V30 18 1 22 20
M  V30 19 1 23 1
M  V30 20 2 23 15
M  V30 21 1 24 6
M  V30 22 1 25 3
M  V30 23 1 25 21
M  V30 24 1 26 7
M  V30 25 1 26 18
M  V30 26 1 27 8
M  V30 27 1 27 21
M  V30 28 1 27 22
M  V30 29 1 7 28 CFG=3
M  V30 30 1 29 3
M  V30 31 1 29 18
M  V30 32 1 30 3
M  V30 33 1 31 3
M  V30 34 1 32 4
M  V30 35 1 33 4
M  V30 36 1 34 5
M  V30 37 1 35 5
M  V30 38 1 36 8
M  V30 39 1 37 8
M  V30 40 1 38 9
M  V30 41 1 39 9
M  V30 42 1 40 10
M  V30 43 1 12 41 CFG=3
M  V30 44 1 42 14
M  V30 45 1 43 16
M  V30 46 1 44 16
M  V30 47 1 45 16
M  V30 48 1 46 17
M  V30 49 1 47 19
M  V30 50 1 48 19
M  V30 51 1 49 19
M  V30 52 1 50 20
M  V30 53 1 51 20
M  V30 54 1 52 20
M  V30 55 1 21 53 CFG=3
M  V30 56 1 54 22
M  V30 57 1 55 22
M  V30 58 1 56 23
M  V30 59 1 57 25
M  V30 60 1 58 25
M  V30 61 1 59 28
M  V30 62 1 60 29
M  V30 63 1 61 29
M  V30 64 1 27 62 CFG=1
M  V30 END BOND
M  V30 END CTAB
M  END
>  <i_epik_Tot_Q>  (1) 
1

>  <i_epik_Tot_abs_Q>  (1) 
1

>  <i_i_glide_confnum>  (1) 
2136

>  <i_i_glide_lignum>  (1) 
91

>  <i_i_glide_posenum>  (1) 
27

>  <i_i_glide_rotatable_bonds>  (1) 
12

>  <i_lp_mmshare_version>  (1) 
72125

>  <i_m_source_file_index>  (1) 
38

>  <i_f3d_flags>  (1) 
0

>  <num_sample>  (1) 
50

>  <b_lp_Chiralities_Consistent>  (1) 
1

>  <r_epik_Charging_Adjusted_Penalty>  (1) 
0.031037112904587178

>  <r_epik_Ionization_Penalty>  (1) 
0.015538636701717824

>  <r_epik_Ionization_Penalty_Charging>  (1) 
0.015518556452293627

>  <r_epik_Ionization_Penalty_Neutral>  (1) 
2.0080249424197063e-05

>  <r_epik_State_Penalty>  (1) 
0.015518556452293551

>  <r_glide_ring_energy>  (1) 
0

>  <r_i_docking_score>  (1) 
-8.527510559812093

>  <r_i_glide_ecoul>  (1) 
-4.1243461445636047

>  <r_i_glide_eff_state_penalty>  (1) 
0.015518556452293551

>  <r_i_glide_einternal>  (1) 
10.389792351333327

>  <r_i_glide_emodel>  (1) 
-60.700330631520764

>  <r_i_glide_emodel_strain>  (1) 
4.2471221099382532

>  <r_i_glide_energy>  (1) 
-42.945414747525852

>  <r_i_glide_erotb>  (1) 
0.85436837262661747

>  <r_i_glide_esite>  (1) 
-0.040995446328493466

>  <r_i_glide_evdw>  (1) 
-38.821068602962249

>  <r_i_glide_gscore>  (1) 
-8.5430291162643872

>  <r_i_glide_gscore_strain>  (1) 
0.061780527484563308

>  <r_i_glide_hbond>  (1) 
-0.42630531172496577

>  <r_i_glide_ligand_efficiency>  (1) 
-0.29405208826938251

>  <r_i_glide_ligand_efficiency_ln>  (1) 
-1.9525836791867848

>  <r_i_glide_ligand_efficiency_sa>  (1) 
-0.903421178418084

>  <r_i_glide_lipo>  (1) 
-4.3806705862375566

>  <r_i_glide_metal>  (1) 
-0

>  <r_i_glide_rewards>  (1) 
-2.0515013202518979

>  <r_lp_Energy>  (1) 
43.254267999999996

>  <s_epik_cmdline>  (1) 
J2VwaWtfcHl0aG9uJywgJy1waHQnLCAnMS4wJywgJy1waCcsICc3LjQnLCAnLXRuJywgJzgnLCAnLW1hJywgJzUwMCcsICctaW1hZScsICc8aW5maWxlLm1hZT4nLCAnLW9tYWUnLCAnPG91dGZpbGUubWFlPic=

>  <s_epik_input>  (1) 
Rk4oRiljKFtjSF0xKVtjSF1bY0hdYyhjMTIpW0NASF0oW0NIMl1TW0NIMl0yKVtDSDJdTihbQ0gyXVtDSDNdKVtDQEhdKFtDSDNdKVtDSDJdW0NIMl1bQ0gyXVtDQEBdKE8zKShbQ0gzXSlDMyhbT0hdKVtDSDJdW09IXQ==

>  <s_glide_docking_method>  (1) 
confgen

>  <s_i_glide_gridfile>  (1) 
gpcr_5ht2c_6bqh_protein_autoprepared_prepared

>  <s_lp_Force_Field>  (1) 
S-OPLS

>  <s_lp_Variant>  (1) 
DiffSBDD_37_num_sample_50-1

>  <s_m_source_file>  (1) 
generated__ligand_DiffSBDD_2026-05-06_prepared.sdf

>  <GenAI_Model>  (1) 
DiffSBDD

>  <Protein>  (1) 
GPCR_5HT2C

$$$$
DiffSBDD_37_num_sample_50
     RDKit          3D

  0  0  0  0  0  0  0  0  0  0999 V3000
M  V30 BEGIN CTAB
M  V30 COUNTS 62 64 0 0 1
M  V30 BEGIN ATOM
M  V30 1 C 38.453127 27.344268 54.900204 0
M  V30 2 F 39.766910 29.482846 50.764729 0
M  V30 3 C 37.463001 33.977119 59.378440 0
M  V30 4 C 38.068233 27.392202 57.866467 0
M  V30 5 C 37.969025 26.086026 55.618713 0
M  V30 6 N 39.134198 28.435429 51.397805 0
M  V30 7 C 37.577530 36.936605 60.684464 0 CFG=1
M  V30 8 C 38.154155 29.936903 57.708064 0
M  V30 9 C 37.851147 38.379478 61.055027 0
M  V30 10 C 39.244006 29.670972 54.903880 0
M  V30 11 C 38.801404 28.532118 55.622563 0
M  V30 12 C 38.733806 28.587935 57.173326 0 CFG=2
M  V30 13 S 38.724820 25.851753 57.234500 0
M  V30 14 O 36.667172 39.036540 61.453500 0
M  V30 15 C 39.008751 28.468003 52.793239 0
M  V30 16 C 39.850003 36.000363 61.738475 0
M  V30 17 C 39.340662 29.638044 53.502004 0
M  V30 18 C 38.556804 35.784642 60.959406 0 CFG=1
M  V30 19 C 35.915516 31.099855 59.823345 0
M  V30 20 C 39.374570 29.222564 61.180385 0
M  V30 21 C 37.418307 31.368344 59.649221 0 CFG=2
M  V30 22 C 39.466313 30.010205 59.866031 0
M  V30 23 C 38.560665 27.326969 53.491506 0
M  V30 24 F 39.067374 27.221432 50.755267 0
M  V30 25 C 37.708421 32.599578 58.750683 0
M  V30 26 O 37.366566 35.992195 61.736912 0
M  V30 27 N 38.137112 30.128522 59.198182 0 CFG=2 CHG=1
M  V30 28 O 36.755888 36.821421 59.543841 0
M  V30 29 C 38.627565 34.412058 60.283909 0
M  V30 30 H 36.512292 34.007499 59.911834 0
M  V30 31 H 37.388231 34.666001 58.538190 0
M  V30 32 H 38.267411 27.411431 58.936526 0
M  V30 33 H 36.986682 27.408219 57.739080 0
M  V30 34 H 36.883928 26.117003 55.719042 0
M  V30 35 H 38.200282 25.209044 55.012738 0
M  V30 36 H 37.138966 30.055772 57.324510 0
M  V30 37 H 38.738414 30.751499 57.296260 0
M  V30 38 H 38.267645 38.903087 60.195090 0
M  V30 39 H 38.582555 38.421516 61.853499 0
M  V30 40 H 39.521342 30.570214 55.427239 0
M  V30 41 H 39.788033 28.536832 57.439044 0
M  V30 42 H 36.117345 39.136575 60.684262 0
M  V30 43 H 40.655509 36.287693 61.061815 0
M  V30 44 H 39.744766 36.768017 62.502476 0
M  V30 45 H 40.146606 35.087693 62.256311 0
M  V30 46 H 39.685280 30.512720 52.969165 0
M  V30 47 H 35.364047 32.013310 60.045037 0
M  V30 48 H 35.467454 30.659629 58.934150 0
M  V30 49 H 35.742235 30.421428 60.653670 0
M  V30 50 H 40.344006 29.190377 61.678407 0
M  V30 51 H 38.667640 29.674517 61.877206 0
M  V30 52 H 39.067389 28.190547 61.011505 0
M  V30 53 H 37.772044 31.609213 60.652169 0
M  V30 54 H 40.210890 29.530466 59.236362 0
M  V30 55 H 39.867399 31.001144 60.077543 0
M  V30 56 H 38.303140 26.430240 52.946374 0
M  V30 57 H 37.098279 32.532435 57.853510 0
M  V30 58 H 38.744196 32.591359 58.411326 0
M  V30 59 H 36.730836 35.914010 59.281365 0
M  V30 60 H 39.554244 34.375869 59.710163 0
M  V30 61 H 38.742289 33.669669 61.073864 0
M  V30 62 H 37.593379 29.357795 59.557564 0
M  V30 END ATOM
M  V30 BEGIN BOND
M  V30 1 1 5 1
M  V30 2 1 6 2
M  V30 3 1 9 7
M  V30 4 2 11 1
M  V30 5 1 11 10
M  V30 6 1 12 4
M  V30 7 1 12 8
M  V30 8 1 12 11
M  V30 9 1 13 4
M  V30 10 1 13 5
M  V30 11 1 14 9
M  V30 12 1 15 6
M  V30 13 2 17 10
M  V30 14 1 17 15
M  V30 15 1 18 7
M  V30 16 1 18 16 CFG=1
M  V30 17 1 21 19
M  V30 18 1 22 20
M  V30 19 1 23 1
M  V30 20 2 23 15
M  V30 21 1 24 6
M  V30 22 1 25 3
M  V30 23 1 25 21
M  V30 24 1 26 7
M  V30 25 1 26 18
M  V30 26 1 27 8
M  V30 27 1 27 21
M  V30 28 1 27 22
M  V30 29 1 7 28 CFG=3
M  V30 30 1 29 3
M  V30 31 1 29 18
M  V30 32 1 30 3
M  V30 33 1 31 3
M  V30 34 1 32 4
M  V30 35 1 33 4
M  V30 36 1 34 5
M  V30 37 1 35 5
M  V30 38 1 36 8
M  V30 39 1 37 8
M  V30 40 1 38 9
M  V30 41 1 39 9
M  V30 42 1 40 10
M  V30 43 1 12 41 CFG=1
M  V30 44 1 42 14
M  V30 45 1 43 16
M  V30 46 1 44 16
M  V30 47 1 45 16
M  V30 48 1 46 17
M  V30 49 1 47 19
M  V30 50 1 48 19
M  V30 51 1 49 19
M  V30 52 1 50 20
M  V30 53 1 51 20
M  V30 54 1 52 20
M  V30 55 1 21 53 CFG=1
M  V30 56 1 54 22
M  V30 57 1 55 22
M  V30 58 1 56 23
M  V30 59 1 57 25
M  V30 60 1 58 25
M  V30 61 1 59 28
M  V30 62 1 60 29
M  V30 63 1 61 29
M  V30 64 1 27 62 CFG=1
M  V30 END BOND
M  V30 END CTAB
M  END
>  <i_epik_Tot_Q>  (1) 
1

>  <i_epik_Tot_abs_Q>  (1) 
1

>  <i_i_glide_confnum>  (1) 
1393

>  <i_i_glide_lignum>  (1) 
91

>  <i_i_glide_posenum>  (1) 
304

>  <i_i_glide_rotatable_bonds>  (1) 
12

>  <i_lp_mmshare_version>  (1) 
72125

>  <i_m_source_file_index>  (1) 
38

>  <i_f3d_flags>  (1) 
0

>  <num_sample>  (1) 
50

>  <b_lp_Chiralities_Consistent>  (1) 
1

>  <r_epik_Charging_Adjusted_Penalty>  (1) 
0.031037112904587178

>  <r_epik_Ionization_Penalty>  (1) 
0.015538636701717824

>  <r_epik_Ionization_Penalty_Charging>  (1) 
0.015518556452293627

>  <r_epik_Ionization_Penalty_Neutral>  (1) 
2.0080249424197063e-05

>  <r_epik_State_Penalty>  (1) 
0.015518556452293551

>  <r_glide_ring_energy>  (1) 
0

>  <r_i_docking_score>  (1) 
-8.4881373936757445

>  <r_i_glide_ecoul>  (1) 
-3.4761550525950882

>  <r_i_glide_eff_state_penalty>  (1) 
0.015518556452293551

>  <r_i_glide_einternal>  (1) 
8.6480417866195083

>  <r_i_glide_emodel>  (1) 
-68.003837594188724

>  <r_i_glide_emodel_strain>  (1) 
2.4772416506827639

>  <r_i_glide_energy>  (1) 
-47.733511369245008

>  <r_i_glide_erotb>  (1) 
0.85436837262661747

>  <r_i_glide_esite>  (1) 
-0.0050743721678639846

>  <r_i_glide_evdw>  (1) 
-44.257356316649918

>  <r_i_glide_gscore>  (1) 
-8.5036559501280387

>  <r_i_glide_gscore_strain>  (1) 
0

>  <r_i_glide_hbond>  (1) 
-0.32000000000000001

>  <r_i_glide_ligand_efficiency>  (1) 
-0.29269439288537052

>  <r_i_glide_ligand_efficiency_ln>  (1) 
-1.9435682225589084

>  <r_i_glide_ligand_efficiency_sa>  (1) 
-0.89924990804562788

>  <r_i_glide_lipo>  (1) 
-3.3404144653643408

>  <r_i_glide_metal>  (1) 
-0

>  <r_i_glide_rewards>  (1) 
-2.9582444115006914

>  <r_lp_Energy>  (1) 
43.254267999999996

>  <s_epik_cmdline>  (1) 
J2VwaWtfcHl0aG9uJywgJy1waHQnLCAnMS4wJywgJy1waCcsICc3LjQnLCAnLXRuJywgJzgnLCAnLW1hJywgJzUwMCcsICctaW1hZScsICc8aW5maWxlLm1hZT4nLCAnLW9tYWUnLCAnPG91dGZpbGUubWFlPic=

>  <s_epik_input>  (1) 
Rk4oRiljKFtjSF0xKVtjSF1bY0hdYyhjMTIpW0NASF0oW0NIMl1TW0NIMl0yKVtDSDJdTihbQ0gyXVtDSDNdKVtDQEhdKFtDSDNdKVtDSDJdW0NIMl1bQ0gyXVtDQEBdKE8zKShbQ0gzXSlDMyhbT0hdKVtDSDJdW09IXQ==

>  <s_glide_docking_method>  (1) 
confgen

>  <s_i_glide_gridfile>  (1) 
gpcr_5ht2c_6bqh_protein_autoprepared_prepared

>  <s_lp_Force_Field>  (1) 
S-OPLS

>  <s_lp_Variant>  (1) 
DiffSBDD_37_num_sample_50-1

>  <s_m_source_file>  (1) 
generated__ligand_DiffSBDD_2026-05-06_prepared.sdf

>  <GenAI_Model>  (1) 
DiffSBDD

>  <Protein>  (1) 
GPCR_5HT2C

$$$$
DiffSBDD_41_num_sample_50
     RDKit          3D

  0  0  0  0  0  0  0  0  0  0999 V3000
M  V30 BEGIN CTAB
M  V30 COUNTS 83 87 0 0 1
M  V30 BEGIN ATOM
M  V30 1 C 39.506293 28.349455 56.539394 0
M  V30 2 C 39.589618 29.139305 57.869789 0 CFG=2
M  V30 3 C 41.112905 32.834830 64.012482 0
M  V30 4 C 46.221824 30.421434 64.778355 0
M  V30 5 C 37.698906 30.599392 56.997912 0 CFG=1
M  V30 6 O 36.667442 30.021424 57.786797 0
M  V30 7 O 37.056748 30.383506 54.703985 0
M  V30 8 C 36.579793 36.830109 63.034290 0
M  V30 9 C 38.731623 26.969764 58.964757 0
M  V30 10 C 40.984166 35.058508 63.019700 0
M  V30 11 C 39.867351 29.990439 65.991200 0
M  V30 12 C 40.456744 28.744937 62.936882 0
M  V30 13 C 39.104696 28.386285 59.169765 0 CFG=1
M  V30 14 C 38.849559 36.868381 61.912833 0
M  V30 15 F 35.978307 36.831006 64.218235 0
M  V30 16 O 41.143870 30.910432 62.570417 0
M  V30 17 C 41.187426 31.945251 65.242266 0 CFG=2
M  V30 18 C 39.467017 28.552475 61.756109 0
M  V30 19 C 40.960256 34.474820 61.734599 0
M  V30 20 C 39.006547 30.565226 57.751851 0 CFG=1
M  V30 21 O 38.700877 31.198938 58.986414 0
M  V30 22 F 36.196297 37.913691 62.356879 0
M  V30 23 C 43.068551 30.768045 66.419304 0 CFG=1
M  V30 24 C 40.392135 30.181157 63.515137 0 CFG=2
M  V30 25 C 40.312963 37.221340 62.165724 0
M  V30 26 N 40.154206 29.621461 67.162139 0
M  V30 27 F 36.267407 35.721881 62.359787 0
M  V30 28 O 44.921298 30.824072 65.053539 0
M  V30 29 C 38.621282 28.746843 55.490481 0
M  V30 30 C 41.090121 32.261953 62.726387 0
M  V30 31 C 42.514870 32.131683 65.996618 0
M  V30 32 C 40.267423 26.480302 55.158842 0
M  V30 33 C 41.067643 34.235833 64.156671 0
M  V30 34 O 40.920974 36.421350 63.177032 0
M  V30 35 C 40.909783 30.428496 64.971034 0 CFG=2
M  V30 36 S 42.466158 29.552606 65.223381 0
M  V30 37 C 39.393266 26.869975 54.129879 0
M  V30 38 C 38.430871 25.826797 58.653529 0
M  V30 39 C 37.741111 29.938083 55.625679 0
M  V30 40 C 44.586421 30.750767 66.425147 0
M  V30 41 C 40.100898 28.598558 60.349538 0
M  V30 42 C 38.083247 36.858665 63.238733 0
M  V30 43 C 41.013729 33.079422 61.596759 0
M  V30 44 C 40.332403 27.218777 56.352310 0
M  V30 45 C 38.577549 28.001686 54.289845 0
M  V30 46 H 40.665392 29.278573 57.992013 0
M  V30 47 H 46.425879 30.421359 63.709365 0
M  V30 48 H 46.937816 31.062415 65.291591 0
M  V30 49 H 46.267393 29.399902 65.131711 0
M  V30 50 H 37.467366 31.652328 56.833939 0
M  V30 51 H 35.905580 30.566209 57.536555 0
M  V30 52 H 38.834116 30.021386 65.638867 0
M  V30 53 H 40.267417 28.015026 63.722537 0
M  V30 54 H 41.471379 28.508673 62.613571 0
M  V30 55 H 38.147842 28.804591 59.476001 0
M  V30 56 H 38.424856 37.610829 61.235830 0
M  V30 57 H 38.739501 35.910885 61.405545 0
M  V30 58 H 40.403365 32.354653 65.883222 0
M  V30 59 H 38.688364 29.313038 61.801155 0
M  V30 60 H 38.934533 27.621465 61.888112 0
M  V30 61 H 40.900575 35.095301 60.854341 0
M  V30 62 H 39.710051 31.185390 57.193631 0
M  V30 63 H 37.825692 30.906471 59.211622 0
M  V30 64 H 42.688316 30.514472 67.408974 0
M  V30 65 H 39.361805 30.540730 63.463691 0
M  V30 66 H 40.267402 38.245054 62.535885 0
M  V30 67 H 40.920984 37.221047 61.261057 0
M  V30 68 H 39.359513 29.327872 67.713841 0
M  V30 69 H 43.226687 32.627176 65.338946 0
M  V30 70 H 42.393005 32.797977 66.851464 0
M  V30 71 H 40.898341 25.621434 55.029753 0
M  V30 72 H 41.088439 34.679006 65.141067 0
M  V30 73 H 39.352615 26.303223 53.211414 0
M  V30 74 H 38.167320 24.837060 58.353394 0
M  V30 75 H 45.007752 31.589650 66.982678 0
M  V30 76 H 44.940588 29.823701 66.879058 0
M  V30 77 H 40.917572 27.878899 60.274813 0
M  V30 78 H 40.571122 29.577291 60.251084 0
M  V30 79 H 38.401309 36.021435 63.842429 0
M  V30 80 H 38.359993 37.702544 63.853233 0
M  V30 81 H 40.990460 32.632067 60.620264 0
M  V30 82 H 41.012741 26.913569 57.134683 0
M  V30 83 H 37.910364 28.299695 53.490415 0
M  V30 END ATOM
M  V30 BEGIN BOND
M  V30 1 1 2 1
M  V30 2 1 6 5
M  V30 3 1 13 2
M  V30 4 1 13 9
M  V30 5 1 15 8
M  V30 6 1 17 3
M  V30 7 1 18 12
M  V30 8 1 19 10
M  V30 9 1 20 2
M  V30 10 1 20 5
M  V30 11 1 21 20
M  V30 12 1 22 8
M  V30 13 1 24 12
M  V30 14 1 24 16
M  V30 15 1 25 14
M  V30 16 2 26 11
M  V30 17 1 27 8
M  V30 18 1 28 4
M  V30 19 1 29 1
M  V30 20 2 30 3
M  V30 21 1 30 16
M  V30 22 1 31 17
M  V30 23 1 31 23
M  V30 24 1 33 3
M  V30 25 2 33 10
M  V30 26 1 34 10
M  V30 27 1 34 25
M  V30 28 1 35 11 CFG=1
M  V30 29 1 35 17
M  V30 30 1 35 24
M  V30 31 1 36 23
M  V30 32 1 36 35
M  V30 33 2 37 32
M  V30 34 3 38 9
M  V30 35 1 39 5
M  V30 36 2 39 7
M  V30 37 1 39 29
M  V30 38 1 40 23
M  V30 39 1 40 28
M  V30 40 1 41 13
M  V30 41 1 41 18
M  V30 42 1 42 8
M  V30 43 1 42 14
M  V30 44 2 43 19
M  V30 45 1 43 30
M  V30 46 2 44 1
M  V30 47 1 44 32
M  V30 48 2 45 29
M  V30 49 1 45 37
M  V30 50 1 2 46 CFG=1
M  V30 51 1 47 4
M  V30 52 1 48 4
M  V30 53 1 49 4
M  V30 54 1 5 50 CFG=3
M  V30 55 1 51 6
M  V30 56 1 52 11
M  V30 57 1 53 12
M  V30 58 1 54 12
M  V30 59 1 13 55 CFG=1
M  V30 60 1 56 14
M  V30 61 1 57 14
M  V30 62 1 17 58 CFG=1
M  V30 63 1 59 18
M  V30 64 1 60 18
M  V30 65 1 61 19
M  V30 66 1 20 62 CFG=3
M  V30 67 1 63 21
M  V30 68 1 23 64 CFG=1
M  V30 69 1 24 65 CFG=1
M  V30 70 1 66 25
M  V30 71 1 67 25
M  V30 72 1 68 26
M  V30 73 1 69 31
M  V30 74 1 70 31
M  V30 75 1 71 32
M  V30 76 1 72 33
M  V30 77 1 73 37
M  V30 78 1 74 38
M  V30 79 1 75 40
M  V30 80 1 76 40
M  V30 81 1 77 41
M  V30 82 1 78 41
M  V30 83 1 79 42
M  V30 84 1 80 42
M  V30 85 1 81 43
M  V30 86 1 82 44
M  V30 87 1 83 45
M  V30 END BOND
M  V30 END CTAB
M  END
>  <i_epik_Tot_Q>  (1) 
0

>  <i_epik_Tot_abs_Q>  (1) 
0

>  <i_i_glide_confnum>  (1) 
2579

>  <i_i_glide_lignum>  (1) 
97

>  <i_i_glide_posenum>  (1) 
325

>  <i_i_glide_rotatable_bonds>  (1) 
16

>  <i_lp_mmshare_version>  (1) 
72125

>  <i_m_source_file_index>  (1) 
42

>  <i_f3d_flags>  (1) 
0

>  <num_sample>  (1) 
50

>  <b_lp_Chiralities_Consistent>  (1) 
1

>  <r_epik_Charging_Adjusted_Penalty>  (1) 
0.41067983895260396

>  <r_epik_Ionization_Penalty>  (1) 
0.0048607436090088536

>  <r_epik_Ionization_Penalty_Charging>  (1) 
0

>  <r_epik_Ionization_Penalty_Neutral>  (1) 
0.0048607436090088536

>  <r_epik_State_Penalty>  (1) 
0.41067983895260396

>  <r_glide_ring_energy>  (1) 
0.56107915077030179

>  <r_i_docking_score>  (1) 
-8.4804471204013101

>  <r_i_glide_ecoul>  (1) 
-9.3826595860028998

>  <r_i_glide_eff_state_penalty>  (1) 
0.41067983895260396

>  <r_i_glide_einternal>  (1) 
5.35638800488233

>  <r_i_glide_emodel>  (1) 
-66.619840975559995

>  <r_i_glide_emodel_strain>  (1) 
2.9475306785182482

>  <r_i_glide_energy>  (1) 
-44.396171704996412

>  <r_i_glide_erotb>  (1) 
0.41134081239429626

>  <r_i_glide_esite>  (1) 
-0.041492335525261159

>  <r_i_glide_evdw>  (1) 
-35.013512118993511

>  <r_i_glide_gscore>  (1) 
-8.8911269593539135

>  <r_i_glide_gscore_strain>  (1) 
0

>  <r_i_glide_hbond>  (1) 
-0.3315170812466896

>  <r_i_glide_ligand_efficiency>  (1) 
-0.18845438045336244

>  <r_i_glide_ligand_efficiency_ln>  (1) 
-1.7643109201966327

>  <r_i_glide_ligand_efficiency_sa>  (1) 
-0.67031212403638796

>  <r_i_glide_lipo>  (1) 
-4.685740839686301

>  <r_i_glide_metal>  (1) 
-0

>  <r_i_glide_rewards>  (1) 
-1.0856429714398483

>  <r_lp_Energy>  (1) 
46.140012999999996

>  <r_lp_tautomer_probability>  (1) 
0.5

>  <s_epik_Chemistry_Notes>  (1) 
This compound has an imine and may undergo hydrolysis.

>  <s_epik_cmdline>  (1) 
J2VwaWtfcHl0aG9uJywgJy1waHQnLCAnMS4wJywgJy1waCcsICc3LjQnLCAnLXRuJywgJzgnLCAnLW1hJywgJzUwMCcsICctaW1hZScsICc8aW5maWxlLm1hZT4nLCAnLW9tYWUnLCAnPG91dGZpbGUubWFlPic=

>  <s_epik_input>  (1) 
W2NIXTFbY0hdW2NIXVtjSF1jKGMxMilDKD1PKVtDQEBIXShbT0hdKVtDQEBIXShbT0hdKVtDQEBIXTJbQ0BASF0oQyNbQ0hdKVtDSDJdW0NIMl1bQ0gyXVtDQEBIXTNPYyhjNFtDQEBIXShbQ0BAXTM1L1tDSF09Ti9bSF0pW0NIMl1bQ0BASF0oUzUpW0NIMl1PW0NIM10pW2NIXVtjSF1jKFtjSF00KU9bQ0gyXVtDSDJdW0NIMl1DKEYpKEYpRg==

>  <s_glide_docking_method>  (1) 
confgen

>  <s_i_glide_gridfile>  (1) 
gpcr_5ht2c_6bqh_protein_autoprepared_prepared

>  <s_lp_Force_Field>  (1) 
S-OPLS

>  <s_lp_Variant>  (1) 
DiffSBDD_41_num_sample_50-2

>  <s_m_source_file>  (1) 
generated__ligand_DiffSBDD_2026-05-06_prepared.sdf

>  <GenAI_Model>  (1) 
DiffSBDD

>  <Protein>  (1) 
GPCR_5HT2C

$$$$
DiffSBDD_44_num_sample_50
     RDKit          3D

  0  0  0  0  0  0  0  0  0  0999 V3000
M  V30 BEGIN CTAB
M  V30 COUNTS 65 67 0 0 1
M  V30 BEGIN ATOM
M  V30 1 C 39.412663 36.986937 63.238478 0
M  V30 2 C 38.423882 26.097924 57.512662 0
M  V30 3 C 40.497707 33.224501 63.319827 0
M  V30 4 O 39.148652 28.990348 60.653033 0
M  V30 5 O 38.201376 36.508382 61.202876 0
M  V30 6 C 39.683369 32.798252 62.158065 0
M  V30 7 F 41.594090 31.947281 66.594851 0
M  V30 8 C 37.476910 25.677898 55.297106 0
M  V30 9 C 40.104613 27.971784 57.794993 0 CFG=2
M  V30 10 O 38.217082 26.821456 53.401957 0
M  V30 11 C 40.730496 36.721845 62.484521 0
M  V30 12 C 41.438892 32.774536 65.535102 0
M  V30 13 C 38.145908 36.769146 62.403513 0
M  V30 14 C 37.693966 25.281116 56.564049 0
M  V30 15 O 38.667312 25.723712 58.653522 0
M  V30 16 O 40.951370 35.337503 62.242671 0
M  V30 17 O 36.231536 31.919929 61.289442 0
M  V30 18 C 38.997892 27.570988 55.453011 0
M  V30 19 C 39.993792 28.654483 61.742939 0
M  V30 20 C 36.809036 36.889586 63.125601 0
M  V30 21 O 41.304147 27.457041 57.245974 0
M  V30 22 C 42.048363 34.040699 65.538778 0
M  V30 23 C 38.871675 27.476187 57.011358 0 CFG=1
M  V30 24 C 38.448106 31.345352 60.819665 0 CFG=2
M  V30 25 C 40.667322 32.365443 64.432274 0
M  V30 26 C 39.093076 30.232924 58.602287 0
M  V30 27 C 41.112164 34.499776 63.326405 0
M  V30 28 C 36.555125 23.747876 55.445854 0
M  V30 29 C 40.209000 29.485322 57.831303 0
M  V30 30 O 36.785670 24.779659 54.549813 0
M  V30 31 N 37.902258 26.890415 54.764009 0
M  V30 32 O 37.137402 30.821405 60.976583 0
M  V30 33 C 41.888280 34.903652 64.440752 0
M  V30 34 C 39.345726 30.295042 60.118874 0 CFG=2
M  V30 35 N 39.044576 31.702087 62.096700 0
M  V30 36 C 37.097048 24.021333 56.673226 0
M  V30 37 H 39.355919 36.377024 64.139907 0
M  V30 38 H 39.418893 38.021383 63.576668 0
M  V30 39 H 39.651535 33.493058 61.313649 0
M  V30 40 H 40.092266 27.639643 58.831894 0
M  V30 41 H 37.433679 27.079670 52.937723 0
M  V30 42 H 41.559954 37.167355 63.024133 0
M  V30 43 H 40.721414 37.221332 61.515403 0
M  V30 44 H 35.932626 32.158296 60.422461 0
M  V30 45 H 39.012978 28.616411 55.143996 0
M  V30 46 H 39.941047 27.133074 55.123053 0
M  V30 47 H 39.810533 27.621888 62.027641 0
M  V30 48 H 41.047157 28.736682 61.472733 0
M  V30 49 H 39.803935 29.268100 62.622084 0
M  V30 50 H 36.953108 36.965376 64.203378 0
M  V30 51 H 36.271278 37.774074 62.784288 0
M  V30 52 H 36.192306 36.013216 62.926847 0
M  V30 53 H 41.373836 26.531875 57.436581 0
M  V30 54 H 42.641284 34.350527 66.386147 0
M  V30 55 H 38.022943 28.101021 57.279990 0
M  V30 56 H 38.370802 32.209384 60.152964 0
M  V30 57 H 40.201755 31.390126 64.438175 0
M  V30 58 H 38.100111 29.834859 58.399729 0
M  V30 59 H 39.067705 31.252919 58.216784 0
M  V30 60 H 36.004286 22.911855 55.053507 0
M  V30 61 H 40.265036 29.866538 56.811935 0
M  V30 62 H 41.174331 29.656089 58.301540 0
M  V30 63 H 42.364410 35.872519 64.451856 0
M  V30 64 H 40.388162 30.589785 60.253413 0
M  V30 65 H 37.066556 23.378247 57.540559 0
M  V30 END ATOM
M  V30 BEGIN BOND
M  V30 1 1 6 3
M  V30 2 1 11 1
M  V30 3 1 12 7
M  V30 4 1 13 1
M  V30 5 2 13 5
M  V30 6 1 14 2
M  V30 7 2 14 8
M  V30 8 2 15 2
M  V30 9 1 16 11
M  V30 10 1 19 4
M  V30 11 1 20 13
M  V30 12 1 21 9
M  V30 13 1 22 12
M  V30 14 1 23 2
M  V30 15 1 23 9
M  V30 16 1 23 18
M  V30 17 1 25 3
M  V30 18 2 25 12
M  V30 19 2 27 3
M  V30 20 1 27 16
M  V30 21 1 29 9
M  V30 22 1 29 26
M  V30 23 1 30 8
M  V30 24 1 30 28
M  V30 25 1 31 8
M  V30 26 1 31 10
M  V30 27 1 31 18
M  V30 28 1 32 17
M  V30 29 1 32 24
M  V30 30 2 33 22
M  V30 31 1 33 27
M  V30 32 1 34 4
M  V30 33 1 34 24
M  V30 34 1 34 26
M  V30 35 2 35 6
M  V30 36 1 35 24
M  V30 37 1 36 14
M  V30 38 2 36 28
M  V30 39 1 37 1
M  V30 40 1 38 1
M  V30 41 1 39 6
M  V30 42 1 9 40 CFG=1
M  V30 43 1 41 10
M  V30 44 1 42 11
M  V30 45 1 43 11
M  V30 46 1 44 17
M  V30 47 1 45 18
M  V30 48 1 46 18
M  V30 49 1 47 19
M  V30 50 1 48 19
M  V30 51 1 49 19
M  V30 52 1 50 20
M  V30 53 1 51 20
M  V30 54 1 52 20
M  V30 55 1 53 21
M  V30 56 1 54 22
M  V30 57 1 23 55 CFG=1
M  V30 58 1 24 56 CFG=3
M  V30 59 1 57 25
M  V30 60 1 58 26
M  V30 61 1 59 26
M  V30 62 1 60 28
M  V30 63 1 61 29
M  V30 64 1 62 29
M  V30 65 1 63 33
M  V30 66 1 34 64 CFG=3
M  V30 67 1 65 36
M  V30 END BOND
M  V30 END CTAB
M  END
>  <i_epik_Tot_Q>  (1) 
0

>  <i_epik_Tot_abs_Q>  (1) 
0

>  <i_i_glide_confnum>  (1) 
3719

>  <i_i_glide_lignum>  (1) 
102

>  <i_i_glide_posenum>  (1) 
45

>  <i_i_glide_rotatable_bonds>  (1) 
16

>  <i_lp_mmshare_version>  (1) 
72125

>  <i_m_source_file_index>  (1) 
45

>  <i_f3d_flags>  (1) 
0

>  <num_sample>  (1) 
50

>  <b_lp_Chiralities_Consistent>  (1) 
1

>  <r_epik_Charging_Adjusted_Penalty>  (1) 
0

>  <r_epik_Ionization_Penalty>  (1) 
0.00046426775496228489

>  <r_epik_Ionization_Penalty_Charging>  (1) 
0

>  <r_epik_Ionization_Penalty_Neutral>  (1) 
0.00046426775496228489

>  <r_epik_State_Penalty>  (1) 
-0

>  <r_glide_ring_energy>  (1) 
0

>  <r_i_docking_score>  (1) 
-8.4785259206732384

>  <r_i_glide_ecoul>  (1) 
-6.2079818115257357

>  <r_i_glide_eff_state_penalty>  (1) 
-0

>  <r_i_glide_einternal>  (1) 
15.57505441686188

>  <r_i_glide_emodel>  (1) 
-77.675574630969322

>  <r_i_glide_emodel_strain>  (1) 
0.46873087891954412

>  <r_i_glide_energy>  (1) 
-56.097262157152024

>  <r_i_glide_erotb>  (1) 
0.87096195952989475

>  <r_i_glide_esite>  (1) 
-0.084027614308267093

>  <r_i_glide_evdw>  (1) 
-49.88928034562629

>  <r_i_glide_gscore>  (1) 
-8.4785259206732384

>  <r_i_glide_gscore_strain>  (1) 
0

>  <r_i_glide_hbond>  (1) 
-0.058443065318706758

>  <r_i_glide_ligand_efficiency>  (1) 
-0.23551460890758996

>  <r_i_glide_ligand_efficiency_ln>  (1) 
-1.8497852925920502

>  <r_i_glide_ligand_efficiency_sa>  (1) 
-0.77765210466473256

>  <r_i_glide_lipo>  (1) 
-3.8129256014906217

>  <r_i_glide_metal>  (1) 
-0

>  <r_i_glide_rewards>  (1) 
-1.9684303100753633

>  <r_lp_Energy>  (1) 
22.676888999999999

>  <r_lp_tautomer_probability>  (1) 
1

>  <s_epik_Chemistry_Notes>  (1) 
This compound has an imine and may undergo hydrolysis. This compound contains an acetal/aminal-like group ( X-CH(R)-Y where X, Y are N, S, or O) that may be acid/base labile, releasing an aldehyde. This compound has a N-S or N-O group and may undergo hydrolysis at high or low pH.

>  <s_epik_cmdline>  (1) 
J2VwaWtfcHl0aG9uJywgJy1waHQnLCAnMS4wJywgJy1waCcsICc3LjQnLCAnLXRuJywgJzgnLCAnLW1hJywgJzUwMCcsICctaW1hZScsICc8aW5maWxlLm1hZT4nLCAnLW9tYWUnLCAnPG91dGZpbGUubWFlPic=

>  <s_epik_input>  (1) 
Tz1DKFtDSDNdKVtDSDJdW0NIMl1PYzFbY0hdW2NIXWMoRilbY0hdYzEvW0NIXT1OL1tDQEhdKE9bT0hdKVtDQEBIXShPW0NIM10pW0NIMl1bQ0gyXVtDQEhdKFtPSF0pW0NAQEhdKFtDSDJdTjJbT0hdKUMoPU8pYyhjMjMpW2NIXVtjSF1vMw==

>  <s_glide_docking_method>  (1) 
confgen

>  <s_i_glide_gridfile>  (1) 
gpcr_5ht2c_6bqh_protein_autoprepared_prepared

>  <s_lp_Force_Field>  (1) 
S-OPLS

>  <s_lp_Variant>  (1) 
DiffSBDD_44_num_sample_50-1

>  <s_m_source_file>  (1) 
generated__ligand_DiffSBDD_2026-05-06_prepared.sdf

>  <GenAI_Model>  (1) 
DiffSBDD

>  <Protein>  (1) 
GPCR_5HT2C

$$$$
DiffSBDD_20_num_sample_50
     RDKit          3D

  0  0  0  0  0  0  0  0  0  0999 V3000
M  V30 BEGIN CTAB
M  V30 COUNTS 77 81 0 0 1
M  V30 BEGIN ATOM
M  V30 1 C 40.715767 33.006129 63.226736 0
M  V30 2 C 40.712824 35.445473 63.196811 0
M  V30 3 C 39.680701 31.159275 60.554701 0 CFG=2
M  V30 4 C 39.173885 25.644294 55.008748 0
M  V30 5 C 39.621949 35.442012 62.305017 0
M  V30 6 C 37.411044 28.989275 58.237875 0
M  V30 7 C 37.443414 35.458913 60.512813 0
M  V30 8 C 38.196780 27.657591 58.144116 0 CFG=1
M  V30 9 C 40.333048 28.128665 56.720204 0
M  V30 10 C 38.967899 27.357548 56.811311 0 CFG=2
M  V30 11 C 38.971452 27.465859 59.453525 0
M  V30 12 F 38.267027 29.398966 52.960614 0
M  V30 13 C 39.773240 28.686210 59.925103 0
M  V30 14 C 39.080457 36.664210 61.857881 0
M  V30 15 O 37.258217 31.173165 59.096461 0
M  V30 16 C 38.029380 27.670234 55.627520 0
M  V30 17 C 39.122523 30.502632 62.938551 0
M  V30 18 C 38.223514 30.205439 58.715042 0 CFG=1
M  V30 19 C 39.035548 31.619936 61.877157 0 CFG=1
M  V30 20 C 37.975475 34.231699 60.952468 0
M  V30 21 C 44.062940 27.281279 57.659873 0
M  V30 22 F 39.928802 28.696927 51.760279 0
M  V30 23 C 42.847464 28.197566 57.453436 0
M  V30 24 O 39.467407 27.681923 53.776047 0
M  V30 25 C 41.258335 34.233009 63.652412 0
M  V30 26 C 39.618101 32.978723 62.332773 0
M  V30 27 C 41.554380 27.383080 57.302914 0
M  V30 28 C 38.132934 27.236299 52.060886 0
M  V30 29 C 37.443535 26.702461 53.313213 0
M  V30 30 C 38.988259 28.334041 52.629971 0
M  V30 31 N 38.966315 29.948373 59.992741 0 CFG=2 CHG=1
M  V30 32 C 38.497891 26.891397 54.411645 0 CFG=1
M  V30 33 C 37.991453 36.671555 60.967264 0
M  V30 34 C 39.123199 25.832108 56.539487 0
M  V30 35 O 40.913640 30.821372 60.873747 0 CHG=-1
M  V30 36 C 39.068055 34.212363 61.858967 0
M  V30 37 H 41.144565 32.082595 63.583522 0
M  V30 38 H 41.133919 36.383253 63.532468 0
M  V30 39 H 39.498653 31.983300 59.862313 0
M  V30 40 H 40.209262 25.579509 54.671647 0
M  V30 41 H 38.678657 24.718769 54.714445 0
M  V30 42 H 36.596350 28.834578 58.944474 0
M  V30 43 H 36.897486 29.241559 57.313380 0
M  V30 44 H 36.611348 35.468670 59.823942 0
M  V30 45 H 37.422049 26.892942 58.170439 0
M  V30 46 H 40.589750 28.354517 55.690635 0
M  V30 47 H 40.248726 29.112514 57.167854 0
M  V30 48 H 38.267395 27.262055 60.250874 0
M  V30 49 H 39.593851 26.575909 59.406753 0
M  V30 50 H 40.158920 28.445135 60.917212 0
M  V30 51 H 40.646374 28.852537 59.303602 0
M  V30 52 H 39.501757 37.598464 62.199860 0
M  V30 53 H 36.711562 31.384806 58.341652 0
M  V30 54 H 37.067419 27.221383 55.852646 0
M  V30 55 H 37.898311 28.733947 55.427577 0
M  V30 56 H 38.667607 30.811778 63.853525 0
M  V30 57 H 38.584742 29.621301 62.611110 0
M  V30 58 H 40.136246 30.185213 63.180553 0
M  V30 59 H 38.876220 30.602740 57.937477 0
M  V30 60 H 37.963719 31.729713 61.740977 0
M  V30 61 H 37.543862 33.316104 60.592433 0
M  V30 62 H 44.985612 27.818545 57.453479 0
M  V30 63 H 44.095618 26.875913 58.668924 0
M  V30 64 H 44.063276 26.429095 56.985519 0
M  V30 65 H 43.023678 28.821078 56.579660 0
M  V30 66 H 42.760496 28.897505 58.282427 0
M  V30 67 H 42.096977 34.243231 64.333815 0
M  V30 68 H 41.345352 26.917449 58.259355 0
M  V30 69 H 41.746917 26.559169 56.632354 0
M  V30 70 H 37.467430 27.621487 51.295661 0
M  V30 71 H 38.780873 26.484687 51.608919 0
M  V30 72 H 37.067496 25.683750 53.224320 0
M  V30 73 H 36.585736 27.341992 53.518382 0
M  V30 74 H 37.579506 37.610577 60.626949 0
M  V30 75 H 39.953191 25.347838 57.051251 0
M  V30 76 H 38.238509 25.303070 56.896462 0
M  V30 77 H 38.246993 29.759293 60.670667 0
M  V30 END ATOM
M  V30 BEGIN BOND
M  V30 1 1 5 2
M  V30 2 1 8 6
M  V30 3 1 10 8
M  V30 4 1 10 9 CFG=3
M  V30 5 1 11 8
M  V30 6 1 13 11
M  V30 7 2 14 5
M  V30 8 1 16 10
M  V30 9 1 18 6
M  V30 10 1 18 15
M  V30 11 1 19 3
M  V30 12 1 19 17
M  V30 13 1 20 7
M  V30 14 1 23 21
M  V30 15 1 25 1
M  V30 16 2 25 2
M  V30 17 2 26 1
M  V30 18 1 26 19
M  V30 19 1 27 9
M  V30 20 1 27 23
M  V30 21 1 29 28
M  V30 22 1 30 12
M  V30 23 1 30 22
M  V30 24 1 30 24
M  V30 25 1 30 28
M  V30 26 1 31 3
M  V30 27 1 31 13
M  V30 28 1 31 18
M  V30 29 1 32 4
M  V30 30 1 32 16
M  V30 31 1 32 24 CFG=3
M  V30 32 1 32 29
M  V30 33 2 33 7
M  V30 34 1 33 14
M  V30 35 1 34 4
M  V30 36 1 34 10
M  V30 37 1 35 3
M  V30 38 1 36 5
M  V30 39 2 36 20
M  V30 40 1 36 26
M  V30 41 1 37 1
M  V30 42 1 38 2
M  V30 43 1 3 39 CFG=3
M  V30 44 1 40 4
M  V30 45 1 41 4
M  V30 46 1 42 6
M  V30 47 1 43 6
M  V30 48 1 44 7
M  V30 49 1 8 45 CFG=1
M  V30 50 1 46 9
M  V30 51 1 47 9
M  V30 52 1 48 11
M  V30 53 1 49 11
M  V30 54 1 50 13
M  V30 55 1 51 13
M  V30 56 1 52 14
M  V30 57 1 53 15
M  V30 58 1 54 16
M  V30 59 1 55 16
M  V30 60 1 56 17
M  V30 61 1 57 17
M  V30 62 1 58 17
M  V30 63 1 18 59 CFG=3
M  V30 64 1 19 60 CFG=3
M  V30 65 1 61 20
M  V30 66 1 62 21
M  V30 67 1 63 21
M  V30 68 1 64 21
M  V30 69 1 65 23
M  V30 70 1 66 23
M  V30 71 1 67 25
M  V30 72 1 68 27
M  V30 73 1 69 27
M  V30 74 1 70 28
M  V30 75 1 71 28
M  V30 76 1 72 29
M  V30 77 1 73 29
M  V30 78 1 74 33
M  V30 79 1 75 34
M  V30 80 1 76 34
M  V30 81 1 31 77 CFG=1
M  V30 END BOND
M  V30 END CTAB
M  END
>  <i_epik_Tot_Q>  (1) 
0

>  <i_epik_Tot_abs_Q>  (1) 
2

>  <i_i_glide_confnum>  (1) 
1481

>  <i_i_glide_lignum>  (1) 
57

>  <i_i_glide_posenum>  (1) 
43

>  <i_i_glide_rotatable_bonds>  (1) 
8

>  <i_lp_mmshare_version>  (1) 
72125

>  <i_m_source_file_index>  (1) 
21

>  <i_f3d_flags>  (1) 
0

>  <num_sample>  (1) 
50

>  <b_lp_Chiralities_Consistent>  (1) 
1

>  <r_epik_Charging_Adjusted_Penalty>  (1) 
0.70686764658740575

>  <r_epik_Ionization_Penalty>  (1) 
0.13730248461042968

>  <r_epik_Ionization_Penalty_Charging>  (1) 
0.016711854413244867

>  <r_epik_Ionization_Penalty_Neutral>  (1) 
0.12059063019718481

>  <r_epik_State_Penalty>  (1) 
0.6901557921741609

>  <r_glide_ring_energy>  (1) 
0.57152994267421531

>  <r_i_docking_score>  (1) 
-8.4455770908786914

>  <r_i_glide_ecoul>  (1) 
-7.8273310792808397

>  <r_i_glide_eff_state_penalty>  (1) 
0.6901557921741609

>  <r_i_glide_einternal>  (1) 
16.04359776473116

>  <r_i_glide_emodel>  (1) 
-52.74456444653805

>  <r_i_glide_emodel_strain>  (1) 
0.50274570221888837

>  <r_i_glide_energy>  (1) 
-37.934750915368099

>  <r_i_glide_erotb>  (1) 
0.48702584280874928

>  <r_i_glide_esite>  (1) 
-0.02523783146601093

>  <r_i_glide_evdw>  (1) 
-30.10741983608726

>  <r_i_glide_gscore>  (1) 
-9.135732883052853

>  <r_i_glide_gscore_strain>  (1) 
0

>  <r_i_glide_hbond>  (1) 
-0.27263879862450274

>  <r_i_glide_ligand_efficiency>  (1) 
-0.2345993636355192

>  <r_i_glide_ligand_efficiency_ln>  (1) 
-1.8425967481053886

>  <r_i_glide_ligand_efficiency_sa>  (1) 
-0.77463003136146025

>  <r_i_glide_lipo>  (1) 
-5.1408887620554466

>  <r_i_glide_metal>  (1) 
-0

>  <r_i_glide_rewards>  (1) 
-1.5045226800191531

>  <r_lp_Energy>  (1) 
66.418807999999999

>  <s_epik_Chemistry_Notes>  (1) 
This compound contains an acetal/aminal-like group ( X-CH(R)-Y where X, Y are N, S, or O) that may be acid/base labile, releasing an aldehyde.

>  <s_epik_cmdline>  (1) 
J2VwaWtfcHl0aG9uJywgJy1waHQnLCAnMS4wJywgJy1waCcsICc3LjQnLCAnLXRuJywgJzgnLCAnLW1hJywgJzUwMCcsICctaW1hZScsICc8aW5maWxlLm1hZT4nLCAnLW9tYWUnLCAnPG91dGZpbGUubWFlPic=

>  <s_epik_input>  (1) 
W2NIXTFbY0hdW2NIXVtjSF1jKGMxMiljKFtjSF1bY0hdW2NIXTIpW0NASF0oW0NIM10pW0NAQEhdKFtPSF0pTihbQ0gyXVtDSDJdMylbQ0BIXShbT0hdKVtDSDJdW0NASF0zW0NAQF0oW0NIMl00KShbQ0gyXVtDSDJdW0NIMl1bQ0gzXSlbQ0gyXVtDSDJdW0NAXTQ1T0MoRikoRilbQ0gyXVtDSDJdNQ==

>  <s_glide_docking_method>  (1) 
confgen

>  <s_i_glide_gridfile>  (1) 
gpcr_5ht2c_6bqh_protein_autoprepared_prepared

>  <s_lp_Force_Field>  (1) 
S-OPLS

>  <s_lp_Variant>  (1) 
DiffSBDD_20_num_sample_50-2

>  <s_m_source_file>  (1) 
generated__ligand_DiffSBDD_2026-05-06_prepared.sdf

>  <GenAI_Model>  (1) 
DiffSBDD

>  <Protein>  (1) 
GPCR_5HT2C

$$$$
DiffSBDD_28_num_sample_50
     RDKit          3D

  0  0  0  0  0  0  0  0  0  0999 V3000
M  V30 BEGIN CTAB
M  V30 COUNTS 94 99 0 0 1
M  V30 BEGIN ATOM
M  V30 1 C 42.539382 27.893326 66.403136 0
M  V30 2 C 38.153671 36.378961 62.708802 0
M  V30 3 O 38.486417 30.054749 54.095582 0
M  V30 4 C 38.822665 31.703425 57.326085 0 CFG=1
M  V30 5 C 37.417812 35.932860 61.449288 0 CFG=2
M  V30 6 C 38.576355 33.229293 55.282990 0
M  V30 7 C 41.704484 32.027300 64.134599 0
M  V30 8 O 40.178555 28.011363 59.359577 0
M  V30 9 C 41.395431 27.722086 65.425163 0
M  V30 10 C 38.063326 28.718534 53.976757 0 CFG=2
M  V30 11 C 42.014098 32.809770 65.288627 0
M  V30 12 N 38.454820 33.632269 60.628505 0
M  V30 13 C 39.476396 26.770468 54.066533 0
M  V30 14 C 35.331411 31.785868 60.968931 0
M  V30 15 C 39.436276 27.211321 52.596654 0
M  V30 16 C 39.066922 35.148731 62.623730 0 CFG=1
M  V30 17 C 41.109300 32.880723 63.237401 0
M  V30 18 O 37.043773 33.353145 60.779263 0
M  V30 19 O 40.198463 29.061978 60.370416 0
M  V30 20 O 36.278452 38.021418 61.053520 0
M  V30 21 C 41.979834 30.559156 63.944068 0
M  V30 22 C 37.867522 32.438536 56.364541 0
M  V30 23 C 38.557740 31.982654 58.834837 0 CFG=2
M  V30 24 C 39.253853 27.267465 57.287074 0
M  V30 25 O 39.866928 29.588388 57.644673 0
M  V30 26 N 41.041478 34.141085 63.807513 0
M  V30 27 C 41.602356 34.088394 65.062622 0
M  V30 28 C 38.626126 35.004127 61.142386 0 CFG=2
M  V30 29 C 37.178821 31.484331 59.298507 0
M  V30 30 C 37.012201 28.120918 53.069555 0
M  V30 31 C 37.002736 36.983999 60.422617 0
M  V30 32 C 36.827349 31.957905 60.712386 0 CFG=2
M  V30 33 O 37.538097 31.221422 61.684952 0
M  V30 34 O 41.468264 35.621506 61.053511 0
M  V30 35 N 38.924165 27.900183 54.863371 0 CFG=2 CHG=1
M  V30 36 C 41.390048 36.015061 62.210717 0
M  V30 37 C 40.479381 35.333866 63.187891 0 CFG=1
M  V30 38 C 38.413699 28.301333 52.566966 0 CFG=1
M  V30 39 C 38.721767 33.480576 59.203058 0
M  V30 40 C 39.349315 28.436942 58.292339 0 CFG=2
M  V30 41 C 42.591339 28.563556 65.053509 0
M  V30 42 C 38.257134 27.491320 56.128596 0
M  V30 43 O 38.730172 30.323035 57.004042 0
M  V30 44 O 42.380277 29.957894 65.163991 0
M  V30 45 H 43.196934 27.042645 66.567125 0
M  V30 46 H 42.364121 28.522294 67.274372 0
M  V30 47 H 38.696159 37.314389 62.563467 0
M  V30 48 H 37.533737 36.422629 63.605399 0
M  V30 49 H 37.779254 30.582395 54.442561 0
M  V30 50 H 39.836019 32.006741 57.061403 0
M  V30 51 H 36.546620 35.377909 61.800176 0
M  V30 52 H 37.857991 33.616721 54.562649 0
M  V30 53 H 39.072537 34.087528 55.720355 0
M  V30 54 H 39.305327 32.616127 54.756058 0
M  V30 55 H 40.461546 28.235343 65.648047 0
M  V30 56 H 41.292086 26.754582 64.939147 0
M  V30 57 H 42.491433 32.464503 66.193123 0
M  V30 58 H 40.475548 26.484184 54.396741 0
M  V30 59 H 38.840201 25.892856 54.186022 0
M  V30 60 H 35.026294 32.292250 61.877637 0
M  V30 61 H 34.739035 32.220467 60.162803 0
M  V30 62 H 35.067447 30.738187 61.053799 0
M  V30 63 H 40.381839 27.623727 52.253427 0
M  V30 64 H 39.157871 26.421316 51.904476 0
M  V30 65 H 38.667450 34.244544 63.053489 0
M  V30 66 H 40.723131 32.706839 62.243245 0
M  V30 67 H 39.492168 28.786869 60.937064 0
M  V30 68 H 36.031735 38.669673 60.401575 0
M  V30 69 H 41.077693 30.075659 63.565558 0
M  V30 70 H 42.764526 30.439106 63.195267 0
M  V30 71 H 37.219221 31.724815 55.854568 0
M  V30 72 H 37.215646 33.130565 56.898561 0
M  V30 73 H 39.293286 31.429430 59.418078 0
M  V30 74 H 40.244497 27.009819 56.907057 0
M  V30 75 H 38.922929 26.390823 57.846124 0
M  V30 76 H 41.654450 34.972103 65.681946 0
M  V30 77 H 39.268201 35.545868 60.454024 0
M  V30 78 H 36.423141 31.908875 58.653508 0
M  V30 79 H 37.084756 30.403744 59.213156 0
M  V30 80 H 36.267010 28.785069 52.652765 0
M  V30 81 H 36.668644 27.113565 53.288344 0
M  V30 82 H 37.867356 37.413638 59.920190 0
M  V30 83 H 36.379277 36.532842 59.650291 0
M  V30 84 H 38.445032 31.477914 61.614089 0
M  V30 85 H 41.956137 36.850641 62.605839 0
M  V30 86 H 40.398368 36.055858 64.001495 0
M  V30 87 H 38.544211 29.054880 51.791815 0
M  V30 88 H 39.737244 33.811845 58.984736 0
M  V30 89 H 38.033523 34.113060 58.642240 0
M  V30 90 H 38.359722 28.642231 58.700762 0
M  V30 91 H 43.321714 28.231672 64.317088 0
M  V30 92 H 37.671054 26.587808 55.954265 0
M  V30 93 H 37.522890 28.241517 56.423971 0
M  V30 94 H 39.685757 28.518928 55.104327 0
M  V30 END ATOM
M  V30 BEGIN BOND
M  V30 1 1 5 2
M  V30 2 1 9 1
M  V30 3 1 10 3 CFG=1
M  V30 4 1 11 7
M  V30 5 1 15 13
M  V30 6 1 16 2
M  V30 7 2 17 7
M  V30 8 1 18 12
M  V30 9 1 19 8
M  V30 10 1 21 7
M  V30 11 1 22 4
M  V30 12 1 22 6
M  V30 13 1 23 4
M  V30 14 1 26 17
M  V30 15 2 27 11
M  V30 16 1 27 26
M  V30 17 1 28 5
M  V30 18 1 28 12
M  V30 19 1 28 16
M  V30 20 1 29 23
M  V30 21 1 30 10
M  V30 22 1 31 5
M  V30 23 1 31 20
M  V30 24 1 32 14
M  V30 25 1 32 18
M  V30 26 1 32 29
M  V30 27 1 32 33 CFG=1
M  V30 28 1 35 10
M  V30 29 1 35 13
M  V30 30 2 36 34
M  V30 31 1 37 16
M  V30 32 1 37 26
M  V30 33 1 37 36
M  V30 34 1 38 10
M  V30 35 1 38 15
M  V30 36 1 38 30
M  V30 37 1 39 12
M  V30 38 1 39 23
M  V30 39 1 40 8
M  V30 40 1 40 24
M  V30 41 1 40 25
M  V30 42 1 41 1
M  V30 43 1 41 9
M  V30 44 1 42 24
M  V30 45 1 42 35
M  V30 46 1 43 4
M  V30 47 1 43 25
M  V30 48 1 44 21
M  V30 49 1 44 41
M  V30 50 1 45 1
M  V30 51 1 46 1
M  V30 52 1 47 2
M  V30 53 1 48 2
M  V30 54 1 49 3
M  V30 55 1 4 50 CFG=3
M  V30 56 1 5 51 CFG=1
M  V30 57 1 52 6
M  V30 58 1 53 6
M  V30 59 1 54 6
M  V30 60 1 55 9
M  V30 61 1 56 9
M  V30 62 1 57 11
M  V30 63 1 58 13
M  V30 64 1 59 13
M  V30 65 1 60 14
M  V30 66 1 61 14
M  V30 67 1 62 14
M  V30 68 1 63 15
M  V30 69 1 64 15
M  V30 70 1 16 65 CFG=1
M  V30 71 1 66 17
M  V30 72 1 67 19
M  V30 73 1 68 20
M  V30 74 1 69 21
M  V30 75 1 70 21
M  V30 76 1 71 22
M  V30 77 1 72 22
M  V30 78 1 23 73 CFG=1
M  V30 79 1 74 24
M  V30 80 1 75 24
M  V30 81 1 76 27
M  V30 82 1 28 77 CFG=3
M  V30 83 1 78 29
M  V30 84 1 79 29
M  V30 85 1 80 30
M  V30 86 1 81 30
M  V30 87 1 82 31
M  V30 88 1 83 31
M  V30 89 1 84 33
M  V30 90 1 85 36
M  V30 91 1 37 86 CFG=1
M  V30 92 1 38 87 CFG=3
M  V30 93 1 88 39
M  V30 94 1 89 39
M  V30 95 1 40 90 CFG=1
M  V30 96 1 91 41
M  V30 97 1 92 42
M  V30 98 1 93 42
M  V30 99 1 35 94 CFG=1
M  V30 END BOND
M  V30 END CTAB
M  END
>  <i_epik_Tot_Q>  (1) 
1

>  <i_epik_Tot_abs_Q>  (1) 
1

>  <i_i_glide_confnum>  (1) 
3753

>  <i_i_glide_lignum>  (1) 
72

>  <i_i_glide_posenum>  (1) 
109

>  <i_i_glide_rotatable_bonds>  (1) 
21

>  <i_lp_mmshare_version>  (1) 
72125

>  <i_m_source_file_index>  (1) 
29

>  <i_f3d_flags>  (1) 
2

>  <num_sample>  (1) 
50

>  <b_lp_Chiralities_Consistent>  (1) 
0

>  <r_epik_Charging_Adjusted_Penalty>  (1) 
1.2455417737221615

>  <r_epik_Ionization_Penalty>  (1) 
0.6411459992377706

>  <r_epik_Ionization_Penalty_Charging>  (1) 
0.62277088686108073

>  <r_epik_Ionization_Penalty_Neutral>  (1) 
0.018375112376689838

>  <r_epik_State_Penalty>  (1) 
0.62277088686108073

>  <r_glide_ring_energy>  (1) 
0

>  <r_i_docking_score>  (1) 
-8.4285621949725318

>  <r_i_glide_ecoul>  (1) 
-7.8409638317827071

>  <r_i_glide_eff_state_penalty>  (1) 
0.62277088686108073

>  <r_i_glide_einternal>  (1) 
36.23599975091566

>  <r_i_glide_emodel>  (1) 
-54.543913412012373

>  <r_i_glide_emodel_strain>  (1) 
3.9940244546796322

>  <r_i_glide_energy>  (1) 
-52.024438598674173

>  <r_i_glide_erotb>  (1) 
0.67661073285980611

>  <r_i_glide_esite>  (1) 
-0.078069876487559614

>  <r_i_glide_evdw>  (1) 
-44.183474766891464

>  <r_i_glide_gscore>  (1) 
-9.0513330818336133

>  <r_i_glide_gscore_strain>  (1) 
0

>  <r_i_glide_hbond>  (1) 
-0.60799999999999998

>  <r_i_glide_ligand_efficiency>  (1) 
-0.19155823170392117

>  <r_i_glide_ligand_efficiency_ln>  (1) 
-1.7617533668015415

>  <r_i_glide_ligand_efficiency_sa>  (1) 
-0.67626728441394257

>  <r_i_glide_lipo>  (1) 
-3.689976950649084

>  <r_i_glide_metal>  (1) 
-0

>  <r_i_glide_rewards>  (1) 
-1.9665786744447962

>  <r_lp_Energy>  (1) 
40.866444999999999

>  <s_epik_Chemistry_Notes>  (1) 
This compound contains an acetal/aminal-like group ( X-CH(R)-Y where X, Y are N, S, or O) that may be acid/base labile, releasing an aldehyde. This compound has a N-S or N-O group and may undergo hydrolysis at high or low pH.

>  <s_epik_cmdline>  (1) 
J2VwaWtfcHl0aG9uJywgJy1waHQnLCAnMS4wJywgJy1waCcsICc3LjQnLCAnLXRuJywgJzgnLCAnLW1hJywgJzUwMCcsICctaW1hZScsICc8aW5maWxlLm1hZT4nLCAnLW9tYWUnLCAnPG91dGZpbGUubWFlPic=

>  <s_epik_input>  (1) 
W0NIMl0xW0NIMl1bQ0hdMU9bQ0gyXWMyW2NIXVtjSF1uKFtjSF0yKVtDQEBIXShbQ0hdPU8pW0NAQEhdKFtDSDJdW0NASF0zW0NIMl1bT0hdKVtDQEhdM04oT1tDQF00KFtDSDNdKVtPSF0pW0NIMl1bQ0BASF0oW0NIMl00KVtDQEhdKFtDSDJdW0NIM10pT09bQ0BIXShPW09IXSlbQ0gyXVtDSDJdTjVbQ0gyXVtDSDJdW0NASF0oW0NIMl02KVtDQEBdNTZbT0hd

>  <s_glide_docking_method>  (1) 
confgen

>  <s_i_glide_gridfile>  (1) 
gpcr_5ht2c_6bqh_protein_autoprepared_prepared

>  <s_lp_Force_Field>  (1) 
S-OPLS

>  <s_lp_Variant>  (1) 
DiffSBDD_28_num_sample_50-2

>  <s_m_source_file>  (1) 
generated__ligand_DiffSBDD_2026-05-06_prepared.sdf

>  <GenAI_Model>  (1) 
DiffSBDD

>  <Protein>  (1) 
GPCR_5HT2C

$$$$
DiffSBDD_8_num_sample_50
     RDKit          3D

  0  0  0  0  0  0  0  0  0  0999 V3000
M  V30 BEGIN CTAB
M  V30 COUNTS 70 74 0 0 1
M  V30 BEGIN ATOM
M  V30 1 C 38.512239 31.394896 56.291759 0
M  V30 2 N 38.771655 32.588278 60.961551 0
M  V30 3 C 40.223633 30.948442 63.888710 0
M  V30 4 C 41.853243 29.873836 65.502627 0
M  V30 5 C 40.936482 33.571922 61.748724 0
M  V30 6 C 37.136936 37.176899 62.466498 0
M  V30 7 C 41.087448 29.877785 64.194649 0
M  V30 8 C 38.220530 36.821497 63.286786 0
M  V30 9 C 38.300975 32.661704 58.500613 0
M  V30 10 C 39.237224 35.988195 62.787653 0
M  V30 11 N 37.867403 31.550591 57.615467 0 CHG=1
M  V30 12 N 40.035377 33.206603 60.653496 0
M  V30 13 C 38.292696 28.556300 53.612303 0
M  V30 14 C 38.455525 27.474599 56.567473 0
M  V30 15 N 37.515247 27.584783 54.253462 0
M  V30 16 C 39.867390 30.485740 52.447940 0
M  V30 17 C 41.236686 28.811050 63.284140 0
M  V30 18 O 36.838273 31.701716 60.154700 0
M  V30 19 C 38.570510 32.119342 62.341688 0
M  V30 20 C 39.503238 30.952409 62.675678 0
M  V30 21 O 39.619571 26.421504 54.709245 0
M  V30 22 C 38.339896 26.806440 55.176140 0 CFG=1
M  V30 23 N 39.476211 30.684559 53.731578 0
M  V30 24 O 41.000907 29.974558 66.623838 0
M  V30 25 C 37.067338 36.692866 61.149818 0
M  V30 26 C 40.261560 34.632193 60.923501 0 CFG=1
M  V30 27 C 39.072163 28.892896 56.610427 0
M  V30 28 C 38.709265 28.368985 52.284970 0
M  V30 29 C 40.519435 28.812918 62.072759 0
M  V30 30 C 37.903981 32.284160 59.951641 0
M  V30 31 C 39.168761 35.493674 61.465915 0
M  V30 32 F 36.162876 37.987686 62.943069 0
M  V30 33 C 39.652353 29.878762 61.768287 0
M  V30 34 C 38.697802 29.729398 54.294890 0
M  V30 35 C 38.309789 29.944110 55.761618 0 CFG=2
M  V30 36 C 39.510341 29.352295 51.690362 0
M  V30 37 C 38.072731 35.849878 60.653513 0
M  V30 38 H 38.058361 32.122058 55.616379 0
M  V30 39 H 39.576727 31.625410 56.353000 0
M  V30 40 H 40.112707 31.766013 64.586114 0
M  V30 41 H 42.452709 28.967522 65.592924 0
M  V30 42 H 42.545857 30.715915 65.509274 0
M  V30 43 H 40.653906 33.520214 62.795168 0
M  V30 44 H 41.995161 33.398527 61.569025 0
M  V30 45 H 38.276580 37.195279 64.298694 0
M  V30 46 H 39.367282 32.821413 58.353851 0
M  V30 47 H 37.791217 33.577774 58.200781 0
M  V30 48 H 40.074311 35.728017 63.419188 0
M  V30 49 H 38.021170 30.701040 58.136410 0
M  V30 50 H 39.036990 26.822762 57.221308 0
M  V30 51 H 37.467389 27.516184 57.023207 0
M  V30 52 H 36.721510 27.978716 54.735150 0
M  V30 53 H 40.485356 31.256634 52.012804 0
M  V30 54 H 41.899318 27.989816 63.516241 0
M  V30 55 H 38.676907 32.934849 63.053427 0
M  V30 56 H 37.550344 31.769586 62.499576 0
M  V30 57 H 39.828958 25.573110 55.069741 0
M  V30 58 H 37.795867 25.871220 55.312456 0
M  V30 59 H 40.426266 29.222779 66.630145 0
M  V30 60 H 36.238737 36.968625 60.517526 0
M  V30 61 H 40.887119 35.221353 60.253774 0
M  V30 62 H 39.090332 29.193064 57.657307 0
M  V30 63 H 40.118654 28.855275 56.302550 0
M  V30 64 H 38.422212 27.483994 51.735124 0
M  V30 65 H 40.632645 27.993975 61.377549 0
M  V30 66 H 39.103104 29.873721 60.839526 0
M  V30 67 H 37.238280 29.747597 55.833199 0
M  V30 68 H 39.849695 29.242504 50.671068 0
M  V30 69 H 38.008443 35.481470 59.642650 0
M  V30 70 H 36.855274 31.625264 57.453518 0
M  V30 END ATOM
M  V30 BEGIN BOND
M  V30 1 2 7 3
M  V30 2 1 7 4
M  V30 3 1 8 6
M  V30 4 2 10 8
M  V30 5 1 11 1
M  V30 6 1 11 9
M  V30 7 1 12 2
M  V30 8 1 12 5
M  V30 9 1 15 13
M  V30 10 1 17 7
M  V30 11 1 19 2
M  V30 12 1 20 3
M  V30 13 1 20 19
M  V30 14 1 22 14
M  V30 15 1 22 15
M  V30 16 1 22 21
M  V30 17 1 23 16
M  V30 18 1 24 4
M  V30 19 2 25 6
M  V30 20 1 26 5
M  V30 21 1 26 12
M  V30 22 1 27 14
M  V30 23 2 28 13
M  V30 24 2 29 17
M  V30 25 1 30 2
M  V30 26 1 30 9
M  V30 27 2 30 18
M  V30 28 1 31 10
M  V30 29 1 31 26
M  V30 30 1 32 6
M  V30 31 2 33 20
M  V30 32 1 33 29
M  V30 33 1 34 13
M  V30 34 2 34 23
M  V30 35 1 35 1
M  V30 36 1 35 27
M  V30 37 1 35 34
M  V30 38 2 36 16
M  V30 39 1 36 28
M  V30 40 1 37 25
M  V30 41 2 37 31
M  V30 42 1 38 1
M  V30 43 1 39 1
M  V30 44 1 40 3
M  V30 45 1 41 4
M  V30 46 1 42 4
M  V30 47 1 43 5
M  V30 48 1 44 5
M  V30 49 1 45 8
M  V30 50 1 46 9
M  V30 51 1 47 9
M  V30 52 1 48 10
M  V30 53 1 49 11
M  V30 54 1 50 14
M  V30 55 1 51 14
M  V30 56 1 52 15
M  V30 57 1 53 16
M  V30 58 1 54 17
M  V30 59 1 55 19
M  V30 60 1 56 19
M  V30 61 1 57 21
M  V30 62 1 22 58 CFG=1
M  V30 63 1 59 24
M  V30 64 1 60 25
M  V30 65 1 26 61 CFG=3
M  V30 66 1 62 27
M  V30 67 1 63 27
M  V30 68 1 64 28
M  V30 69 1 65 29
M  V30 70 1 66 33
M  V30 71 1 35 67 CFG=3
M  V30 72 1 68 36
M  V30 73 1 69 37
M  V30 74 1 70 11
M  V30 END BOND
M  V30 END CTAB
M  END
>  <i_epik_Tot_Q>  (1) 
1

>  <i_epik_Tot_abs_Q>  (1) 
1

>  <i_i_glide_confnum>  (1) 
366

>  <i_i_glide_lignum>  (1) 
29

>  <i_i_glide_posenum>  (1) 
382

>  <i_i_glide_rotatable_bonds>  (1) 
12

>  <i_lp_mmshare_version>  (1) 
72125

>  <i_m_source_file_index>  (1) 
9

>  <i_f3d_flags>  (1) 
0

>  <num_sample>  (1) 
50

>  <b_lp_Chiralities_Consistent>  (1) 
1

>  <r_epik_Charging_Adjusted_Penalty>  (1) 
0.46903428826383708

>  <r_epik_Ionization_Penalty>  (1) 
0.30166015279675507

>  <r_epik_Ionization_Penalty_Charging>  (1) 
0.29766720737570945

>  <r_epik_Ionization_Penalty_Neutral>  (1) 
0.0039929454210456379

>  <r_epik_State_Penalty>  (1) 
0.17136708088812766

>  <r_glide_ring_energy>  (1) 
0

>  <r_i_docking_score>  (1) 
-8.4227821702597545

>  <r_i_glide_ecoul>  (1) 
-5.961168721620564

>  <r_i_glide_eff_state_penalty>  (1) 
0.17136708088812766

>  <r_i_glide_einternal>  (1) 
4.7093709410775695

>  <r_i_glide_emodel>  (1) 
-94.77568526669647

>  <r_i_glide_emodel_strain>  (1) 
0

>  <r_i_glide_energy>  (1) 
-57.381505775056077

>  <r_i_glide_erotb>  (1) 
0.79724194346153032

>  <r_i_glide_esite>  (1) 
-0.12052445368979492

>  <r_i_glide_evdw>  (1) 
-51.42033705343551

>  <r_i_glide_gscore>  (1) 
-8.5941492511478828

>  <r_i_glide_gscore_strain>  (1) 
0

>  <r_i_glide_hbond>  (1) 
-0.20000000000000001

>  <r_i_glide_ligand_efficiency>  (1) 
-0.22764276135837175

>  <r_i_glide_ligand_efficiency_ln>  (1) 
-1.8267039946997321

>  <r_i_glide_ligand_efficiency_sa>  (1) 
-0.75855618376739142

>  <r_i_glide_lipo>  (1) 
-4.0276404197600835

>  <r_i_glide_metal>  (1) 
-0

>  <r_i_glide_rewards>  (1) 
-1.5780341602446746

>  <r_lp_Energy>  (1) 
69.367840000000001

>  <s_epik_Chemistry_Notes>  (1) 
This compound contains an acetal/aminal-like group ( X-CH(R)-Y where X, Y are N, S, or O) that may be acid/base labile, releasing an aldehyde.

>  <s_epik_cmdline>  (1) 
J2VwaWtfcHl0aG9uJywgJy1waHQnLCAnMS4wJywgJy1waCcsICc3LjQnLCAnLXRuJywgJzgnLCAnLW1hJywgJzUwMCcsICctaW1hZScsICc8aW5maWxlLm1hZT4nLCAnLW9tYWUnLCAnPG91dGZpbGUubWFlPic=

>  <s_epik_input>  (1) 
W2NIXTFbY0hdW2NIXW5jKGMxMilbQ0BASF0oW0NIMl1bQ0gyXVtDQEBIXShbTkhdMilbT0hdKVtDSDJdW05IXVtDSDJdQyg9TylOKFtDSDJdYyhbY0hdW2NIXVtjSF0zKVtjSF1jM1tDSDJdW09IXSlONFtDSDJdW0NAQEhdNGMoW2NIXVtjSF01KVtjSF1bY0hdYzVG

>  <s_glide_docking_method>  (1) 
confgen

>  <s_i_glide_gridfile>  (1) 
gpcr_5ht2c_6bqh_protein_autoprepared_prepared

>  <s_lp_Force_Field>  (1) 
S-OPLS

>  <s_lp_Variant>  (1) 
DiffSBDD_8_num_sample_50-1

>  <s_m_source_file>  (1) 
generated__ligand_DiffSBDD_2026-05-06_prepared.sdf

>  <GenAI_Model>  (1) 
DiffSBDD

>  <Protein>  (1) 
GPCR_5HT2C

$$$$
DiffSBDD_6_num_sample_50
     RDKit          3D

  0  0  0  0  0  0  0  0  0  0999 V3000
M  V30 BEGIN CTAB
M  V30 COUNTS 65 68 0 0 1
M  V30 BEGIN ATOM
M  V30 1 N 40.615569 31.905320 61.799845 0
M  V30 2 N 36.835551 31.121993 59.706298 0 CHG=1
M  V30 3 C 35.875280 30.421514 59.053528 0
M  V30 4 C 40.642482 35.466993 63.169316 0
M  V30 5 C 39.864460 30.418434 52.652728 0
M  V30 6 N 38.582155 28.128025 59.027521 0
M  V30 7 N 36.428085 29.236356 58.700218 0
M  V30 8 N 40.552984 28.832526 57.848602 0
M  V30 9 C 38.733403 33.115636 60.844547 0
M  V30 10 C 39.312325 27.959082 51.395684 0
M  V30 11 N 39.181841 30.728463 60.333103 0
M  V30 12 O 39.073026 29.494109 54.746749 0
M  V30 13 C 38.367897 25.979780 58.114039 0
M  V30 14 C 37.065836 24.264028 54.869527 0
M  V30 15 F 39.045946 26.779420 50.789290 0
M  V30 16 C 37.702840 29.208743 59.156398 0
M  V30 17 C 39.324325 29.347685 53.403100 0
M  V30 18 C 42.132287 32.907251 63.406335 0
M  V30 19 C 37.115897 25.288621 56.003823 0
M  V30 20 F 40.111115 31.604244 53.246805 0
M  V30 21 C 40.134624 30.252489 51.281291 0
M  V30 22 C 40.227784 29.679644 60.251782 0
M  V30 23 C 40.938662 33.022838 62.486962 0
M  V30 24 C 39.859971 29.023909 50.653622 0
M  V30 25 C 39.103713 34.278346 61.538868 0
M  V30 26 C 38.406995 25.161349 56.823623 0
M  V30 27 C 39.979708 28.549682 59.165210 0 CFG=1
M  V30 28 C 40.220859 34.233585 62.382276 0
M  V30 29 O 38.370509 27.366574 57.828441 0
M  V30 30 F 38.525757 27.091609 53.481734 0
M  V30 31 C 39.794839 29.796230 57.026758 0
M  V30 32 C 39.045016 28.119694 52.768833 0
M  V30 33 C 37.961512 30.367012 59.751383 0
M  V30 34 C 40.219452 29.749526 55.560529 0
M  V30 35 C 39.514111 31.937262 61.009529 0
M  V30 36 H 34.877881 30.759916 58.823516 0
M  V30 37 H 35.964217 28.498021 58.187499 0
M  V30 38 H 39.902066 36.263330 63.083067 0
M  V30 39 H 41.587827 35.854751 62.787481 0
M  V30 40 H 40.761474 35.236688 64.229784 0
M  V30 41 H 40.561673 27.954545 57.346620 0
M  V30 42 H 37.884671 33.141448 60.193513 0
M  V30 43 H 39.227600 25.713410 58.730477 0
M  V30 44 H 37.467731 25.720028 58.653476 0
M  V30 45 H 36.204238 24.421090 54.223259 0
M  V30 46 H 37.015846 23.244517 55.251153 0
M  V30 47 H 37.956896 24.345243 54.253537 0
M  V30 48 H 42.672759 33.846988 63.457123 0
M  V30 49 H 42.810947 32.127912 63.058387 0
M  V30 50 H 41.799986 32.642530 64.409592 0
M  V30 51 H 37.047149 26.295738 55.591007 0
M  V30 52 H 36.244368 25.154527 56.645694 0
M  V30 53 H 40.548838 31.071067 50.710371 0
M  V30 54 H 40.260978 29.203070 61.231955 0
M  V30 55 H 41.212832 30.114834 60.099006 0
M  V30 56 H 40.064351 28.899365 49.601728 0
M  V30 57 H 38.532208 35.187754 61.430513 0
M  V30 58 H 38.555443 24.114100 57.088059 0
M  V30 59 H 39.272618 25.447694 56.223690 0
M  V30 60 H 40.529429 27.674344 59.513860 0
M  V30 61 H 38.733495 29.576648 56.997773 0
M  V30 62 H 39.866818 30.805462 57.428868 0
M  V30 63 H 40.970971 28.970801 55.453483 0
M  V30 64 H 40.667357 30.704177 55.297191 0
M  V30 65 H 36.728171 32.054041 60.081480 0
M  V30 END ATOM
M  V30 BEGIN BOND
M  V30 1 2 3 2
M  V30 2 1 7 3
M  V30 3 1 15 10
M  V30 4 1 16 6
M  V30 5 1 16 7
M  V30 6 2 17 5
M  V30 7 1 17 12
M  V30 8 1 19 14
M  V30 9 1 20 5
M  V30 10 1 21 5
M  V30 11 1 22 11
M  V30 12 1 23 1
M  V30 13 1 23 18
M  V30 14 1 24 10
M  V30 15 2 24 21
M  V30 16 2 25 9
M  V30 17 1 26 13
M  V30 18 1 26 19
M  V30 19 1 27 6
M  V30 20 1 27 8
M  V30 21 1 27 22
M  V30 22 1 28 4
M  V30 23 2 28 23
M  V30 24 1 28 25
M  V30 25 1 29 6
M  V30 26 1 29 13
M  V30 27 1 31 8
M  V30 28 2 32 10
M  V30 29 1 32 17
M  V30 30 1 32 30
M  V30 31 1 33 2
M  V30 32 1 33 11
M  V30 33 2 33 16
M  V30 34 1 34 12
M  V30 35 1 34 31
M  V30 36 2 35 1
M  V30 37 1 35 9
M  V30 38 1 35 11
M  V30 39 1 36 3
M  V30 40 1 37 7
M  V30 41 1 38 4
M  V30 42 1 39 4
M  V30 43 1 40 4
M  V30 44 1 41 8
M  V30 45 1 42 9
M  V30 46 1 43 13
M  V30 47 1 44 13
M  V30 48 1 45 14
M  V30 49 1 46 14
M  V30 50 1 47 14
M  V30 51 1 48 18
M  V30 52 1 49 18
M  V30 53 1 50 18
M  V30 54 1 51 19
M  V30 55 1 52 19
M  V30 56 1 53 21
M  V30 57 1 54 22
M  V30 58 1 55 22
M  V30 59 1 56 24
M  V30 60 1 57 25
M  V30 61 1 58 26
M  V30 62 1 59 26
M  V30 63 1 27 60 CFG=1
M  V30 64 1 61 31
M  V30 65 1 62 31
M  V30 66 1 63 34
M  V30 67 1 64 34
M  V30 68 1 65 2
M  V30 END BOND
M  V30 END CTAB
M  END
>  <i_epik_Tot_Q>  (1) 
1

>  <i_epik_Tot_abs_Q>  (1) 
1

>  <i_i_glide_confnum>  (1) 
902

>  <i_i_glide_lignum>  (1) 
20

>  <i_i_glide_posenum>  (1) 
108

>  <i_i_glide_rotatable_bonds>  (1) 
10

>  <i_lp_mmshare_version>  (1) 
72125

>  <i_m_source_file_index>  (1) 
7

>  <i_f3d_flags>  (1) 
0

>  <num_sample>  (1) 
50

>  <b_lp_Chiralities_Consistent>  (1) 
1

>  <r_epik_Charging_Adjusted_Penalty>  (1) 
0.17211517054128123

>  <r_epik_Ionization_Penalty>  (1) 
0.10319272176977491

>  <r_epik_Ionization_Penalty_Charging>  (1) 
0

>  <r_epik_Ionization_Penalty_Neutral>  (1) 
0.10319272176977491

>  <r_epik_State_Penalty>  (1) 
0.17211517054128123

>  <r_glide_ring_energy>  (1) 
0

>  <r_i_docking_score>  (1) 
-8.4209065752669741

>  <r_i_glide_ecoul>  (1) 
-1.5835589583367904

>  <r_i_glide_eff_state_penalty>  (1) 
0.17211517054128123

>  <r_i_glide_einternal>  (1) 
3.376265263906042

>  <r_i_glide_emodel>  (1) 
-63.248594344198963

>  <r_i_glide_emodel_strain>  (1) 
2.3316749289190568

>  <r_i_glide_energy>  (1) 
-39.019545710770522

>  <r_i_glide_erotb>  (1) 
0.67408029721787976

>  <r_i_glide_esite>  (1) 
-0.22008022608985295

>  <r_i_glide_evdw>  (1) 
-37.435986752433735

>  <r_i_glide_gscore>  (1) 
-8.5930217458082545

>  <r_i_glide_gscore_strain>  (1) 
0

>  <r_i_glide_hbond>  (1) 
0

>  <r_i_glide_ligand_efficiency>  (1) 
-0.24059733072191355

>  <r_i_glide_ligand_efficiency_ln>  (1) 
-1.8485758852230669

>  <r_i_glide_ligand_efficiency_sa>  (1) 
-0.78700982284575371

>  <r_i_glide_lipo>  (1) 
-4.5184919723442984

>  <r_i_glide_metal>  (1) 
-0

>  <r_i_glide_rewards>  (1) 
-2.419196663219779

>  <r_lp_Energy>  (1) 
50.162378999999994

>  <r_lp_tautomer_probability>  (1) 
0.70072779002327656

>  <s_epik_Chemistry_Notes>  (1) 
This compound contains an acetal/aminal-like group ( X-CH(R)-Y where X, Y are N, S, or O) that may be acid/base labile, releasing an aldehyde. This compound has a N-S or N-O group and may undergo hydrolysis at high or low pH.

>  <s_epik_cmdline>  (1) 
J2VwaWtfcHl0aG9uJywgJy1waHQnLCAnMS4wJywgJy1waCcsICc3LjQnLCAnLXRuJywgJzgnLCAnLW1hJywgJzUwMCcsICctaW1hZScsICc8aW5maWxlLm1hZT4nLCAnLW9tYWUnLCAnPG91dGZpbGUubWFlPic=

>  <s_epik_input>  (1) 
W0NIM11jMVtjSF1bY0hdYyhuYzFbQ0gzXSlOKEMoQzIzKT1OW0NIMl1OPTMpW0NIMl1bQ0BASF0oTjJPW0NIMl1bQ0gyXVtDSDJdW0NIM10pW05IXVtDSDJdW0NIMl1PYyhjNEYpYyhGKWMoRilbY0hdW2NIXTQ=

>  <s_glide_docking_method>  (1) 
confgen

>  <s_i_glide_gridfile>  (1) 
gpcr_5ht2c_6bqh_protein_autoprepared_prepared

>  <s_lp_Force_Field>  (1) 
S-OPLS

>  <s_lp_Variant>  (1) 
DiffSBDD_6_num_sample_50-1

>  <s_m_source_file>  (1) 
generated__ligand_DiffSBDD_2026-05-06_prepared.sdf

>  <GenAI_Model>  (1) 
DiffSBDD

>  <Protein>  (1) 
GPCR_5HT2C

$$$$
DiffSBDD_2_num_sample_50
     RDKit          3D

  0  0  0  0  0  0  0  0  0  0999 V3000
M  V30 BEGIN CTAB
M  V30 COUNTS 69 73 0 0 1
M  V30 BEGIN ATOM
M  V30 1 C 37.872614 30.032109 57.874932 0
M  V30 2 C 40.402141 34.946775 62.919997 0
M  V30 3 C 37.825662 32.978516 56.825175 0
M  V30 4 C 37.610729 31.811397 62.158746 0
M  V30 5 F 42.277578 34.850307 64.371962 0
M  V30 6 C 41.397534 34.104310 63.706043 0
M  V30 7 C 37.574651 30.642424 58.994660 0
M  V30 8 C 38.859631 29.173195 59.516818 0
M  V30 9 C 35.046058 33.122502 61.317246 0
M  V30 10 C 37.228987 33.181012 58.254397 0 CFG=1
M  V30 11 C 39.879280 28.323827 57.318160 0
M  V30 12 C 41.355988 28.596755 62.553942 0 CFG=2
M  V30 13 C 36.443113 37.904329 61.596454 0
M  V30 14 C 38.563196 35.077451 61.307246 0
M  V30 15 C 39.817898 28.259901 55.812839 0
M  V30 16 C 39.467439 33.408181 59.138465 0
M  V30 17 C 37.592907 34.360735 60.326939 0 CFG=2
M  V30 18 C 40.962460 27.937881 58.013452 0
M  V30 19 O 41.067354 28.435579 63.923768 0
M  V30 20 O 34.267469 33.416643 60.174491 0
M  V30 21 C 39.458160 37.115463 62.339855 0
M  V30 22 F 40.737695 33.346920 64.581006 0
M  V30 23 O 41.067101 29.894811 62.022410 0
M  V30 24 C 40.377160 36.341968 63.069519 0
M  V30 25 C 40.141100 28.848150 61.687095 0 CFG=1
M  V30 26 C 39.507438 34.321417 62.041138 0
M  V30 27 P 36.792014 32.770394 60.808586 0 CFG=1 CHG=1
M  V30 28 C 41.016401 28.021431 59.468471 0
M  V30 29 C 36.776181 31.944688 59.123839 0 CFG=2
M  V30 30 C 37.553732 37.364829 60.682382 0
M  V30 31 C 38.627459 28.783467 58.017229 0 CFG=2
M  V30 32 N 38.065079 30.003289 60.096543 0
M  V30 33 N 38.158111 34.021430 59.032657 0
M  V30 34 C 38.543513 36.497066 61.458863 0
M  V30 35 F 42.053018 33.294713 62.873809 0
M  V30 36 C 40.039812 28.597346 60.207234 0
M  V30 37 H 37.567182 30.380351 56.899633 0
M  V30 38 H 37.112678 32.556921 56.124738 0
M  V30 39 H 38.124076 33.936949 56.400044 0
M  V30 40 H 38.691266 32.321494 56.782316 0
M  V30 41 H 38.642381 31.519788 61.981832 0
M  V30 42 H 37.564084 32.402163 63.053493 0
M  V30 43 H 37.067957 30.883354 62.253498 0
M  V30 44 H 35.019021 33.968217 62.005295 0
M  V30 45 H 34.667399 32.256210 61.851352 0
M  V30 46 H 36.336063 33.793544 58.118068 0
M  V30 47 H 42.267403 28.122879 62.211629 0
M  V30 48 H 35.620259 38.330748 61.022924 0
M  V30 49 H 36.049119 37.130193 62.253482 0
M  V30 50 H 36.815688 38.690223 62.249136 0
M  V30 51 H 39.841153 29.259831 55.379843 0
M  V30 52 H 40.667431 27.688847 55.447290 0
M  V30 53 H 38.908923 27.753515 55.486277 0
M  V30 54 H 39.867406 33.221478 58.151873 0
M  V30 55 H 40.167942 34.102919 59.596047 0
M  V30 56 H 39.467376 32.477371 59.703403 0
M  V30 57 H 36.733256 34.998762 60.148690 0
M  V30 58 H 41.829699 27.575784 57.478694 0
M  V30 59 H 40.124462 28.421448 64.042152 0
M  V30 60 H 33.687620 34.142285 60.367786 0
M  V30 61 H 39.454547 38.187626 62.455674 0
M  V30 62 H 41.067351 36.821422 63.741986 0
M  V30 63 H 39.182797 28.905707 62.201677 0
M  V30 64 H 39.559069 33.264296 61.921060 0
M  V30 65 H 41.897075 27.659555 59.969205 0
M  V30 66 H 35.732425 31.666951 59.019488 0
M  V30 67 H 38.100027 38.222091 60.288206 0
M  V30 68 H 37.149412 36.898815 59.786922 0
M  V30 69 H 37.909601 27.964307 57.964636 0
M  V30 END ATOM
M  V30 BEGIN BOND
M  V30 1 1 6 2
M  V30 2 1 6 5
M  V30 3 2 7 1
M  V30 4 1 10 3
M  V30 5 1 15 11
M  V30 6 1 17 14
M  V30 7 2 18 11
M  V30 8 1 19 12
M  V30 9 1 20 9
M  V30 10 1 22 6
M  V30 11 1 23 12
M  V30 12 1 24 2
M  V30 13 2 24 21
M  V30 14 1 25 12
M  V30 15 1 25 23
M  V30 16 2 26 2
M  V30 17 1 26 14
M  V30 18 1 27 4 CFG=1
M  V30 19 1 27 9
M  V30 20 1 27 17
M  V30 21 1 28 18
M  V30 22 1 29 7
M  V30 23 1 29 10
M  V30 24 1 29 27
M  V30 25 1 30 13
M  V30 26 1 31 1
M  V30 27 1 31 8
M  V30 28 1 31 11
M  V30 29 1 32 7
M  V30 30 2 32 8
M  V30 31 1 33 10
M  V30 32 1 33 16
M  V30 33 1 33 17
M  V30 34 2 34 14
M  V30 35 1 34 21
M  V30 36 1 34 30
M  V30 37 1 35 6
M  V30 38 1 36 8
M  V30 39 1 36 25
M  V30 40 2 36 28
M  V30 41 1 37 1
M  V30 42 1 38 3
M  V30 43 1 39 3
M  V30 44 1 40 3
M  V30 45 1 41 4
M  V30 46 1 42 4
M  V30 47 1 43 4
M  V30 48 1 44 9
M  V30 49 1 45 9
M  V30 50 1 10 46 CFG=3
M  V30 51 1 12 47 CFG=3
M  V30 52 1 48 13
M  V30 53 1 49 13
M  V30 54 1 50 13
M  V30 55 1 51 15
M  V30 56 1 52 15
M  V30 57 1 53 15
M  V30 58 1 54 16
M  V30 59 1 55 16
M  V30 60 1 56 16
M  V30 61 1 17 57 CFG=3
M  V30 62 1 58 18
M  V30 63 1 59 19
M  V30 64 1 60 20
M  V30 65 1 61 21
M  V30 66 1 62 24
M  V30 67 1 25 63 CFG=1
M  V30 68 1 64 26
M  V30 69 1 65 28
M  V30 70 1 29 66 CFG=3
M  V30 71 1 67 30
M  V30 72 1 68 30
M  V30 73 1 31 69 CFG=1
M  V30 END BOND
M  V30 END CTAB
M  END
>  <i_epik_Tot_Q>  (1) 
1

>  <i_epik_Tot_abs_Q>  (1) 
1

>  <i_i_glide_confnum>  (1) 
13

>  <i_i_glide_lignum>  (1) 
9

>  <i_i_glide_posenum>  (1) 
174

>  <i_i_glide_rotatable_bonds>  (1) 
8

>  <i_lp_mmshare_version>  (1) 
72125

>  <i_m_source_file_index>  (1) 
3

>  <i_f3d_flags>  (1) 
0

>  <num_sample>  (1) 
50

>  <b_lp_Chiralities_Consistent>  (1) 
1

>  <r_epik_Charging_Adjusted_Penalty>  (1) 
0.0033292626678827373

>  <r_epik_Ionization_Penalty>  (1) 
0.0034349233012131116

>  <r_epik_Ionization_Penalty_Charging>  (1) 
0

>  <r_epik_Ionization_Penalty_Neutral>  (1) 
0.0034349233012131116

>  <r_epik_State_Penalty>  (1) 
0.0033292626678827373

>  <r_glide_ring_energy>  (1) 
0

>  <r_i_docking_score>  (1) 
-8.3889783678211032

>  <r_i_glide_ecoul>  (1) 
-7.4902179516982272

>  <r_i_glide_eff_state_penalty>  (1) 
0.0033292626678827373

>  <r_i_glide_einternal>  (1) 
4.4373874056309734

>  <r_i_glide_emodel>  (1) 
-44.620612532537059

>  <r_i_glide_emodel_strain>  (1) 
2.3360236629455216

>  <r_i_glide_energy>  (1) 
-41.284271814098766

>  <r_i_glide_erotb>  (1) 
0.30231676593683265

>  <r_i_glide_esite>  (1) 
-0.017242658134522061

>  <r_i_glide_evdw>  (1) 
-33.794053862400538

>  <r_i_glide_gscore>  (1) 
-8.3923076304889861

>  <r_i_glide_gscore_strain>  (1) 
0

>  <r_i_glide_hbond>  (1) 
-0.60799999999999998

>  <r_i_glide_ligand_efficiency>  (1) 
-0.23302717688391952

>  <r_i_glide_ligand_efficiency_ln>  (1) 
-1.8302484358550082

>  <r_i_glide_ligand_efficiency_sa>  (1) 
-0.76943878508600216

>  <r_i_glide_lipo>  (1) 
-3.5391068743753884

>  <r_i_glide_metal>  (1) 
-0

>  <r_i_glide_rewards>  (1) 
-1.7170394780411482

>  <r_lp_Energy>  (1) 
43.507885999999999

>  <s_epik_Chemistry_Notes>  (1) 
This compound has an imine and may undergo hydrolysis. This compound contains an acetal/aminal-like group ( X-CH(R)-Y where X, Y are N, S, or O) that may be acid/base labile, releasing an aldehyde.

>  <s_epik_cmdline>  (1) 
J2VwaWtfcHl0aG9uJywgJy1waHQnLCAnMS4wJywgJy1waCcsICc3LjQnLCAnLXRuJywgJzgnLCAnLW1hJywgJzUwMCcsICctaW1hZScsICc8aW5maWxlLm1hZT4nLCAnLW9tYWUnLCAnPG91dGZpbGUubWFlPic=

>  <s_epik_input>  (1) 
W09IXVtDSF0xT1tDQEhdMUMyPVtDSF1bQ0hdPUMoW0NIM10pW0NAQEhdKEMyPTMpW0NIXT1DKE4zKVtDQEBIXTRbQ0BIXShbQ0gzXSlOKFtDSDNdKVtDQEBIXShbUEArXTQoW0NIM10pW0NIMl1bT0hdKWMoW2NIXTUpYyhbQ0gyXVtDSDNdKVtjSF1bY0hdYzVDKEYpKEYpRg==

>  <s_glide_docking_method>  (1) 
confgen

>  <s_i_glide_gridfile>  (1) 
gpcr_5ht2c_6bqh_protein_autoprepared_prepared

>  <s_lp_Force_Field>  (1) 
S-OPLS

>  <s_lp_Variant>  (1) 
DiffSBDD_2_num_sample_50-2

>  <s_m_source_file>  (1) 
generated__ligand_DiffSBDD_2026-05-06_prepared.sdf

>  <GenAI_Model>  (1) 
DiffSBDD

>  <Protein>  (1) 
GPCR_5HT2C

$$$$
DiffSBDD_6_num_sample_50
     RDKit          3D

  0  0  0  0  0  0  0  0  0  0999 V3000
M  V30 BEGIN CTAB
M  V30 COUNTS 65 68 0 0 1
M  V30 BEGIN ATOM
M  V30 1 N 39.039550 28.179855 53.314275 0
M  V30 2 N 39.524277 26.810832 55.676157 0
M  V30 3 C 39.732500 26.152314 56.758769 0
M  V30 4 C 40.232361 29.888718 50.115862 0
M  V30 5 C 40.546916 35.066653 61.812299 0
M  V30 6 N 38.823643 29.021827 58.421140 0
M  V30 7 N 39.274046 26.646249 57.923651 0
M  V30 8 N 37.542343 31.139623 58.654749 0
M  V30 9 C 39.468998 30.528859 53.794641 0
M  V30 10 C 38.299786 36.698975 62.296164 0
M  V30 11 N 38.718874 29.009334 55.611783 0 CHG=1
M  V30 12 O 39.403012 34.012670 59.973235 0
M  V30 13 C 39.866054 28.886221 60.443134 0
M  V30 14 C 41.306907 30.866957 62.607141 0
M  V30 15 F 37.223520 37.487286 62.529609 0
M  V30 16 C 38.458795 27.786688 57.741398 0 CFG=2
M  V30 17 C 39.399485 34.933997 61.001765 0
M  V30 18 C 39.328028 27.219691 51.101096 0
M  V30 19 C 41.007732 29.359612 62.694692 0
M  V30 20 F 41.629277 34.285810 61.583069 0
M  V30 21 C 40.569708 36.007877 62.859911 0
M  V30 22 C 38.227946 30.215268 56.385609 0
M  V30 23 C 39.403472 28.411934 52.031910 0
M  V30 24 C 39.448034 36.821429 63.101732 0
M  V30 25 C 39.867403 30.746103 52.467141 0
M  V30 26 C 39.716302 28.943931 61.963406 0
M  V30 27 C 37.810500 29.939684 57.865122 0 CFG=1
M  V30 28 C 39.829754 29.676523 51.564711 0
M  V30 29 O 38.583998 28.818523 59.823616 0
M  V30 30 F 37.163167 35.656001 60.472441 0
M  V30 31 C 38.667223 32.035184 58.883118 0
M  V30 32 C 38.269175 35.759299 61.246453 0
M  V30 33 C 38.886634 27.881466 56.273857 0
M  V30 34 C 38.228585 33.261848 59.692293 0
M  V30 35 C 39.073493 29.223845 54.185068 0
M  V30 36 H 40.267485 25.201592 56.805053 0
M  V30 37 H 39.316972 26.201960 58.828600 0
M  V30 38 H 40.127838 30.939816 49.843475 0
M  V30 39 H 39.615787 29.315432 49.424041 0
M  V30 40 H 41.277212 29.622709 49.980294 0
M  V30 41 H 36.783233 31.630621 58.177707 0
M  V30 42 H 39.496396 31.341995 54.499013 0
M  V30 43 H 40.474211 28.023846 60.162405 0
M  V30 44 H 40.413371 29.763638 60.103158 0
M  V30 45 H 42.215716 31.119409 63.155458 0
M  V30 46 H 40.493821 31.450994 63.038119 0
M  V30 47 H 41.437899 31.206580 61.579702 0
M  V30 48 H 40.081969 27.238371 50.314830 0
M  V30 49 H 38.338634 27.161925 50.653626 0
M  V30 50 H 39.468030 26.301641 51.668076 0
M  V30 51 H 41.854618 28.787690 62.313571 0
M  V30 52 H 40.915194 29.088995 63.747774 0
M  V30 53 H 41.450555 36.107041 63.478842 0
M  V30 54 H 37.412048 30.667001 55.819033 0
M  V30 55 H 39.061668 30.912870 56.404538 0
M  V30 56 H 39.469093 37.543284 63.905359 0
M  V30 57 H 40.187948 31.719871 52.144416 0
M  V30 58 H 39.402714 27.957580 62.303258 0
M  V30 59 H 38.911241 29.629580 62.230740 0
M  V30 60 H 36.831977 29.455716 57.853697 0
M  V30 61 H 39.455889 31.521157 59.432611 0
M  V30 62 H 39.087171 32.371189 57.935664 0
M  V30 63 H 37.741500 32.959786 60.621351 0
M  V30 64 H 37.525894 33.842594 59.095182 0
M  V30 65 H 37.410968 27.496493 57.843644 0
M  V30 END ATOM
M  V30 BEGIN BOND
M  V30 1 2 3 2
M  V30 2 1 7 3
M  V30 3 1 15 10
M  V30 4 1 16 6
M  V30 5 1 16 7
M  V30 6 2 17 5
M  V30 7 1 17 12
M  V30 8 1 19 14
M  V30 9 1 20 5
M  V30 10 1 21 5
M  V30 11 1 22 11
M  V30 12 1 23 1
M  V30 13 1 23 18
M  V30 14 1 24 10
M  V30 15 2 24 21
M  V30 16 2 25 9
M  V30 17 1 26 13
M  V30 18 1 26 19
M  V30 19 1 27 6
M  V30 20 1 27 8
M  V30 21 1 27 22
M  V30 22 1 28 4
M  V30 23 2 28 23
M  V30 24 1 28 25
M  V30 25 1 29 6
M  V30 26 1 29 13
M  V30 27 1 31 8
M  V30 28 2 32 10
M  V30 29 1 32 17
M  V30 30 1 32 30
M  V30 31 1 33 2
M  V30 32 2 33 11
M  V30 33 1 33 16
M  V30 34 1 34 12
M  V30 35 1 34 31
M  V30 36 2 35 1
M  V30 37 1 35 9
M  V30 38 1 35 11
M  V30 39 1 36 3
M  V30 40 1 37 7
M  V30 41 1 38 4
M  V30 42 1 39 4
M  V30 43 1 40 4
M  V30 44 1 41 8
M  V30 45 1 42 9
M  V30 46 1 43 13
M  V30 47 1 44 13
M  V30 48 1 45 14
M  V30 49 1 46 14
M  V30 50 1 47 14
M  V30 51 1 48 18
M  V30 52 1 49 18
M  V30 53 1 50 18
M  V30 54 1 51 19
M  V30 55 1 52 19
M  V30 56 1 53 21
M  V30 57 1 54 22
M  V30 58 1 55 22
M  V30 59 1 56 24
M  V30 60 1 57 25
M  V30 61 1 58 26
M  V30 62 1 59 26
M  V30 63 1 27 60 CFG=3
M  V30 64 1 61 31
M  V30 65 1 62 31
M  V30 66 1 63 34
M  V30 67 1 64 34
M  V30 68 1 16 65 CFG=3
M  V30 END BOND
M  V30 END CTAB
M  END
>  <i_epik_Tot_Q>  (1) 
1

>  <i_epik_Tot_abs_Q>  (1) 
1

>  <i_i_glide_confnum>  (1) 
459

>  <i_i_glide_lignum>  (1) 
22

>  <i_i_glide_posenum>  (1) 
173

>  <i_i_glide_rotatable_bonds>  (1) 
10

>  <i_lp_mmshare_version>  (1) 
72125

>  <i_m_source_file_index>  (1) 
7

>  <i_f3d_flags>  (1) 
0

>  <num_sample>  (1) 
50

>  <b_lp_Chiralities_Consistent>  (1) 
1

>  <r_epik_Charging_Adjusted_Penalty>  (1) 
0.81638474559902796

>  <r_epik_Ionization_Penalty>  (1) 
6.3086919552564762

>  <r_epik_Ionization_Penalty_Charging>  (1) 
0

>  <r_epik_Ionization_Penalty_Neutral>  (1) 
6.3086919552564762

>  <r_epik_State_Penalty>  (1) 
0.81638474559902796

>  <r_glide_ring_energy>  (1) 
0

>  <r_i_docking_score>  (1) 
-8.3780220544591373

>  <r_i_glide_ecoul>  (1) 
-6.6370028407820447

>  <r_i_glide_eff_state_penalty>  (1) 
0.81638474559902796

>  <r_i_glide_einternal>  (1) 
28.157433754603712

>  <r_i_glide_emodel>  (1) 
-74.10664613884677

>  <r_i_glide_emodel_strain>  (1) 
3.6775709615456833

>  <r_i_glide_energy>  (1) 
-58.264059998125212

>  <r_i_glide_erotb>  (1) 
0.67408029721787976

>  <r_i_glide_esite>  (1) 
-0.057635124764351134

>  <r_i_glide_evdw>  (1) 
-51.627057157343167

>  <r_i_glide_gscore>  (1) 
-9.1944068000581645

>  <r_i_glide_gscore_strain>  (1) 
0

>  <r_i_glide_hbond>  (1) 
-0.16

>  <r_i_glide_ligand_efficiency>  (1) 
-0.23937205869883249

>  <r_i_glide_ligand_efficiency_ln>  (1) 
-1.8391617811350875

>  <r_i_glide_ligand_efficiency_sa>  (1) 
-0.78300187681023659

>  <r_i_glide_lipo>  (1) 
-3.8699675858479248

>  <r_i_glide_metal>  (1) 
-0

>  <r_i_glide_rewards>  (1) 
-2.2039811026793039

>  <r_lp_Energy>  (1) 
45.017523999999995

>  <r_lp_tautomer_probability>  (1) 
0.23620936778007409

>  <s_epik_Chemistry_Notes>  (1) 
This compound has an imine and may undergo hydrolysis. This compound contains an acetal/aminal-like group ( X-CH(R)-Y where X, Y are N, S, or O) that may be acid/base labile, releasing an aldehyde. This compound has a N-S or N-O group and may undergo hydrolysis at high or low pH.

>  <s_epik_cmdline>  (1) 
J2VwaWtfcHl0aG9uJywgJy1waHQnLCAnMS4wJywgJy1waCcsICc3LjQnLCAnLXRuJywgJzgnLCAnLW1hJywgJzUwMCcsICctaW1hZScsICc8aW5maWxlLm1hZT4nLCAnLW9tYWUnLCAnPG91dGZpbGUubWFlPic=

>  <s_epik_input>  (1) 
W0NIM11jMVtjSF1bY0hdYyhuYzFbQ0gzXSlOKEMoQzIzKT1OW0NIMl1OPTMpW0NIMl1bQ0BASF0oTjJPW0NIMl1bQ0gyXVtDSDJdW0NIM10pW05IXVtDSDJdW0NIMl1PYyhjNEYpYyhGKWMoRilbY0hdW2NIXTQ=

>  <s_glide_docking_method>  (1) 
confgen

>  <s_i_glide_gridfile>  (1) 
gpcr_5ht2c_6bqh_protein_autoprepared_prepared

>  <s_lp_Force_Field>  (1) 
S-OPLS

>  <s_lp_Variant>  (1) 
DiffSBDD_6_num_sample_50-3

>  <s_m_source_file>  (1) 
generated__ligand_DiffSBDD_2026-05-06_prepared.sdf

>  <GenAI_Model>  (1) 
DiffSBDD

>  <Protein>  (1) 
GPCR_5HT2C

$$$$
DiffSBDD_21_num_sample_50
     RDKit          3D

  0  0  0  0  0  0  0  0  0  0999 V3000
M  V30 BEGIN CTAB
M  V30 COUNTS 48 49 0 0 1
M  V30 BEGIN ATOM
M  V30 1 C 37.945810 26.021355 54.364795 0
M  V30 2 C 39.577531 30.398915 52.855607 0
M  V30 3 C 38.761654 30.221931 55.246520 0
M  V30 4 C 39.192217 27.647768 52.340918 0
M  V30 5 C 38.920357 32.424813 56.761697 0
M  V30 6 N 37.867399 31.849899 57.632123 0 CHG=1
M  V30 7 O 39.067401 30.315248 59.572791 0
M  V30 8 C 37.962347 25.597229 57.527983 0
M  V30 9 C 38.665201 27.102317 54.741320 0
M  V30 10 C 37.831450 32.294589 59.043782 0
M  V30 11 C 39.127046 31.720049 55.387358 0
M  V30 12 O 38.161207 29.659388 56.153438 0
M  V30 13 O 40.917198 30.523794 61.453010 0
M  V30 14 C 38.853784 31.498195 59.853501 0
M  V30 15 C 40.488827 31.668203 61.617392 0
M  V30 16 C 38.986480 28.133840 53.661200 0
M  V30 17 C 39.817948 29.869051 51.571500 0
M  V30 18 C 38.939358 26.648328 57.273125 0
M  V30 19 C 39.239531 27.282764 56.102337 0
M  V30 20 N 39.489594 32.179377 60.847862 0
M  V30 21 C 37.363195 24.823066 56.627882 0
M  V30 22 C 40.280011 30.779756 50.454971 0
M  V30 23 C 37.601361 24.823447 55.173727 0
M  V30 24 S 41.227430 32.646108 62.880089 0 CHG=-1
M  V30 25 C 39.606075 28.507686 51.315597 0
M  V30 26 C 39.136817 29.562633 53.917770 0
M  V30 27 H 37.591844 25.977693 53.349543 0
M  V30 28 H 39.706084 31.457931 53.013825 0
M  V30 29 H 39.079534 26.597891 52.124849 0
M  V30 30 H 39.867311 32.424139 57.288443 0
M  V30 31 H 38.681164 33.475756 56.594791 0
M  V30 32 H 36.938359 32.020312 57.224773 0
M  V30 33 H 37.709975 25.418478 58.560723 0
M  V30 34 H 37.997388 33.370087 59.115491 0
M  V30 35 H 36.841213 32.088318 59.449293 0
M  V30 36 H 40.167140 31.855954 55.090444 0
M  V30 37 H 38.522253 32.255551 54.654972 0
M  V30 38 H 39.481808 26.997384 58.141260 0
M  V30 39 H 39.995126 28.049211 56.186653 0
M  V30 40 H 39.216636 33.134230 61.016179 0
M  V30 41 H 36.668488 24.076707 56.979668 0
M  V30 42 H 40.397713 30.229499 49.521183 0
M  V30 43 H 39.558666 31.578761 50.284471 0
M  V30 44 H 41.241775 31.220798 50.712047 0
M  V30 45 H 36.668357 24.458950 54.742111 0
M  V30 46 H 38.336418 24.051396 54.952279 0
M  V30 47 H 39.779612 28.112810 50.324819 0
M  V30 48 H 37.988804 30.841879 57.641180 0
M  V30 END ATOM
M  V30 BEGIN BOND
M  V30 1 1 6 5
M  V30 2 2 9 1
M  V30 3 1 10 6
M  V30 4 1 11 3
M  V30 5 1 11 5
M  V30 6 2 12 3
M  V30 7 2 14 7
M  V30 8 1 14 10
M  V30 9 2 15 13
M  V30 10 1 16 4
M  V30 11 1 16 9
M  V30 12 2 17 2
M  V30 13 1 18 8
M  V30 14 1 19 9
M  V30 15 2 19 18
M  V30 16 1 20 14
M  V30 17 1 20 15
M  V30 18 2 21 8
M  V30 19 1 22 17
M  V30 20 1 23 1
M  V30 21 1 23 21
M  V30 22 1 24 15
M  V30 23 2 25 4
M  V30 24 1 25 17
M  V30 25 1 26 2
M  V30 26 1 26 3
M  V30 27 2 26 16
M  V30 28 1 27 1
M  V30 29 1 28 2
M  V30 30 1 29 4
M  V30 31 1 30 5
M  V30 32 1 31 5
M  V30 33 1 32 6
M  V30 34 1 33 8
M  V30 35 1 34 10
M  V30 36 1 35 10
M  V30 37 1 36 11
M  V30 38 1 37 11
M  V30 39 1 38 18
M  V30 40 1 39 19
M  V30 41 1 40 20
M  V30 42 1 41 21
M  V30 43 1 42 22
M  V30 44 1 43 22
M  V30 45 1 44 22
M  V30 46 1 45 23
M  V30 47 1 46 23
M  V30 48 1 47 25
M  V30 49 1 48 6
M  V30 END BOND
M  V30 END CTAB
M  END
>  <i_epik_Tot_Q>  (1) 
0

>  <i_epik_Tot_abs_Q>  (1) 
2

>  <i_i_glide_confnum>  (1) 
266

>  <i_i_glide_lignum>  (1) 
60

>  <i_i_glide_posenum>  (1) 
316

>  <i_i_glide_rotatable_bonds>  (1) 
9

>  <i_lp_mmshare_version>  (1) 
72125

>  <i_m_source_file_index>  (1) 
22

>  <i_f3d_flags>  (1) 
0

>  <num_sample>  (1) 
50

>  <b_lp_Chiralities_Consistent>  (1) 
1

>  <r_epik_Charging_Adjusted_Penalty>  (1) 
1.3461270640264162

>  <r_epik_Ionization_Penalty>  (1) 
0.67306461740481383

>  <r_epik_Ionization_Penalty_Charging>  (1) 
0.67306354236559862

>  <r_epik_Ionization_Penalty_Neutral>  (1) 
1.0750392152197169e-06

>  <r_epik_State_Penalty>  (1) 
0.67306352166081751

>  <r_glide_ring_energy>  (1) 
0

>  <r_i_docking_score>  (1) 
-8.3756540854879198

>  <r_i_glide_ecoul>  (1) 
-12.005018921579151

>  <r_i_glide_eff_state_penalty>  (1) 
0.67306352166081751

>  <r_i_glide_einternal>  (1) 
5.9161547113778497

>  <r_i_glide_emodel>  (1) 
-84.143220727499966

>  <r_i_glide_emodel_strain>  (1) 
3.954984681449119

>  <r_i_glide_energy>  (1) 
-51.520839723579471

>  <r_i_glide_erotb>  (1) 
1.1245087388706405

>  <r_i_glide_esite>  (1) 
-0.10000000000000001

>  <r_i_glide_evdw>  (1) 
-39.51582080200032

>  <r_i_glide_gscore>  (1) 
-9.0487176071487365

>  <r_i_glide_gscore_strain>  (1) 
0

>  <r_i_glide_hbond>  (1) 
-0.52000000000000002

>  <r_i_glide_ligand_efficiency>  (1) 
-0.32214054174953538

>  <r_i_glide_ligand_efficiency_ln>  (1) 
-1.9669948792141887

>  <r_i_glide_ligand_efficiency_sa>  (1) 
-0.95434008840761919

>  <r_i_glide_lipo>  (1) 
-4.042113605568443

>  <r_i_glide_metal>  (1) 
-0

>  <r_i_glide_rewards>  (1) 
-1.7345688621140434

>  <r_lp_Energy>  (1) 
41.866791999999997

>  <r_lp_tautomer_probability>  (1) 
0.99990000499974985

>  <s_epik_cmdline>  (1) 
J2VwaWtfcHl0aG9uJywgJy1waHQnLCAnMS4wJywgJy1waCcsICc3LjQnLCAnLXRuJywgJzgnLCAnLW1hJywgJzUwMCcsICctaW1hZScsICc8aW5maWxlLm1hZT4nLCAnLW9tYWUnLCAnPG91dGZpbGUubWFlPic=

>  <s_epik_input>  (1) 
W0NIXTE9W0NIXVtDSF09W0NIXVtDSDJdW0NIXT1DMWMyW2NIXVtjSF1jKFtDSDNdKVtjSF1jMkMoPU8pW0NIMl1bQ0gyXVtOSF1bQ0gyXUMoPU8pW05IXUMoPU8pW1NIXQ==

>  <s_glide_docking_method>  (1) 
confgen

>  <s_i_glide_gridfile>  (1) 
gpcr_5ht2c_6bqh_protein_autoprepared_prepared

>  <s_lp_Force_Field>  (1) 
S-OPLS

>  <s_lp_Variant>  (1) 
DiffSBDD_21_num_sample_50-2

>  <s_m_source_file>  (1) 
generated__ligand_DiffSBDD_2026-05-06_prepared.sdf

>  <GenAI_Model>  (1) 
DiffSBDD

>  <Protein>  (1) 
GPCR_5HT2C

$$$$
DiffSBDD_49_num_sample_50
     RDKit          3D

  0  0  0  0  0  0  0  0  0  0999 V3000
M  V30 BEGIN CTAB
M  V30 COUNTS 82 89 0 0 1
M  V30 BEGIN ATOM
M  V30 1 C 42.482468 32.434389 62.380379 0
M  V30 2 C 39.434721 35.792977 62.624611 0
M  V30 3 C 40.876921 28.943270 64.051704 0 CFG=1
M  V30 4 O 39.130451 28.289670 54.125175 0
M  V30 5 C 38.246209 33.565146 60.777210 0
M  V30 6 C 37.374979 29.723932 59.371367 0
M  V30 7 C 38.813948 30.302091 61.069500 0 CFG=2
M  V30 8 C 38.777118 35.985604 61.309855 0 CFG=2
M  V30 9 C 38.256979 26.508678 55.400799 0
M  V30 10 O 37.067163 27.551682 53.576398 0
M  V30 11 C 40.143909 33.401748 62.473800 0
M  V30 12 C 37.050241 37.584656 62.403377 0
M  V30 13 C 42.141536 29.272777 63.324066 0
M  V30 14 C 38.074701 27.490766 54.280513 0
M  V30 15 C 41.173278 32.542456 63.166443 0 CFG=2
M  V30 16 O 39.468564 28.021460 61.117488 0
M  V30 17 C 39.734829 31.501829 60.902975 0
M  V30 18 O 41.067160 28.050944 65.128349 0
M  V30 19 C 37.546960 37.599065 59.909824 0
M  V30 20 O 40.668122 34.773808 64.268328 0
M  V30 21 C 41.495851 30.309662 64.230164 0 CFG=2
M  V30 22 C 37.420793 24.627056 56.689872 0
M  V30 23 C 40.027384 34.687865 63.087228 0
M  V30 24 C 39.555575 26.588349 56.201620 0 CFG=1
M  V30 25 C 38.444914 27.550939 58.428831 0
M  V30 26 O 39.023616 29.214840 53.003204 0
M  V30 27 C 38.644696 28.984916 58.990598 0 CFG=2
M  V30 28 O 39.067339 38.420881 61.453528 0
M  V30 29 O 36.791347 35.259783 60.085234 0
M  V30 30 C 39.665213 25.513475 57.296203 0 CFG=2
M  V30 31 C 38.113321 37.385469 61.289368 0 CFG=2
M  V30 32 C 39.465623 29.137069 60.276747 0 CFG=1
M  V30 33 O 37.542019 30.472946 60.457575 0
M  V30 34 C 36.464302 36.591509 59.695610 0
M  V30 35 C 37.948992 34.864428 60.747699 0
M  V30 36 O 36.331418 29.621381 58.731576 0
M  V30 37 C 40.284395 27.873392 56.593054 0
M  V30 38 C 39.389517 32.888913 61.425673 0
M  V30 39 C 38.510117 24.580236 57.453120 0
M  V30 40 C 41.306356 33.482803 64.450580 0
M  V30 41 C 42.125876 30.716867 65.553366 0
M  V30 42 C 37.287717 25.602482 55.646482 0
M  V30 43 O 40.640100 31.270801 63.583939 0
M  V30 44 C 39.624455 26.998220 57.638748 0 CFG=1
M  V30 45 H 43.067424 33.280503 62.653544 0
M  V30 46 H 43.067398 31.566666 62.653590 0
M  V30 47 H 42.374595 32.451903 61.298340 0
M  V30 48 H 39.486297 36.676886 63.246589 0
M  V30 49 H 39.984564 28.804853 63.453391 0
M  V30 50 H 37.554853 32.922174 60.254741 0
M  V30 51 H 38.690026 30.062032 62.124946 0
M  V30 52 H 39.617302 36.021634 60.615624 0
M  V30 53 H 36.327794 36.768735 62.423424 0
M  V30 54 H 37.487232 37.621174 63.401414 0
M  V30 55 H 36.494940 38.512939 62.262758 0
M  V30 56 H 42.027589 29.366087 62.253178 0
M  V30 57 H 43.063278 28.798872 63.658487 0
M  V30 58 H 39.984809 27.339683 60.713323 0
M  V30 59 H 40.734300 31.172334 61.141739 0
M  V30 60 H 39.790497 31.695235 59.853237 0
M  V30 61 H 40.247107 28.013679 65.600429 0
M  V30 62 H 38.267097 37.481368 59.108320 0
M  V30 63 H 37.168118 38.606933 59.853712 0
M  V30 64 H 36.629118 23.914710 56.855624 0
M  V30 65 H 37.555022 27.520837 57.801107 0
M  V30 66 H 38.267534 26.851225 59.242171 0
M  V30 67 H 38.607900 29.953648 53.421751 0
M  V30 68 H 39.087537 29.618266 58.224469 0
M  V30 69 H 39.880473 38.154266 61.053494 0
M  V30 70 H 40.620173 25.008875 57.391186 0
M  V30 71 H 40.508548 29.318416 60.017318 0
M  V30 72 H 36.161886 36.580596 58.653486 0
M  V30 73 H 35.590169 36.937299 60.230701 0
M  V30 74 H 41.372623 27.860395 56.571230 0
M  V30 75 H 39.830474 28.839848 56.391781 0
M  V30 76 H 38.577360 23.835091 58.223282 0
M  V30 77 H 42.341284 33.636669 64.757611 0
M  V30 78 H 40.787100 33.034679 65.297403 0
M  V30 79 H 42.673817 29.881671 65.989450 0
M  V30 80 H 42.843057 31.523229 65.415598 0
M  V30 81 H 41.356360 31.021358 66.261186 0
M  V30 82 H 36.397743 25.599202 55.053518 0
M  V30 END ATOM
M  V30 BEGIN BOND
M  V30 1 1 8 2
M  V30 2 1 13 3
M  V30 3 1 14 4
M  V30 4 1 14 9
M  V30 5 2 14 10
M  V30 6 1 15 1
M  V30 7 1 15 11
M  V30 8 1 17 7
M  V30 9 1 18 3
M  V30 10 1 21 3
M  V30 11 1 21 13
M  V30 12 2 23 2
M  V30 13 1 23 11
M  V30 14 1 23 20
M  V30 15 1 24 9
M  V30 16 1 26 4
M  V30 17 1 27 6
M  V30 18 1 27 25
M  V30 19 1 30 24
M  V30 20 1 31 8
M  V30 21 1 31 12
M  V30 22 1 31 19
M  V30 23 1 31 28 CFG=1
M  V30 24 1 32 7
M  V30 25 1 32 16
M  V30 26 1 32 27
M  V30 27 1 33 6
M  V30 28 1 33 7
M  V30 29 1 34 19
M  V30 30 1 34 29
M  V30 31 2 35 5
M  V30 32 1 35 8
M  V30 33 1 35 29
M  V30 34 2 36 6
M  V30 35 1 24 37 CFG=1
M  V30 36 1 38 5
M  V30 37 2 38 11
M  V30 38 1 38 17
M  V30 39 2 39 22
M  V30 40 1 39 30
M  V30 41 1 40 15
M  V30 42 1 40 20
M  V30 43 1 41 21
M  V30 44 2 42 9
M  V30 45 1 42 22
M  V30 46 1 15 43 CFG=1
M  V30 47 1 21 43 CFG=3
M  V30 48 1 44 24
M  V30 49 1 44 25 CFG=1
M  V30 50 1 44 30
M  V30 51 1 44 37
M  V30 52 1 45 1
M  V30 53 1 46 1
M  V30 54 1 47 1
M  V30 55 1 48 2
M  V30 56 1 3 49 CFG=3
M  V30 57 1 50 5
M  V30 58 1 7 51 CFG=1
M  V30 59 1 8 52 CFG=3
M  V30 60 1 53 12
M  V30 61 1 54 12
M  V30 62 1 55 12
M  V30 63 1 56 13
M  V30 64 1 57 13
M  V30 65 1 58 16
M  V30 66 1 59 17
M  V30 67 1 60 17
M  V30 68 1 61 18
M  V30 69 1 62 19
M  V30 70 1 63 19
M  V30 71 1 64 22
M  V30 72 1 65 25
M  V30 73 1 66 25
M  V30 74 1 67 26
M  V30 75 1 27 68 CFG=3
M  V30 76 1 69 28
M  V30 77 1 30 70 CFG=3
M  V30 78 1 32 71 CFG=3
M  V30 79 1 72 34
M  V30 80 1 73 34
M  V30 81 1 74 37
M  V30 82 1 75 37
M  V30 83 1 76 39
M  V30 84 1 77 40
M  V30 85 1 78 40
M  V30 86 1 79 41
M  V30 87 1 80 41
M  V30 88 1 81 41
M  V30 89 1 82 42
M  V30 END BOND
M  V30 END CTAB
M  END
>  <i_epik_Tot_Q>  (1) 
0

>  <i_epik_Tot_abs_Q>  (1) 
0

>  <i_i_glide_confnum>  (1) 
461

>  <i_i_glide_lignum>  (1) 
110

>  <i_i_glide_posenum>  (1) 
36

>  <i_i_glide_rotatable_bonds>  (1) 
12

>  <i_lp_mmshare_version>  (1) 
72125

>  <i_m_source_file_index>  (1) 
50

>  <i_f3d_flags>  (1) 
2

>  <num_sample>  (1) 
50

>  <b_lp_Chiralities_Consistent>  (1) 
0

>  <r_epik_Charging_Adjusted_Penalty>  (1) 
0

>  <r_epik_Ionization_Penalty>  (1) 
1.8283090470904203e-05

>  <r_epik_Ionization_Penalty_Charging>  (1) 
0

>  <r_epik_Ionization_Penalty_Neutral>  (1) 
1.8283090470904203e-05

>  <r_epik_State_Penalty>  (1) 
-0

>  <r_glide_ring_energy>  (1) 
0.96358372370287459

>  <r_i_docking_score>  (1) 
-8.3700609272291562

>  <r_i_glide_ecoul>  (1) 
-0.29419312341599191

>  <r_i_glide_eff_state_penalty>  (1) 
-0

>  <r_i_glide_einternal>  (1) 
22.434838058691803

>  <r_i_glide_emodel>  (1) 
-43.503579184678969

>  <r_i_glide_emodel_strain>  (1) 
3.3626563227147983

>  <r_i_glide_energy>  (1) 
-39.837709401821414

>  <r_i_glide_erotb>  (1) 
0.32668660388354631

>  <r_i_glide_esite>  (1) 
-0.01906626441276945

>  <r_i_glide_evdw>  (1) 
-39.54351627840542

>  <r_i_glide_gscore>  (1) 
-8.3700609272291562

>  <r_i_glide_gscore_strain>  (1) 
0

>  <r_i_glide_hbond>  (1) 
-0.0042149877821942286

>  <r_i_glide_ligand_efficiency>  (1) 
-0.19022865743702627

>  <r_i_glide_ligand_efficiency_ln>  (1) 
-1.7495253256451833

>  <r_i_glide_ligand_efficiency_sa>  (1) 
-0.6715734241141178

>  <r_i_glide_lipo>  (1) 
-5.5540409759082774

>  <r_i_glide_metal>  (1) 
-0

>  <r_i_glide_rewards>  (1) 
-1.0981205205767901

>  <r_lp_Energy>  (1) 
38.622012999999995

>  <r_lp_tautomer_probability>  (1) 
1

>  <s_epik_Chemistry_Notes>  (1) 
This compound has an ester and may undergo hydrolysis at high or low pH.

>  <s_epik_cmdline>  (1) 
J2VwaWtfcHl0aG9uJywgJy1waHQnLCAnMS4wJywgJy1waCcsICc3LjQnLCAnLXRuJywgJzgnLCAnLW1hJywgJzUwMCcsICctaW1hZScsICc8aW5maWxlLm1hZT4nLCAnLW9tYWUnLCAnPG91dGZpbGUubWFlPic=

>  <s_epik_input>  (1) 
W0NIMl0xW0NAQEhdKFtPSF0pW0NAXTEoW0NIM10pT1tDQF0yKFtDSDNdKVtDSDJdT0MoPVtDSF0zKUMyPUMoW0NIXT1DKFtDQEhdMzQpT1tDSDJdW0NIMl1bQ0BdNChbQ0gzXSlbT0hdKVtDSDJdW0NAQEhdKE81KVtDQEBIXShbT0hdKVtDQEhdKEM1PU8pW0NIMl1bQ0BdNihbQ0gyXTcpW0NAQEhdKEM2NzgpW0NIXT1bQ0hdW0NIXT1DOEMoPU8pT1tPSF0=

>  <s_glide_docking_method>  (1) 
confgen

>  <s_i_glide_gridfile>  (1) 
gpcr_5ht2c_6bqh_protein_autoprepared_prepared

>  <s_lp_Force_Field>  (1) 
S-OPLS

>  <s_lp_Variant>  (1) 
DiffSBDD_49_num_sample_50-1

>  <s_m_source_file>  (1) 
generated__ligand_DiffSBDD_2026-05-06_prepared.sdf

>  <GenAI_Model>  (1) 
DiffSBDD

>  <Protein>  (1) 
GPCR_5HT2C

$$$$
DiffSBDD_49_num_sample_50
     RDKit          3D

  0  0  0  0  0  0  0  0  0  0999 V3000
M  V30 BEGIN CTAB
M  V30 COUNTS 82 89 0 0 1
M  V30 BEGIN ATOM
M  V30 1 C 42.278885 31.126377 62.654558 0
M  V30 2 C 40.002887 34.808603 63.107856 0
M  V30 3 C 40.963446 27.740877 64.266440 0 CFG=1
M  V30 4 O 39.477294 29.610806 53.586723 0
M  V30 5 C 38.153347 32.801018 61.573737 0
M  V30 6 C 40.018487 28.481840 59.320309 0
M  V30 7 C 39.394011 30.474432 60.175841 0 CFG=2
M  V30 8 C 39.222398 35.077001 61.885507 0 CFG=2
M  V30 9 C 38.493218 27.559318 54.181220 0
M  V30 10 O 37.831994 28.821291 52.251865 0
M  V30 11 C 40.189104 32.322342 63.050579 0
M  V30 12 C 37.759046 36.887560 63.058133 0
M  V30 13 C 42.282009 28.229784 63.753921 0
M  V30 14 C 38.549329 28.713149 53.239729 0
M  V30 15 C 41.153873 31.327658 63.647961 0 CFG=2
M  V30 16 O 38.266409 30.870682 58.096043 0
M  V30 17 C 39.125478 30.472026 61.697713 0
M  V30 18 O 41.073463 26.708969 65.226047 0
M  V30 19 C 38.264492 36.825224 60.543034 0
M  V30 20 O 41.216552 33.635443 64.662851 0
M  V30 21 C 41.472567 29.101656 64.714091 0 CFG=2
M  V30 22 C 37.467285 25.467799 54.885711 0
M  V30 23 C 40.417555 33.629183 63.575084 0
M  V30 24 C 39.566282 27.484852 55.247125 0 CFG=1
M  V30 25 C 38.147725 27.978443 57.537159 0
M  V30 26 O 39.866096 30.552498 52.549980 0
M  V30 27 C 38.535670 28.558724 58.941866 0 CFG=2
M  V30 28 O 39.867263 37.435498 62.104040 0
M  V30 29 O 37.027150 34.724508 60.885531 0
M  V30 30 C 39.516556 26.193046 56.088571 0 CFG=2
M  V30 31 C 38.771312 36.558187 61.931557 0 CFG=2
M  V30 32 C 38.233093 30.035829 59.243106 0 CFG=1
M  V30 33 O 40.426456 29.551703 59.942563 0
M  V30 34 C 37.013151 36.042408 60.344475 0
M  V30 35 C 38.136921 34.125829 61.466960 0
M  V30 36 O 40.719351 27.518020 59.053121 0
M  V30 37 C 40.152580 28.663258 56.033576 0
M  V30 38 C 39.195758 31.927378 62.143488 0
M  V30 39 C 38.377233 25.266826 55.846698 0
M  V30 40 C 41.624123 32.253688 64.847981 0
M  V30 41 C 41.912715 29.344819 66.149750 0
M  V30 42 C 37.537036 26.624148 54.021003 0
M  V30 43 O 40.593077 30.115747 64.186722 0
M  V30 44 C 39.361575 27.569665 56.705852 0 CFG=1
M  V30 45 H 42.639075 32.071397 62.244660 0
M  V30 46 H 43.139620 30.615978 63.082916 0
M  V30 47 H 41.866589 30.533215 61.853439 0
M  V30 48 H 40.311464 35.686068 63.655939 0
M  V30 49 H 40.176370 27.621466 63.529423 0
M  V30 50 H 37.290484 32.294723 61.166635 0
M  V30 51 H 39.772836 31.450262 59.870618 0
M  V30 52 H 39.976031 34.974927 61.102248 0
M  V30 53 H 36.912141 36.201753 63.065263 0
M  V30 54 H 38.215246 36.835150 64.047556 0
M  V30 55 H 37.341539 37.885283 62.936403 0
M  V30 56 H 42.295929 28.436423 62.687460 0
M  V30 57 H 43.187086 27.763350 64.139058 0
M  V30 58 H 37.392812 30.937201 57.726094 0
M  V30 59 H 38.134475 30.081829 61.921879 0
M  V30 60 H 39.797230 29.763476 62.159455 0
M  V30 61 H 40.519710 26.936222 65.957994 0
M  V30 62 H 38.989168 36.420728 59.853462 0
M  V30 63 H 38.104606 37.883633 60.329997 0
M  V30 64 H 36.666852 24.755124 54.754615 0
M  V30 65 H 37.548039 28.685010 56.964094 0
M  V30 66 H 37.511879 27.105975 57.686727 0
M  V30 67 H 39.275178 31.269577 52.725837 0
M  V30 68 H 37.993393 27.998648 59.698593 0
M  V30 69 H 39.546906 38.322403 62.093609 0
M  V30 70 H 40.458108 25.672671 56.249761 0
M  V30 71 H 37.261261 30.158980 59.723816 0
M  V30 72 H 36.730225 36.009802 59.292867 0
M  V30 73 H 36.267387 36.619623 60.858863 0
M  V30 74 H 41.223712 28.664290 56.214720 0
M  V30 75 H 39.679623 29.643067 56.026508 0
M  V30 76 H 38.303860 24.398531 56.485039 0
M  V30 77 H 42.701701 32.201088 65.002345 0
M  V30 78 H 41.151124 31.933943 65.776163 0
M  V30 79 H 42.408921 28.466006 66.562362 0
M  V30 80 H 42.629515 30.161615 66.200692 0
M  V30 81 H 41.050022 29.581465 66.773295 0
M  V30 82 H 36.809894 26.734643 53.228903 0
M  V30 END ATOM
M  V30 BEGIN BOND
M  V30 1 1 8 2
M  V30 2 1 13 3
M  V30 3 1 14 4
M  V30 4 1 14 9
M  V30 5 2 14 10
M  V30 6 1 15 1
M  V30 7 1 15 11
M  V30 8 1 17 7
M  V30 9 1 18 3
M  V30 10 1 21 3
M  V30 11 1 21 13
M  V30 12 2 23 2
M  V30 13 1 23 11
M  V30 14 1 23 20
M  V30 15 1 24 9
M  V30 16 1 26 4
M  V30 17 1 27 6
M  V30 18 1 27 25
M  V30 19 1 30 24
M  V30 20 1 31 8
M  V30 21 1 31 12
M  V30 22 1 31 19
M  V30 23 1 31 28 CFG=1
M  V30 24 1 32 7
M  V30 25 1 32 16
M  V30 26 1 32 27
M  V30 27 1 33 6
M  V30 28 1 33 7
M  V30 29 1 34 19
M  V30 30 1 34 29
M  V30 31 2 35 5
M  V30 32 1 35 8
M  V30 33 1 35 29
M  V30 34 2 36 6
M  V30 35 1 24 37 CFG=1
M  V30 36 1 38 5
M  V30 37 2 38 11
M  V30 38 1 38 17
M  V30 39 2 39 22
M  V30 40 1 39 30
M  V30 41 1 40 15
M  V30 42 1 40 20
M  V30 43 1 41 21
M  V30 44 2 42 9
M  V30 45 1 42 22
M  V30 46 1 15 43 CFG=1
M  V30 47 1 21 43 CFG=3
M  V30 48 1 44 24
M  V30 49 1 44 25 CFG=3
M  V30 50 1 44 30
M  V30 51 1 44 37
M  V30 52 1 45 1
M  V30 53 1 46 1
M  V30 54 1 47 1
M  V30 55 1 48 2
M  V30 56 1 3 49 CFG=3
M  V30 57 1 50 5
M  V30 58 1 7 51 CFG=3
M  V30 59 1 8 52 CFG=3
M  V30 60 1 53 12
M  V30 61 1 54 12
M  V30 62 1 55 12
M  V30 63 1 56 13
M  V30 64 1 57 13
M  V30 65 1 58 16
M  V30 66 1 59 17
M  V30 67 1 60 17
M  V30 68 1 61 18
M  V30 69 1 62 19
M  V30 70 1 63 19
M  V30 71 1 64 22
M  V30 72 1 65 25
M  V30 73 1 66 25
M  V30 74 1 67 26
M  V30 75 1 27 68 CFG=1
M  V30 76 1 69 28
M  V30 77 1 30 70 CFG=1
M  V30 78 1 32 71 CFG=1
M  V30 79 1 72 34
M  V30 80 1 73 34
M  V30 81 1 74 37
M  V30 82 1 75 37
M  V30 83 1 76 39
M  V30 84 1 77 40
M  V30 85 1 78 40
M  V30 86 1 79 41
M  V30 87 1 80 41
M  V30 88 1 81 41
M  V30 89 1 82 42
M  V30 END BOND
M  V30 END CTAB
M  END
>  <i_epik_Tot_Q>  (1) 
0

>  <i_epik_Tot_abs_Q>  (1) 
0

>  <i_i_glide_confnum>  (1) 
582

>  <i_i_glide_lignum>  (1) 
110

>  <i_i_glide_posenum>  (1) 
221

>  <i_i_glide_rotatable_bonds>  (1) 
12

>  <i_lp_mmshare_version>  (1) 
72125

>  <i_m_source_file_index>  (1) 
50

>  <i_f3d_flags>  (1) 
2

>  <num_sample>  (1) 
50

>  <b_lp_Chiralities_Consistent>  (1) 
0

>  <r_epik_Charging_Adjusted_Penalty>  (1) 
0

>  <r_epik_Ionization_Penalty>  (1) 
1.8283090470904203e-05

>  <r_epik_Ionization_Penalty_Charging>  (1) 
0

>  <r_epik_Ionization_Penalty_Neutral>  (1) 
1.8283090470904203e-05

>  <r_epik_State_Penalty>  (1) 
-0

>  <r_glide_ring_energy>  (1) 
0.96358372370287459

>  <r_i_docking_score>  (1) 
-8.3391750390477135

>  <r_i_glide_ecoul>  (1) 
-0.3654015018159984

>  <r_i_glide_eff_state_penalty>  (1) 
-0

>  <r_i_glide_einternal>  (1) 
19.409928824456564

>  <r_i_glide_emodel>  (1) 
-50.913129779011712

>  <r_i_glide_emodel_strain>  (1) 
3.1799986644059572

>  <r_i_glide_energy>  (1) 
-45.619476050366075

>  <r_i_glide_erotb>  (1) 
0.32668660388354631

>  <r_i_glide_esite>  (1) 
0

>  <r_i_glide_evdw>  (1) 
-45.254074548550079

>  <r_i_glide_gscore>  (1) 
-8.3391750390477135

>  <r_i_glide_gscore_strain>  (1) 
0

>  <r_i_glide_hbond>  (1) 
-0.01820307703311692

>  <r_i_glide_ligand_efficiency>  (1) 
-0.18952670543290259

>  <r_i_glide_ligand_efficiency_ln>  (1) 
-1.7430695012433928

>  <r_i_glide_ligand_efficiency_sa>  (1) 
-0.66909528902488091

>  <r_i_glide_lipo>  (1) 
-4.9255936771976803

>  <r_i_glide_metal>  (1) 
-0

>  <r_i_glide_rewards>  (1) 
-1.404550936000559

>  <r_lp_Energy>  (1) 
38.622012999999995

>  <r_lp_tautomer_probability>  (1) 
1

>  <s_epik_Chemistry_Notes>  (1) 
This compound has an ester and may undergo hydrolysis at high or low pH.

>  <s_epik_cmdline>  (1) 
J2VwaWtfcHl0aG9uJywgJy1waHQnLCAnMS4wJywgJy1waCcsICc3LjQnLCAnLXRuJywgJzgnLCAnLW1hJywgJzUwMCcsICctaW1hZScsICc8aW5maWxlLm1hZT4nLCAnLW9tYWUnLCAnPG91dGZpbGUubWFlPic=

>  <s_epik_input>  (1) 
W0NIMl0xW0NAQEhdKFtPSF0pW0NAXTEoW0NIM10pT1tDQF0yKFtDSDNdKVtDSDJdT0MoPVtDSF0zKUMyPUMoW0NIXT1DKFtDQEhdMzQpT1tDSDJdW0NIMl1bQ0BdNChbQ0gzXSlbT0hdKVtDSDJdW0NAQEhdKE81KVtDQEBIXShbT0hdKVtDQEhdKEM1PU8pW0NIMl1bQ0BdNihbQ0gyXTcpW0NAQEhdKEM2NzgpW0NIXT1bQ0hdW0NIXT1DOEMoPU8pT1tPSF0=

>  <s_glide_docking_method>  (1) 
confgen

>  <s_i_glide_gridfile>  (1) 
gpcr_5ht2c_6bqh_protein_autoprepared_prepared

>  <s_lp_Force_Field>  (1) 
S-OPLS

>  <s_lp_Variant>  (1) 
DiffSBDD_49_num_sample_50-1

>  <s_m_source_file>  (1) 
generated__ligand_DiffSBDD_2026-05-06_prepared.sdf

>  <GenAI_Model>  (1) 
DiffSBDD

>  <Protein>  (1) 
GPCR_5HT2C

$$$$
DiffSBDD_21_num_sample_50
     RDKit          3D

  0  0  0  0  0  0  0  0  0  0999 V3000
M  V30 BEGIN CTAB
M  V30 COUNTS 48 49 0 0 1
M  V30 BEGIN ATOM
M  V30 1 C 37.829126 26.023699 54.214560 0
M  V30 2 C 39.860189 30.111649 52.372394 0
M  V30 3 C 39.515822 30.027455 54.830400 0
M  V30 4 C 38.877250 27.503506 51.946297 0
M  V30 5 C 38.320099 30.691564 56.975911 0
M  V30 6 N 37.867401 31.988232 56.431522 0 CHG=1
M  V30 7 O 39.448584 33.521602 59.181695 0
M  V30 8 C 38.348143 25.675602 57.315809 0
M  V30 9 C 38.778474 26.968837 54.402003 0
M  V30 10 C 38.495325 33.195681 57.011167 0
M  V30 11 C 38.486358 29.608435 55.902688 0
M  V30 12 O 40.267678 30.968825 55.054263 0
M  V30 13 O 37.920667 33.089129 61.255236 0
M  V30 14 C 38.439617 33.221475 58.540706 0
M  V30 15 C 37.031011 32.847987 60.439208 0
M  V30 16 C 39.019231 27.970365 53.276965 0
M  V30 17 C 39.755948 29.599780 51.072321 0
M  V30 18 C 39.487765 26.447737 56.828072 0
M  V30 19 C 39.672993 27.000677 55.589492 0
M  V30 20 N 37.247827 32.902650 59.104217 0
M  V30 21 C 37.467769 25.014099 56.568707 0
M  V30 22 C 40.183948 30.445978 49.895230 0
M  V30 23 C 37.521139 24.869807 55.100917 0
M  V30 24 S 35.467414 32.421828 61.052557 0 CHG=-1
M  V30 25 C 39.243581 28.312178 50.859844 0
M  V30 26 C 39.467402 29.337953 53.490785 0
M  V30 27 H 37.245557 26.055062 53.307260 0
M  V30 28 H 40.220304 31.121695 52.517556 0
M  V30 29 H 38.544930 26.500348 51.757682 0
M  V30 30 H 37.599476 30.364099 57.726449 0
M  V30 31 H 39.272168 30.805377 57.497871 0
M  V30 32 H 38.037817 32.013086 55.438065 0
M  V30 33 H 38.212969 25.627663 58.386747 0
M  V30 34 H 39.537252 33.221330 56.691210 0
M  V30 35 H 38.006576 34.084464 56.612261 0
M  V30 36 H 37.531389 29.344315 55.447221 0
M  V30 37 H 38.805234 28.805738 56.537399 0
M  V30 38 H 40.263833 26.649326 57.552328 0
M  V30 39 H 40.581861 27.572489 55.473305 0
M  V30 40 H 36.469994 32.683658 58.493097 0
M  V30 41 H 36.671706 24.475357 57.062651 0
M  V30 42 H 40.425682 29.802206 49.053500 0
M  V30 43 H 39.396075 31.139453 49.601200 0
M  V30 44 H 41.077394 31.023020 50.138699 0
M  V30 45 H 36.530417 24.527090 54.801587 0
M  V30 46 H 38.193655 24.048178 54.854601 0
M  V30 47 H 39.154243 27.929073 49.854565 0
M  V30 48 H 36.849281 32.021523 56.577272 0
M  V30 END ATOM
M  V30 BEGIN BOND
M  V30 1 1 6 5
M  V30 2 2 9 1
M  V30 3 1 10 6
M  V30 4 1 11 3
M  V30 5 1 11 5
M  V30 6 2 12 3
M  V30 7 2 14 7
M  V30 8 1 14 10
M  V30 9 2 15 13
M  V30 10 1 16 4
M  V30 11 1 16 9
M  V30 12 2 17 2
M  V30 13 1 18 8
M  V30 14 1 19 9
M  V30 15 2 19 18
M  V30 16 1 20 14
M  V30 17 1 20 15
M  V30 18 2 21 8
M  V30 19 1 22 17
M  V30 20 1 23 1
M  V30 21 1 23 21
M  V30 22 1 24 15
M  V30 23 2 25 4
M  V30 24 1 25 17
M  V30 25 1 26 2
M  V30 26 1 26 3
M  V30 27 2 26 16
M  V30 28 1 27 1
M  V30 29 1 28 2
M  V30 30 1 29 4
M  V30 31 1 30 5
M  V30 32 1 31 5
M  V30 33 1 32 6
M  V30 34 1 33 8
M  V30 35 1 34 10
M  V30 36 1 35 10
M  V30 37 1 36 11
M  V30 38 1 37 11
M  V30 39 1 38 18
M  V30 40 1 39 19
M  V30 41 1 40 20
M  V30 42 1 41 21
M  V30 43 1 42 22
M  V30 44 1 43 22
M  V30 45 1 44 22
M  V30 46 1 45 23
M  V30 47 1 46 23
M  V30 48 1 47 25
M  V30 49 1 48 6
M  V30 END BOND
M  V30 END CTAB
M  END
>  <i_epik_Tot_Q>  (1) 
0

>  <i_epik_Tot_abs_Q>  (1) 
2

>  <i_i_glide_confnum>  (1) 
100

>  <i_i_glide_lignum>  (1) 
60

>  <i_i_glide_posenum>  (1) 
356

>  <i_i_glide_rotatable_bonds>  (1) 
9

>  <i_lp_mmshare_version>  (1) 
72125

>  <i_m_source_file_index>  (1) 
22

>  <i_f3d_flags>  (1) 
0

>  <num_sample>  (1) 
50

>  <b_lp_Chiralities_Consistent>  (1) 
1

>  <r_epik_Charging_Adjusted_Penalty>  (1) 
1.3461270640264162

>  <r_epik_Ionization_Penalty>  (1) 
0.67306461740481383

>  <r_epik_Ionization_Penalty_Charging>  (1) 
0.67306354236559862

>  <r_epik_Ionization_Penalty_Neutral>  (1) 
1.0750392152197169e-06

>  <r_epik_State_Penalty>  (1) 
0.67306352166081751

>  <r_glide_ring_energy>  (1) 
0

>  <r_i_docking_score>  (1) 
-8.3181573971627198

>  <r_i_glide_ecoul>  (1) 
-10.532982767038387

>  <r_i_glide_eff_state_penalty>  (1) 
0.67306352166081751

>  <r_i_glide_einternal>  (1) 
3.2380181940068198

>  <r_i_glide_emodel>  (1) 
-86.027832816349374

>  <r_i_glide_emodel_strain>  (1) 
2.2218428200795728

>  <r_i_glide_energy>  (1) 
-50.584454863678289

>  <r_i_glide_erotb>  (1) 
1.1245087388706405

>  <r_i_glide_esite>  (1) 
-0.20207815553733896

>  <r_i_glide_evdw>  (1) 
-40.051472096639898

>  <r_i_glide_gscore>  (1) 
-8.9912209188235366

>  <r_i_glide_gscore_strain>  (1) 
0

>  <r_i_glide_hbond>  (1) 
-0.33596228651720311

>  <r_i_glide_ligand_efficiency>  (1) 
-0.31992913066010459

>  <r_i_glide_ligand_efficiency_ln>  (1) 
-1.953491970623038

>  <r_i_glide_ligand_efficiency_sa>  (1) 
-0.947788791749548

>  <r_i_glide_lipo>  (1) 
-4.0910088224747412

>  <r_i_glide_metal>  (1) 
-0

>  <r_i_glide_rewards>  (1) 
-1.9041593732771396

>  <r_lp_Energy>  (1) 
41.866791999999997

>  <r_lp_tautomer_probability>  (1) 
0.99990000499974985

>  <s_epik_cmdline>  (1) 
J2VwaWtfcHl0aG9uJywgJy1waHQnLCAnMS4wJywgJy1waCcsICc3LjQnLCAnLXRuJywgJzgnLCAnLW1hJywgJzUwMCcsICctaW1hZScsICc8aW5maWxlLm1hZT4nLCAnLW9tYWUnLCAnPG91dGZpbGUubWFlPic=

>  <s_epik_input>  (1) 
W0NIXTE9W0NIXVtDSF09W0NIXVtDSDJdW0NIXT1DMWMyW2NIXVtjSF1jKFtDSDNdKVtjSF1jMkMoPU8pW0NIMl1bQ0gyXVtOSF1bQ0gyXUMoPU8pW05IXUMoPU8pW1NIXQ==

>  <s_glide_docking_method>  (1) 
confgen

>  <s_i_glide_gridfile>  (1) 
gpcr_5ht2c_6bqh_protein_autoprepared_prepared

>  <s_lp_Force_Field>  (1) 
S-OPLS

>  <s_lp_Variant>  (1) 
DiffSBDD_21_num_sample_50-2

>  <s_m_source_file>  (1) 
generated__ligand_DiffSBDD_2026-05-06_prepared.sdf

>  <GenAI_Model>  (1) 
DiffSBDD

>  <Protein>  (1) 
GPCR_5HT2C

$$$$
DiffSBDD_2_num_sample_50
     RDKit          3D

  0  0  0  0  0  0  0  0  0  0999 V3000
M  V30 BEGIN CTAB
M  V30 COUNTS 69 73 0 0 1
M  V30 BEGIN ATOM
M  V30 1 C 38.126885 32.684870 60.390616 0
M  V30 2 C 39.067263 29.157225 54.390374 0
M  V30 3 C 40.321051 28.781627 61.373404 0
M  V30 4 C 35.727683 29.621467 58.851853 0
M  V30 5 F 39.867300 29.973825 52.298111 0
M  V30 6 C 39.584443 30.314947 53.556055 0
M  V30 7 C 38.810300 31.583381 60.581885 0
M  V30 8 C 39.921176 33.077818 61.411778 0
M  V30 9 C 37.766603 31.597679 57.514023 0
M  V30 10 C 39.215147 28.874806 60.308117 0 CFG=1
M  V30 11 C 38.387514 35.157977 61.413047 0
M  V30 12 C 41.838415 31.590456 63.530594 0 CFG=2
M  V30 13 C 38.599466 25.067334 57.497434 0
M  V30 14 C 38.513815 28.251166 56.589529 0
M  V30 15 C 37.115495 35.813389 60.914941 0
M  V30 16 C 40.786597 29.006332 58.404794 0
M  V30 17 C 38.424700 28.457320 58.117723 0 CFG=2
M  V30 18 C 39.119336 35.667542 62.415700 0
M  V30 19 O 42.667363 31.324014 64.636830 0
M  V30 20 O 39.067399 32.134681 57.483945 0
M  V30 21 C 38.125956 26.913622 54.566472 0
M  V30 22 F 38.667464 31.275871 53.566413 0
M  V30 23 O 42.514047 32.021428 62.339513 0
M  V30 24 C 38.618946 27.970734 53.776792 0
M  V30 25 C 41.870873 33.040086 63.114825 0 CFG=1
M  V30 26 C 39.026598 29.283810 55.783228 0
M  V30 27 P 37.525910 30.035988 58.594555 0 CFG=2 CHG=1
M  V30 28 C 40.324802 35.006363 62.908724 0
M  V30 29 C 38.295600 30.163005 60.292587 0 CFG=2
M  V30 30 C 37.506259 25.893074 56.806337 0
M  V30 31 C 38.834936 33.925660 60.677456 0 CFG=2
M  V30 32 N 40.062474 31.810761 61.116528 0
M  V30 33 N 39.615940 28.359313 58.969175 0
M  V30 34 C 38.063959 27.043464 55.973872 0
M  V30 35 F 40.667419 30.821405 54.134609 0
M  V30 36 C 40.730033 33.783998 62.474520 0
M  V30 37 H 37.121640 32.708355 59.999884 0
M  V30 38 H 39.916639 28.992142 62.364048 0
M  V30 39 H 40.742149 27.776646 61.403808 0
M  V30 40 H 41.140593 29.471369 61.196021 0
M  V30 41 H 35.467413 29.826510 59.880920 0
M  V30 42 H 35.048202 30.214604 58.253502 0
M  V30 43 H 35.505009 28.575441 58.653498 0
M  V30 44 H 37.104109 32.393270 57.853504 0
M  V30 45 H 37.467405 31.393066 56.486852 0
M  V30 46 H 38.532033 28.088427 60.629915 0
M  V30 47 H 40.954155 30.967005 63.417557 0
M  V30 48 H 38.159669 24.226750 58.033919 0
M  V30 49 H 39.304256 24.661923 56.770249 0
M  V30 50 H 39.167322 25.658833 58.214924 0
M  V30 51 H 36.273996 35.126186 61.005658 0
M  V30 52 H 36.882308 36.710970 61.487777 0
M  V30 53 H 37.218764 36.095554 59.866566 0
M  V30 54 H 41.634640 29.005483 59.087669 0
M  V30 55 H 41.107362 28.478390 57.505483 0
M  V30 56 H 40.549129 30.021429 58.127234 0
M  V30 57 H 37.803518 27.667778 58.515574 0
M  V30 58 H 38.789636 36.577615 62.897497 0
M  V30 59 H 43.042889 30.463836 64.525033 0
M  V30 60 H 39.083207 32.841743 56.854475 0
M  V30 61 H 37.783618 26.005045 54.092100 0
M  V30 62 H 38.650582 27.869907 52.701752 0
M  V30 63 H 42.569886 33.697769 63.627832 0
M  V30 64 H 39.382811 30.185060 56.231590 0
M  V30 65 H 40.880659 35.481229 63.705301 0
M  V30 66 H 37.525584 30.021474 61.045014 0
M  V30 67 H 36.749539 26.234752 57.511130 0
M  V30 68 H 36.957554 25.228434 56.138247 0
M  V30 69 H 39.246828 34.271663 59.729946 0
M  V30 END ATOM
M  V30 BEGIN BOND
M  V30 1 1 6 2
M  V30 2 1 6 5
M  V30 3 2 7 1
M  V30 4 1 10 3
M  V30 5 1 15 11
M  V30 6 1 17 14
M  V30 7 2 18 11
M  V30 8 1 19 12
M  V30 9 1 20 9
M  V30 10 1 22 6
M  V30 11 1 23 12
M  V30 12 1 24 2
M  V30 13 2 24 21
M  V30 14 1 25 12
M  V30 15 1 25 23
M  V30 16 2 26 2
M  V30 17 1 26 14
M  V30 18 1 27 4 CFG=1
M  V30 19 1 27 9
M  V30 20 1 27 17
M  V30 21 1 28 18
M  V30 22 1 29 7
M  V30 23 1 29 10
M  V30 24 1 29 27
M  V30 25 1 30 13
M  V30 26 1 31 1
M  V30 27 1 31 8
M  V30 28 1 31 11
M  V30 29 1 32 7
M  V30 30 2 32 8
M  V30 31 1 33 10
M  V30 32 1 33 16
M  V30 33 1 33 17
M  V30 34 2 34 14
M  V30 35 1 34 21
M  V30 36 1 34 30
M  V30 37 1 35 6
M  V30 38 1 36 8
M  V30 39 1 36 25
M  V30 40 2 36 28
M  V30 41 1 37 1
M  V30 42 1 38 3
M  V30 43 1 39 3
M  V30 44 1 40 3
M  V30 45 1 41 4
M  V30 46 1 42 4
M  V30 47 1 43 4
M  V30 48 1 44 9
M  V30 49 1 45 9
M  V30 50 1 10 46 CFG=1
M  V30 51 1 12 47 CFG=3
M  V30 52 1 48 13
M  V30 53 1 49 13
M  V30 54 1 50 13
M  V30 55 1 51 15
M  V30 56 1 52 15
M  V30 57 1 53 15
M  V30 58 1 54 16
M  V30 59 1 55 16
M  V30 60 1 56 16
M  V30 61 1 17 57 CFG=1
M  V30 62 1 58 18
M  V30 63 1 59 19
M  V30 64 1 60 20
M  V30 65 1 61 21
M  V30 66 1 62 24
M  V30 67 1 25 63 CFG=1
M  V30 68 1 64 26
M  V30 69 1 65 28
M  V30 70 1 29 66 CFG=1
M  V30 71 1 67 30
M  V30 72 1 68 30
M  V30 73 1 31 69 CFG=3
M  V30 END BOND
M  V30 END CTAB
M  END
>  <i_epik_Tot_Q>  (1) 
1

>  <i_epik_Tot_abs_Q>  (1) 
1

>  <i_i_glide_confnum>  (1) 
15

>  <i_i_glide_lignum>  (1) 
8

>  <i_i_glide_posenum>  (1) 
232

>  <i_i_glide_rotatable_bonds>  (1) 
8

>  <i_lp_mmshare_version>  (1) 
72125

>  <i_m_source_file_index>  (1) 
3

>  <i_f3d_flags>  (1) 
0

>  <num_sample>  (1) 
50

>  <b_lp_Chiralities_Consistent>  (1) 
1

>  <r_epik_Charging_Adjusted_Penalty>  (1) 
0.0033292626678827373

>  <r_epik_Ionization_Penalty>  (1) 
0.0034349233012131116

>  <r_epik_Ionization_Penalty_Charging>  (1) 
0

>  <r_epik_Ionization_Penalty_Neutral>  (1) 
0.0034349233012131116

>  <r_epik_State_Penalty>  (1) 
0.0033292626678827373

>  <r_glide_ring_energy>  (1) 
0

>  <r_i_docking_score>  (1) 
-8.3107073739534787

>  <r_i_glide_ecoul>  (1) 
-4.1604035095769465

>  <r_i_glide_eff_state_penalty>  (1) 
0.0033292626678827373

>  <r_i_glide_einternal>  (1) 
6.4952164058734585

>  <r_i_glide_emodel>  (1) 
-45.078279866358393

>  <r_i_glide_emodel_strain>  (1) 
0.51377309113378544

>  <r_i_glide_energy>  (1) 
-41.412316885493226

>  <r_i_glide_erotb>  (1) 
0.30231676593683265

>  <r_i_glide_esite>  (1) 
-0.057420100900712506

>  <r_i_glide_evdw>  (1) 
-37.251913375916281

>  <r_i_glide_gscore>  (1) 
-8.3140366366213616

>  <r_i_glide_gscore_strain>  (1) 
0

>  <r_i_glide_hbond>  (1) 
-0.0085515683502184782

>  <r_i_glide_ligand_efficiency>  (1) 
-0.23085298260981885

>  <r_i_glide_ligand_efficiency_ln>  (1) 
-1.8131718196309705

>  <r_i_glide_ligand_efficiency_sa>  (1) 
-0.7622597537679584

>  <r_i_glide_lipo>  (1) 
-4.1792310401358144

>  <r_i_glide_metal>  (1) 
-0

>  <r_i_glide_rewards>  (1) 
-1.8844944979390927

>  <r_lp_Energy>  (1) 
42.025849000000001

>  <s_epik_Chemistry_Notes>  (1) 
This compound has an imine and may undergo hydrolysis. This compound contains an acetal/aminal-like group ( X-CH(R)-Y where X, Y are N, S, or O) that may be acid/base labile, releasing an aldehyde.

>  <s_epik_cmdline>  (1) 
J2VwaWtfcHl0aG9uJywgJy1waHQnLCAnMS4wJywgJy1waCcsICc3LjQnLCAnLXRuJywgJzgnLCAnLW1hJywgJzUwMCcsICctaW1hZScsICc8aW5maWxlLm1hZT4nLCAnLW9tYWUnLCAnPG91dGZpbGUubWFlPic=

>  <s_epik_input>  (1) 
W09IXVtDSF0xT1tDQEhdMUMyPVtDSF1bQ0hdPUMoW0NIM10pW0NAQEhdKEMyPTMpW0NIXT1DKE4zKVtDQEBIXTRbQ0BIXShbQ0gzXSlOKFtDSDNdKVtDQEBIXShbUEArXTQoW0NIM10pW0NIMl1bT0hdKWMoW2NIXTUpYyhbQ0gyXVtDSDNdKVtjSF1bY0hdYzVDKEYpKEYpRg==

>  <s_glide_docking_method>  (1) 
confgen

>  <s_i_glide_gridfile>  (1) 
gpcr_5ht2c_6bqh_protein_autoprepared_prepared

>  <s_lp_Force_Field>  (1) 
S-OPLS

>  <s_lp_Variant>  (1) 
DiffSBDD_2_num_sample_50-1

>  <s_m_source_file>  (1) 
generated__ligand_DiffSBDD_2026-05-06_prepared.sdf

>  <GenAI_Model>  (1) 
DiffSBDD

>  <Protein>  (1) 
GPCR_5HT2C

$$$$
DiffSBDD_29_num_sample_50
     RDKit          3D

  0  0  0  0  0  0  0  0  0  0999 V3000
M  V30 BEGIN CTAB
M  V30 COUNTS 79 81 0 0 1
M  V30 BEGIN ATOM
M  V30 1 C 42.413219 32.610755 67.203526 0
M  V30 2 C 39.341501 30.448771 59.680981 0
M  V30 3 C 41.168014 32.708396 66.322082 0
M  V30 4 C 40.188436 27.230778 56.136079 0
M  V30 5 C 37.466048 35.454803 61.838137 0
M  V30 6 C 37.858867 26.379005 56.447770 0
M  V30 7 C 41.076806 34.096081 61.767017 0 CFG=2
M  V30 8 N 37.467140 31.897319 58.833343 0 CHG=1
M  V30 9 C 38.664336 34.841202 61.207134 0 CFG=1
M  V30 10 N 37.649694 27.201368 57.399261 0
M  V30 11 C 39.764130 34.643773 62.280280 0
M  V30 12 C 38.016821 33.232521 59.179084 0 CFG=2
M  V30 13 O 37.097229 30.021407 56.618405 0
M  V30 14 O 41.069055 32.702724 61.453509 0
M  V30 15 C 36.380687 34.733106 61.853474 0
M  V30 16 C 38.546924 27.147896 54.152805 0
M  V30 17 C 37.593638 36.853940 62.438010 0
M  V30 18 C 41.587928 32.555116 63.840676 0
M  V30 19 C 37.943342 33.479124 60.713445 0 CFG=2
M  V30 20 C 39.689359 28.563348 56.678581 0
M  V30 21 C 43.303121 31.372431 67.032781 0
M  V30 22 F 42.574819 30.264952 67.174173 0
M  V30 23 O 39.620541 29.571497 61.894207 0
M  V30 24 O 39.477623 25.221292 55.106824 0
M  V30 25 C 36.278405 37.639487 62.551644 0
M  V30 26 C 38.425543 30.822120 58.482260 0 CFG=2
M  V30 27 F 43.858586 31.373668 65.822007 0
M  V30 28 C 36.435346 33.397610 61.235489 0
M  V30 29 C 38.667397 29.770029 60.874849 0
M  V30 30 C 37.650680 29.624950 57.874017 0 CFG=2
M  V30 31 C 41.529889 33.280494 64.968638 0
M  V30 32 F 44.275086 31.367020 67.947305 0
M  V30 33 C 38.518316 28.346746 57.672374 0 CFG=1
M  V30 34 O 42.688445 33.492273 68.016248 0
M  V30 35 C 41.944339 33.098712 62.510643 0 CFG=2
M  V30 36 C 39.015435 26.494667 55.469629 0 CFG=1
M  V30 37 C 37.246718 34.278329 58.358886 0
M  V30 38 H 39.827231 31.343901 60.040132 0
M  V30 39 H 40.164273 29.817408 59.345383 0
M  V30 40 H 40.428315 33.351874 66.797771 0
M  V30 41 H 40.723679 31.719695 66.207181 0
M  V30 42 H 40.589055 26.639025 56.961641 0
M  V30 43 H 41.017029 27.383758 55.453099 0
M  V30 44 H 37.198297 25.524879 56.275901 0
M  V30 45 H 41.591290 34.735203 61.053917 0
M  V30 46 H 36.864506 32.021443 58.021295 0
M  V30 47 H 39.015077 35.460366 60.381749 0
M  V30 48 H 39.992488 35.591631 62.767534 0
M  V30 49 H 39.387183 33.980276 63.055246 0
M  V30 50 H 39.062572 33.287717 58.872044 0
M  V30 51 H 36.373444 30.647757 56.726990 0
M  V30 52 H 35.467392 35.066680 62.306173 0
M  V30 53 H 38.100053 28.129719 54.314388 0
M  V30 54 H 39.374374 27.271340 53.453188 0
M  V30 55 H 37.793099 26.535252 53.654932 0
M  V30 56 H 38.052753 36.770958 63.423753 0
M  V30 57 H 38.285837 37.428966 61.821454 0
M  V30 58 H 41.364813 31.498677 63.882074 0
M  V30 59 H 38.472857 32.666769 61.207245 0
M  V30 60 H 39.390701 29.202888 55.848256 0
M  V30 61 H 40.507907 29.088671 57.168886 0
M  V30 62 H 39.214364 29.108132 62.616854 0
M  V30 63 H 39.904093 24.831110 55.854955 0
M  V30 64 H 36.434732 38.614221 63.008957 0
M  V30 65 H 35.867777 37.820015 61.559125 0
M  V30 66 H 35.538116 37.124423 63.164927 0
M  V30 67 H 39.068856 31.222543 57.698333 0
M  V30 68 H 35.677392 33.302756 60.458876 0
M  V30 69 H 36.298235 32.609962 61.972422 0
M  V30 70 H 38.267432 28.801635 60.582772 0
M  V30 71 H 37.850547 30.378503 61.263962 0
M  V30 72 H 36.821379 29.369583 58.536794 0
M  V30 73 H 41.753209 34.337703 64.935657 0
M  V30 74 H 38.990834 28.086341 58.616056 0
M  V30 75 H 42.988356 32.956040 62.244286 0
M  V30 76 H 37.466958 35.300787 58.660667 0
M  V30 77 H 37.494108 34.181388 57.301488 0
M  V30 78 H 36.167291 34.154014 58.440658 0
M  V30 79 H 36.868743 31.592067 59.585273 0
M  V30 END ATOM
M  V30 BEGIN BOND
M  V30 1 1 3 1
M  V30 2 1 9 5
M  V30 3 2 10 6
M  V30 4 1 11 7
M  V30 5 1 11 9
M  V30 6 1 12 8
M  V30 7 1 14 7
M  V30 8 2 15 5
M  V30 9 1 17 5
M  V30 10 1 19 9
M  V30 11 1 19 12
M  V30 12 1 20 4
M  V30 13 1 21 1
M  V30 14 1 22 21
M  V30 15 1 25 17
M  V30 16 1 26 2
M  V30 17 1 26 8
M  V30 18 1 27 21
M  V30 19 1 28 15
M  V30 20 1 28 19
M  V30 21 1 29 2
M  V30 22 1 29 23
M  V30 23 1 30 13
M  V30 24 1 30 26
M  V30 25 1 31 3
M  V30 26 2 31 18
M  V30 27 1 32 21
M  V30 28 1 33 10
M  V30 29 1 33 20
M  V30 30 1 33 30
M  V30 31 2 34 1
M  V30 32 1 35 7
M  V30 33 1 35 14
M  V30 34 1 35 18
M  V30 35 1 36 4
M  V30 36 1 36 6
M  V30 37 1 36 16
M  V30 38 1 36 24 CFG=3
M  V30 39 1 37 12
M  V30 40 1 38 2
M  V30 41 1 39 2
M  V30 42 1 40 3
M  V30 43 1 41 3
M  V30 44 1 42 4
M  V30 45 1 43 4
M  V30 46 1 44 6
M  V30 47 1 7 45 CFG=3
M  V30 48 1 46 8
M  V30 49 1 9 47 CFG=3
M  V30 50 1 48 11
M  V30 51 1 49 11
M  V30 52 1 12 50 CFG=3
M  V30 53 1 51 13
M  V30 54 1 52 15
M  V30 55 1 53 16
M  V30 56 1 54 16
M  V30 57 1 55 16
M  V30 58 1 56 17
M  V30 59 1 57 17
M  V30 60 1 58 18
M  V30 61 1 19 59 CFG=1
M  V30 62 1 60 20
M  V30 63 1 61 20
M  V30 64 1 62 23
M  V30 65 1 63 24
M  V30 66 1 64 25
M  V30 67 1 65 25
M  V30 68 1 66 25
M  V30 69 1 26 67 CFG=3
M  V30 70 1 68 28
M  V30 71 1 69 28
M  V30 72 1 70 29
M  V30 73 1 71 29
M  V30 74 1 30 72 CFG=1
M  V30 75 1 73 31
M  V30 76 1 33 74 CFG=1
M  V30 77 1 35 75 CFG=3
M  V30 78 1 76 37
M  V30 79 1 77 37
M  V30 80 1 78 37
M  V30 81 1 79 8
M  V30 END BOND
M  V30 END CTAB
M  END
>  <i_epik_Tot_Q>  (1) 
1

>  <i_epik_Tot_abs_Q>  (1) 
1

>  <i_i_glide_confnum>  (1) 
5093

>  <i_i_glide_lignum>  (1) 
75

>  <i_i_glide_posenum>  (1) 
155

>  <i_i_glide_rotatable_bonds>  (1) 
17

>  <i_lp_mmshare_version>  (1) 
72125

>  <i_m_source_file_index>  (1) 
30

>  <i_f3d_flags>  (1) 
0

>  <num_sample>  (1) 
50

>  <b_lp_Chiralities_Consistent>  (1) 
1

>  <r_epik_Charging_Adjusted_Penalty>  (1) 
0.073066720001252791

>  <r_epik_Ionization_Penalty>  (1) 
0.041882768558209021

>  <r_epik_Ionization_Penalty_Charging>  (1) 
0.011280877963412759

>  <r_epik_Ionization_Penalty_Neutral>  (1) 
0.030601890594796264

>  <r_epik_State_Penalty>  (1) 
0.061785842037840037

>  <r_glide_ring_energy>  (1) 
0

>  <r_i_docking_score>  (1) 
-8.3104114980963733

>  <r_i_glide_ecoul>  (1) 
-11.397401612852162

>  <r_i_glide_eff_state_penalty>  (1) 
0.061785842037840037

>  <r_i_glide_einternal>  (1) 
4.0540818364408935

>  <r_i_glide_emodel>  (1) 
-70.182941007861473

>  <r_i_glide_emodel_strain>  (1) 
0.66387103435883432

>  <r_i_glide_energy>  (1) 
-45.346004731846861

>  <r_i_glide_erotb>  (1) 
0.87550365807384167

>  <r_i_glide_esite>  (1) 
-0.10000000000000001

>  <r_i_glide_evdw>  (1) 
-33.948603118994697

>  <r_i_glide_gscore>  (1) 
-8.372197340134214

>  <r_i_glide_gscore_strain>  (1) 
0

>  <r_i_glide_hbond>  (1) 
-0.56487576439409448

>  <r_i_glide_ligand_efficiency>  (1) 
-0.22460571616476685

>  <r_i_glide_ligand_efficiency_ln>  (1) 
-1.8023334302498133

>  <r_i_glide_ligand_efficiency_sa>  (1) 
-0.74843607540882484

>  <r_i_glide_lipo>  (1) 
-3.5514837838423334

>  <r_i_glide_metal>  (1) 
-0

>  <r_i_glide_rewards>  (1) 
-1.6243010520940686

>  <r_lp_Energy>  (1) 
33.860624000000001

>  <s_epik_Chemistry_Notes>  (1) 
This compound has an imine and may undergo hydrolysis.

>  <s_epik_cmdline>  (1) 
J2VwaWtfcHl0aG9uJywgJy1waHQnLCAnMS4wJywgJy1waCcsICc3LjQnLCAnLXRuJywgJzgnLCAnLW1hJywgJzUwMCcsICctaW1hZScsICc8aW5maWxlLm1hZT4nLCAnLW9tYWUnLCAnPG91dGZpbGUubWFlPic=

>  <s_epik_input>  (1) 
RkMoRikoRilDKD1PKVtDSDJdXFtDSF09W0NIXVxbQ0BIXTFPW0NASF0xW0NIMl1bQ0BIXTJbQ0BIXShbQ0gyXVtDSF09QzJbQ0gyXVtDSDNdKVtDQEhdKFtDSDNdKVtOSF1bQ0BASF0oW0NIMl1bQ0gyXVtPSF0pW0NAQEhdKFtPSF0pW0NAQEhdKE49W0NIXTMpW0NIMl1bQ0gyXVtDQEBdMyhbQ0gzXSlbT0hd

>  <s_glide_docking_method>  (1) 
confgen

>  <s_i_glide_gridfile>  (1) 
gpcr_5ht2c_6bqh_protein_autoprepared_prepared

>  <s_lp_Force_Field>  (1) 
S-OPLS

>  <s_lp_Variant>  (1) 
DiffSBDD_29_num_sample_50-3

>  <s_m_source_file>  (1) 
generated__ligand_DiffSBDD_2026-05-06_prepared.sdf

>  <GenAI_Model>  (1) 
DiffSBDD

>  <Protein>  (1) 
GPCR_5HT2C

$$$$
DiffSBDD_22_num_sample_50
     RDKit          3D

  0  0  0  0  0  0  0  0  0  0999 V3000
M  V30 BEGIN CTAB
M  V30 COUNTS 70 72 0 0 1
M  V30 BEGIN ATOM
M  V30 1 O 36.948579 31.062547 61.453874 0
M  V30 2 C 36.265864 22.737740 55.997688 0
M  V30 3 N 36.120526 30.758987 59.053611 0
M  V30 4 O 38.428163 31.881941 59.538621 0
M  V30 5 C 37.408463 34.967965 59.034981 0
M  V30 6 C 38.894457 26.413908 56.786748 0 CFG=2
M  V30 7 C 36.018671 33.915117 61.332035 0
M  V30 8 C 38.898754 28.536391 59.851746 0
M  V30 9 C 39.466938 29.364540 53.565562 0
M  V30 10 C 38.660474 28.374454 58.532298 0
M  V30 11 C 39.450246 27.972218 53.370896 0
M  V30 12 C 39.465056 27.443353 52.065993 0
M  V30 13 C 38.564852 24.335465 54.859887 0
M  V30 14 C 39.576759 30.223349 52.475646 0
M  V30 15 N 36.337939 29.430524 58.673771 0
M  V30 16 F 38.136051 36.767306 60.371016 0
M  V30 17 C 37.854828 30.094336 56.816324 0
M  V30 18 C 36.307665 33.933276 58.867359 0
M  V30 19 C 39.647755 29.703710 51.176537 0
M  V30 20 Cl 39.867913 30.771160 49.853506 0
M  V30 21 C 39.576405 27.535455 57.633062 0 CFG=1
M  V30 22 C 37.697267 25.584079 54.963307 0 CFG=2
M  V30 23 S 37.098794 31.663370 60.129248 0
M  V30 24 C 39.561065 28.313604 50.963465 0
M  V30 25 C 39.563023 27.064585 54.566853 0
M  V30 26 N 36.196209 33.130590 60.090272 0
M  V30 27 C 37.155487 35.880627 60.230281 0
M  V30 28 O 35.866958 24.084031 55.797699 0
M  V30 29 N 38.430294 26.755053 55.434814 0
M  V30 30 C 40.727518 26.877908 58.378342 0
M  V30 31 S 37.537427 25.482674 57.602022 0
M  V30 32 C 36.672441 25.241583 56.031051 0 CFG=1
M  V30 33 C 37.461316 29.014811 57.842246 0 CFG=1
M  V30 34 C 37.072470 35.022155 61.485954 0
M  V30 35 H 35.370032 22.124337 55.913203 0
M  V30 36 H 36.897624 22.325275 55.222992 0
M  V30 37 H 36.667402 22.580472 56.997332 0
M  V30 38 H 35.867367 31.300693 58.205136 0
M  V30 39 H 37.465019 35.557271 58.126747 0
M  V30 40 H 38.346771 34.421839 59.153204 0
M  V30 41 H 39.670455 25.663293 56.649790 0
M  V30 42 H 35.034946 34.370384 61.303020 0
M  V30 43 H 36.027040 33.266690 62.204201 0
M  V30 44 H 39.745312 28.076539 60.332678 0
M  V30 45 H 38.251293 29.132060 60.462684 0
M  V30 46 H 39.469384 29.766341 54.555582 0
M  V30 47 H 39.457151 26.377227 51.911264 0
M  V30 48 H 38.052643 23.620073 54.253634 0
M  V30 49 H 39.562230 24.421559 54.455442 0
M  V30 50 H 38.687431 23.864039 55.831308 0
M  V30 51 H 39.638374 31.290087 52.635994 0
M  V30 52 H 36.162195 28.779206 59.434866 0
M  V30 53 H 38.849146 29.926687 56.435750 0
M  V30 54 H 37.155821 30.103915 55.978034 0
M  V30 55 H 37.878855 31.100958 57.225665 0
M  V30 56 H 36.588730 33.299826 58.027073 0
M  V30 57 H 35.350399 34.398452 58.636103 0
M  V30 58 H 40.064761 28.263180 56.995479 0
M  V30 59 H 37.211791 25.797457 54.009952 0
M  V30 60 H 39.607055 27.915022 49.961767 0
M  V30 61 H 40.304559 27.599094 55.146466 0
M  V30 62 H 40.155423 26.213432 54.264995 0
M  V30 63 H 36.243862 36.455961 60.080707 0
M  V30 64 H 41.299691 27.583994 58.981562 0
M  V30 65 H 40.267362 26.112275 59.005993 0
M  V30 66 H 41.441167 26.425337 57.688410 0
M  V30 67 H 35.931018 26.020733 56.017418 0
M  V30 68 H 37.067693 28.194092 57.256928 0
M  V30 69 H 36.826124 35.653059 62.340485 0
M  V30 70 H 38.045643 34.578765 61.695154 0
M  V30 END ATOM
M  V30 BEGIN BOND
M  V30 1 2 10 8
M  V30 2 1 11 9
M  V30 3 2 12 11
M  V30 4 2 14 9
M  V30 5 1 15 3
M  V30 6 1 18 5
M  V30 7 1 19 14
M  V30 8 1 20 19
M  V30 9 1 21 6
M  V30 10 1 21 10
M  V30 11 1 22 13
M  V30 12 2 23 1
M  V30 13 1 23 3
M  V30 14 2 23 4
M  V30 15 1 24 12
M  V30 16 2 24 19
M  V30 17 1 25 11
M  V30 18 1 26 7
M  V30 19 1 26 18
M  V30 20 1 26 23
M  V30 21 1 27 5
M  V30 22 1 27 16
M  V30 23 1 28 2
M  V30 24 1 29 6
M  V30 25 1 29 22
M  V30 26 1 29 25
M  V30 27 1 30 21
M  V30 28 1 31 6
M  V30 29 1 32 22
M  V30 30 1 32 28
M  V30 31 1 32 31
M  V30 32 1 33 10
M  V30 33 1 33 15
M  V30 34 1 33 17
M  V30 35 1 34 7
M  V30 36 1 34 27
M  V30 37 1 35 2
M  V30 38 1 36 2
M  V30 39 1 37 2
M  V30 40 1 38 3
M  V30 41 1 39 5
M  V30 42 1 40 5
M  V30 43 1 6 41 CFG=3
M  V30 44 1 42 7
M  V30 45 1 43 7
M  V30 46 1 44 8
M  V30 47 1 45 8
M  V30 48 1 46 9
M  V30 49 1 47 12
M  V30 50 1 48 13
M  V30 51 1 49 13
M  V30 52 1 50 13
M  V30 53 1 51 14
M  V30 54 1 52 15
M  V30 55 1 53 17
M  V30 56 1 54 17
M  V30 57 1 55 17
M  V30 58 1 56 18
M  V30 59 1 57 18
M  V30 60 1 21 58 CFG=3
M  V30 61 1 22 59 CFG=3
M  V30 62 1 60 24
M  V30 63 1 61 25
M  V30 64 1 62 25
M  V30 65 1 63 27
M  V30 66 1 64 30
M  V30 67 1 65 30
M  V30 68 1 66 30
M  V30 69 1 32 67 CFG=1
M  V30 70 1 33 68 CFG=3
M  V30 71 1 69 34
M  V30 72 1 70 34
M  V30 END BOND
M  V30 END CTAB
M  END
>  <i_epik_Tot_Q>  (1) 
0

>  <i_epik_Tot_abs_Q>  (1) 
0

>  <i_i_glide_confnum>  (1) 
1602

>  <i_i_glide_lignum>  (1) 
61

>  <i_i_glide_posenum>  (1) 
195

>  <i_i_glide_rotatable_bonds>  (1) 
10

>  <i_lp_mmshare_version>  (1) 
72125

>  <i_m_source_file_index>  (1) 
23

>  <i_f3d_flags>  (1) 
0

>  <num_sample>  (1) 
50

>  <b_lp_Chiralities_Consistent>  (1) 
1

>  <r_epik_Charging_Adjusted_Penalty>  (1) 
0.021675413420737664

>  <r_epik_Ionization_Penalty>  (1) 
0.0077503222149327006

>  <r_epik_Ionization_Penalty_Charging>  (1) 
0

>  <r_epik_Ionization_Penalty_Neutral>  (1) 
0.0077503222149327006

>  <r_epik_State_Penalty>  (1) 
0.021675413420737664

>  <r_glide_ring_energy>  (1) 
0

>  <r_i_docking_score>  (1) 
-8.298465916949235

>  <r_i_glide_ecoul>  (1) 
-12.104128622721557

>  <r_i_glide_eff_state_penalty>  (1) 
0.021675413420737664

>  <r_i_glide_einternal>  (1) 
31.825063909840793

>  <r_i_glide_emodel>  (1) 
-33.246215479818751

>  <r_i_glide_emodel_strain>  (1) 
4.399023085028567

>  <r_i_glide_energy>  (1) 
-31.023835490835115

>  <r_i_glide_erotb>  (1) 
0.57664372935484776

>  <r_i_glide_esite>  (1) 
-0.27687779046815558

>  <r_i_glide_evdw>  (1) 
-18.919706868113558

>  <r_i_glide_gscore>  (1) 
-8.3201413303699727

>  <r_i_glide_gscore_strain>  (1) 
0.099755771257141745

>  <r_i_glide_hbond>  (1) 
-0.14026101799511878

>  <r_i_glide_ligand_efficiency>  (1) 
-0.24407252696909515

>  <r_i_glide_ligand_efficiency_ln>  (1) 
-1.8333638851388114

>  <r_i_glide_ligand_efficiency_sa>  (1) 
-0.79070023873669759

>  <r_i_glide_lipo>  (1) 
-4.6980405490035535

>  <r_i_glide_metal>  (1) 
-0

>  <r_i_glide_rewards>  (1) 
-1.1197568367012229

>  <r_lp_Energy>  (1) 
18.856047999999998

>  <s_epik_Chemistry_Notes>  (1) 
This compound contains an acetal/aminal-like group ( X-CH(R)-Y where X, Y are N, S, or O) that may be acid/base labile, releasing an aldehyde.

>  <s_epik_cmdline>  (1) 
J2VwaWtfcHl0aG9uJywgJy1waHQnLCAnMS4wJywgJy1waCcsICc3LjQnLCAnLXRuJywgJzgnLCAnLW1hJywgJzUwMCcsICctaW1hZScsICc8aW5maWxlLm1hZT4nLCAnLW9tYWUnLCAnPG91dGZpbGUubWFlPic=

>  <s_epik_input>  (1) 
W0NIMl0xW0NIMl1bQ0hdKEYpW0NIMl1bQ0gyXU4xUyg9TykoPU8pW05IXVtOSF1bQ0BASF0oW0NIM10pQyg9W0NIMl0pW0NAQEhdKFtDSDNdKVtDQEBIXTJOKFtDQEBIXShbQ0gzXSlbQ0BIXShTMilPW0NIM10pW0NIMl1jM1tjSF1bY0hdYyhDbClbY0hdW2NIXTM=

>  <s_glide_docking_method>  (1) 
confgen

>  <s_i_glide_gridfile>  (1) 
gpcr_5ht2c_6bqh_protein_autoprepared_prepared

>  <s_lp_Force_Field>  (1) 
S-OPLS

>  <s_lp_Variant>  (1) 
DiffSBDD_22_num_sample_50-1

>  <s_m_source_file>  (1) 
generated__ligand_DiffSBDD_2026-05-06_prepared.sdf

>  <GenAI_Model>  (1) 
DiffSBDD

>  <Protein>  (1) 
GPCR_5HT2C

$$$$
DiffSBDD_23_num_sample_50
     RDKit          3D

  0  0  0  0  0  0  0  0  0  0999 V3000
M  V30 BEGIN CTAB
M  V30 COUNTS 61 65 0 0 1
M  V30 BEGIN ATOM
M  V30 1 C 39.658640 35.447945 68.010220 0
M  V30 2 C 38.156606 30.980757 55.784625 0 CFG=1
M  V30 3 C 41.188163 34.787050 63.503227 0
M  V30 4 C 38.775555 33.786521 61.555924 0 CFG=1
M  V30 5 S 39.646670 28.218527 58.541681 0
M  V30 6 C 40.845604 35.621451 64.569488 0
M  V30 7 C 40.570922 36.102527 67.011298 0
M  V30 8 N 39.306034 26.901735 56.338519 0
M  V30 9 C 38.929051 29.031421 57.162770 0
M  V30 10 C 38.266549 28.553819 54.747775 0
M  V30 11 S 36.739842 32.167171 60.427651 0
M  V30 12 O 37.067762 31.172092 61.453493 0
M  V30 13 C 41.742860 33.003572 65.057163 0
M  V30 14 C 38.521949 30.460337 57.208670 0 CFG=2
M  V30 15 N 37.458886 33.680668 60.871640 0
M  V30 16 C 41.638713 33.483754 63.741040 0
M  V30 17 C 40.947621 35.163446 65.900928 0
M  V30 18 C 37.287582 36.173908 60.983457 0
M  V30 19 C 40.501293 34.820200 69.093975 0
M  V30 20 O 40.475997 35.282446 70.232752 0
M  V30 21 Cl 39.867396 32.496934 60.975496 0
M  V30 22 C 41.546435 33.219589 67.550607 0
M  V30 23 S 41.067543 35.384949 61.853744 0
M  V30 24 N 37.693402 31.848941 59.041441 0
M  V30 25 O 35.352186 32.390317 59.997002 0
M  V30 26 N 41.245139 33.725903 68.694499 0
M  V30 27 C 36.559125 34.821846 61.099987 0
M  V30 28 C 38.821230 28.190494 56.082463 0
M  V30 29 C 39.771317 26.774464 57.575300 0
M  V30 30 O 38.481359 36.168900 61.749569 0
M  V30 31 C 41.399448 33.823213 66.161635 0
M  V30 32 N 37.489160 30.738663 58.212096 0
M  V30 33 N 39.336501 31.575819 55.133937 0 CHG=1
M  V30 34 C 39.374469 35.177164 61.273453 0 CFG=2
M  V30 35 C 37.516038 29.909120 54.849050 0
M  V30 36 H 38.948216 34.753738 67.561274 0
M  V30 37 H 39.067416 36.229194 68.487461 0
M  V30 38 H 37.467383 31.819541 55.885387 0
M  V30 39 H 38.661804 33.627607 62.626637 0
M  V30 40 H 40.503654 36.627534 64.371166 0
M  V30 41 H 40.039228 36.953447 66.581559 0
M  V30 42 H 41.467385 36.533973 67.453502 0
M  V30 43 H 39.077454 28.636338 54.023823 0
M  V30 44 H 37.595368 27.777848 54.376400 0
M  V30 45 H 42.090450 31.994824 65.227177 0
M  V30 46 H 39.406885 31.008093 57.535098 0
M  V30 47 H 41.908764 32.845535 62.912590 0
M  V30 48 H 36.647338 36.978312 61.343246 0
M  V30 49 H 37.509791 36.402912 59.939259 0
M  V30 50 H 41.974545 32.213891 67.547174 0
M  V30 51 H 38.677618 31.898437 59.302247 0
M  V30 52 H 36.109286 34.719982 62.088872 0
M  V30 53 H 35.743261 34.805304 60.377955 0
M  V30 54 H 40.186878 25.836345 57.913611 0
M  V30 55 H 36.589129 30.881120 57.739050 0
M  V30 56 H 40.044412 30.868453 55.000284 0
M  V30 57 H 39.067150 31.963225 54.240906 0
M  V30 58 H 39.471267 35.296383 60.196130 0
M  V30 59 H 37.344374 30.313891 53.853627 0
M  V30 60 H 36.525064 29.706683 55.254271 0
M  V30 61 H 39.699729 32.313657 55.720236 0
M  V30 END ATOM
M  V30 BEGIN BOND
M  V30 1 2 6 3
M  V30 2 1 7 1
M  V30 3 1 9 5
M  V30 4 2 12 11
M  V30 5 1 14 2
M  V30 6 1 14 9
M  V30 7 1 15 4
M  V30 8 1 15 11
M  V30 9 1 16 3
M  V30 10 2 16 13
M  V30 11 1 17 6
M  V30 12 1 17 7
M  V30 13 1 19 1
M  V30 14 2 20 19
M  V30 15 1 21 4
M  V30 16 1 23 3
M  V30 17 1 24 11
M  V30 18 2 25 11
M  V30 19 1 26 19
M  V30 20 2 26 22
M  V30 21 1 27 15
M  V30 22 1 27 18
M  V30 23 1 28 8
M  V30 24 2 28 9
M  V30 25 1 28 10
M  V30 26 1 29 5
M  V30 27 2 29 8
M  V30 28 1 30 18
M  V30 29 1 31 13
M  V30 30 2 31 17
M  V30 31 1 31 22
M  V30 32 1 32 14
M  V30 33 1 32 24
M  V30 34 1 33 2
M  V30 35 1 34 4
M  V30 36 1 34 23
M  V30 37 1 34 30
M  V30 38 1 35 2
M  V30 39 1 35 10
M  V30 40 1 36 1
M  V30 41 1 37 1
M  V30 42 1 2 38 CFG=1
M  V30 43 1 4 39 CFG=1
M  V30 44 1 40 6
M  V30 45 1 41 7
M  V30 46 1 42 7
M  V30 47 1 43 10
M  V30 48 1 44 10
M  V30 49 1 45 13
M  V30 50 1 14 46 CFG=1
M  V30 51 1 47 16
M  V30 52 1 48 18
M  V30 53 1 49 18
M  V30 54 1 50 22
M  V30 55 1 51 24
M  V30 56 1 52 27
M  V30 57 1 53 27
M  V30 58 1 54 29
M  V30 59 1 55 32
M  V30 60 1 56 33
M  V30 61 1 57 33
M  V30 62 1 34 58 CFG=3
M  V30 63 1 59 35
M  V30 64 1 60 35
M  V30 65 1 61 33
M  V30 END BOND
M  V30 END CTAB
M  END
>  <i_epik_Tot_Q>  (1) 
1

>  <i_epik_Tot_abs_Q>  (1) 
1

>  <i_i_glide_confnum>  (1) 
383

>  <i_i_glide_lignum>  (1) 
62

>  <i_i_glide_posenum>  (1) 
263

>  <i_i_glide_rotatable_bonds>  (1) 
6

>  <i_lp_mmshare_version>  (1) 
72125

>  <i_m_source_file_index>  (1) 
24

>  <i_f3d_flags>  (1) 
0

>  <num_sample>  (1) 
50

>  <b_lp_Chiralities_Consistent>  (1) 
1

>  <r_epik_Charging_Adjusted_Penalty>  (1) 
0.20786405117440027

>  <r_epik_Ionization_Penalty>  (1) 
0.17784020352230567

>  <r_epik_Ionization_Penalty_Charging>  (1) 
0.046839863378715332

>  <r_epik_Ionization_Penalty_Neutral>  (1) 
0.13100034014359035

>  <r_epik_State_Penalty>  (1) 
0.16102418779568495

>  <r_glide_ring_energy>  (1) 
2.0047208920200115

>  <r_i_docking_score>  (1) 
-8.2922931460966307

>  <r_i_glide_ecoul>  (1) 
-5.9233412729470327

>  <r_i_glide_eff_state_penalty>  (1) 
0.16102418779568495

>  <r_i_glide_einternal>  (1) 
9.8193028393973076

>  <r_i_glide_emodel>  (1) 
-90.833451878098955

>  <r_i_glide_emodel_strain>  (1) 
1.3806448934073217

>  <r_i_glide_energy>  (1) 
-63.827192532999831

>  <r_i_glide_erotb>  (1) 
0.32266353053763186

>  <r_i_glide_esite>  (1) 
-0.24781918113235474

>  <r_i_glide_evdw>  (1) 
-57.903851260052797

>  <r_i_glide_gscore>  (1) 
-8.4533173338923149

>  <r_i_glide_gscore_strain>  (1) 
0

>  <r_i_glide_hbond>  (1) 
-0.16

>  <r_i_glide_ligand_efficiency>  (1) 
-0.23692266131704659

>  <r_i_glide_ligand_efficiency_ln>  (1) 
-1.8203423830989083

>  <r_i_glide_ligand_efficiency_sa>  (1) 
-0.77498973555441264

>  <r_i_glide_lipo>  (1) 
-3.4782711705076554

>  <r_i_glide_metal>  (1) 
-0

>  <r_i_glide_rewards>  (1) 
-1.1061967588452417

>  <r_lp_Energy>  (1) 
46.497914999999999

>  <s_epik_Chemistry_Notes>  (1) 
This compound has an imine and may undergo hydrolysis. This compound contains an acetal/aminal-like group ( X-CH(R)-Y where X, Y are N, S, or O) that may be acid/base labile, releasing an aldehyde.

>  <s_epik_cmdline>  (1) 
J2VwaWtfcHl0aG9uJywgJy1waHQnLCAnMS4wJywgJy1waCcsICc3LjQnLCAnLXRuJywgJzgnLCAnLW1hJywgJzUwMCcsICctaW1hZScsICc8aW5maWxlLm1hZT4nLCAnLW9tYWUnLCAnPG91dGZpbGUubWFlPic=

>  <s_epik_input>  (1) 
W0NIMl0xW0NIMl1DKD1PKU49W0NIXWMoYzEyKVtjSF1bY0hdYyhbY0hdMilTW0NAQEhdM09bQ0gyXVtDSDJdTihbQ0BIXTNDbClTKD1PKSg9TylbTkhdW05IXVtDQEBIXTRbQ0BASF0oW05IMl0pW0NIMl1bQ0gyXWMoYzQ1KW5bY0hdczU=

>  <s_glide_docking_method>  (1) 
confgen

>  <s_i_glide_gridfile>  (1) 
gpcr_5ht2c_6bqh_protein_autoprepared_prepared

>  <s_lp_Force_Field>  (1) 
S-OPLS

>  <s_lp_Variant>  (1) 
DiffSBDD_23_num_sample_50-1

>  <s_m_source_file>  (1) 
generated__ligand_DiffSBDD_2026-05-06_prepared.sdf

>  <GenAI_Model>  (1) 
DiffSBDD

>  <Protein>  (1) 
GPCR_5HT2C

$$$$
DiffSBDD_23_num_sample_50
     RDKit          3D

  0  0  0  0  0  0  0  0  0  0999 V3000
M  V30 BEGIN CTAB
M  V30 COUNTS 61 65 0 0 1
M  V30 BEGIN ATOM
M  V30 1 C 38.857998 28.421384 51.077590 0
M  V30 2 C 41.677256 30.245426 65.125182 0 CFG=1
M  V30 3 C 38.334912 28.618127 55.860502 0
M  V30 4 C 38.278566 29.249831 59.628232 0 CFG=1
M  V30 5 S 41.794435 34.266948 64.020062 0
M  V30 6 C 38.604194 27.902276 54.688833 0
M  V30 7 C 39.400290 27.773373 52.312897 0
M  V30 8 N 41.798838 34.242870 66.607962 0
M  V30 9 C 41.634307 32.734831 64.860075 0
M  V30 10 C 41.547281 31.818859 67.238074 0
M  V30 11 S 38.787278 31.609544 61.069299 0
M  V30 12 O 38.846509 32.595189 59.980399 0
M  V30 13 C 38.942812 30.693752 54.764513 0
M  V30 14 C 41.497351 31.439440 64.134676 0 CFG=2
M  V30 15 N 39.230430 30.049098 60.420939 0
M  V30 16 C 38.474686 30.013638 55.887551 0
M  V30 17 C 39.069592 28.576029 53.541559 0
M  V30 18 C 40.934067 28.343221 59.845088 0
M  V30 19 C 39.867407 29.387535 50.483086 0
M  V30 20 O 40.267360 29.221435 49.342411 0
M  V30 21 Cl 36.929891 30.274044 59.053703 0
M  V30 22 C 39.867424 30.804545 52.460006 0
M  V30 23 S 37.872599 27.760298 57.323203 0
M  V30 24 N 40.094819 31.942506 62.136897 0
M  V30 25 O 37.572910 31.440380 61.879472 0
M  V30 26 N 40.246501 30.421228 51.302933 0
M  V30 27 C 40.317687 29.213188 60.961499 0
M  V30 28 C 41.655349 32.904597 66.222972 0
M  V30 29 C 41.872751 35.063214 65.566503 0
M  V30 30 O 39.939991 27.633659 59.112284 0
M  V30 31 C 39.273645 29.997779 53.584370 0
M  V30 32 N 40.229726 31.359596 63.410245 0
M  V30 33 N 43.099590 29.863461 65.225503 0 CHG=1
M  V30 34 C 39.018448 28.528347 58.508409 0 CFG=2
M  V30 35 C 41.091182 30.505006 66.549366 0
M  V30 36 H 37.890691 28.884841 51.263159 0
M  V30 37 H 38.687270 27.643390 50.332969 0
M  V30 38 H 41.183182 29.366647 64.706077 0
M  V30 39 H 37.867376 28.474188 60.253506 0
M  V30 40 H 38.488323 26.828492 54.676292 0
M  V30 41 H 38.963259 26.779738 52.409521 0
M  V30 42 H 40.474813 27.621433 52.253504 0
M  V30 43 H 42.514513 31.671449 67.715111 0
M  V30 44 H 40.849298 32.086524 68.031417 0
M  V30 45 H 39.081551 31.765184 54.812996 0
M  V30 46 H 42.284841 31.370435 63.382413 0
M  V30 47 H 38.254775 30.564426 56.787057 0
M  V30 48 H 41.625891 27.622332 60.276743 0
M  V30 49 H 41.516859 28.962680 59.161463 0
M  V30 50 H 39.990641 31.855757 52.699147 0
M  V30 51 H 40.393551 32.918199 62.109020 0
M  V30 52 H 39.919001 28.591203 61.763538 0
M  V30 53 H 41.107437 29.818972 61.389505 0
M  V30 54 H 41.985098 36.129202 65.710377 0
M  V30 55 H 39.801942 30.434687 63.445417 0
M  V30 56 H 43.633736 30.643443 65.579438 0
M  V30 57 H 43.196668 29.078109 65.853485 0
M  V30 58 H 39.619895 29.258771 57.971013 0
M  V30 59 H 41.259231 29.651579 67.207140 0
M  V30 60 H 40.008827 30.563492 66.430716 0
M  V30 61 H 43.451681 29.599030 64.316558 0
M  V30 END ATOM
M  V30 BEGIN BOND
M  V30 1 2 6 3
M  V30 2 1 7 1
M  V30 3 1 9 5
M  V30 4 2 12 11
M  V30 5 1 14 2
M  V30 6 1 14 9
M  V30 7 1 15 4
M  V30 8 1 15 11
M  V30 9 1 16 3
M  V30 10 2 16 13
M  V30 11 1 17 6
M  V30 12 1 17 7
M  V30 13 1 19 1
M  V30 14 2 20 19
M  V30 15 1 21 4
M  V30 16 1 23 3
M  V30 17 1 24 11
M  V30 18 2 25 11
M  V30 19 1 26 19
M  V30 20 2 26 22
M  V30 21 1 27 15
M  V30 22 1 27 18
M  V30 23 1 28 8
M  V30 24 2 28 9
M  V30 25 1 28 10
M  V30 26 1 29 5
M  V30 27 2 29 8
M  V30 28 1 30 18
M  V30 29 1 31 13
M  V30 30 2 31 17
M  V30 31 1 31 22
M  V30 32 1 32 14
M  V30 33 1 32 24
M  V30 34 1 33 2
M  V30 35 1 34 4
M  V30 36 1 34 23
M  V30 37 1 34 30
M  V30 38 1 35 2
M  V30 39 1 35 10
M  V30 40 1 36 1
M  V30 41 1 37 1
M  V30 42 1 2 38 CFG=3
M  V30 43 1 4 39 CFG=1
M  V30 44 1 40 6
M  V30 45 1 41 7
M  V30 46 1 42 7
M  V30 47 1 43 10
M  V30 48 1 44 10
M  V30 49 1 45 13
M  V30 50 1 14 46 CFG=3
M  V30 51 1 47 16
M  V30 52 1 48 18
M  V30 53 1 49 18
M  V30 54 1 50 22
M  V30 55 1 51 24
M  V30 56 1 52 27
M  V30 57 1 53 27
M  V30 58 1 54 29
M  V30 59 1 55 32
M  V30 60 1 56 33
M  V30 61 1 57 33
M  V30 62 1 34 58 CFG=3
M  V30 63 1 59 35
M  V30 64 1 60 35
M  V30 65 1 61 33
M  V30 END BOND
M  V30 END CTAB
M  END
>  <i_epik_Tot_Q>  (1) 
1

>  <i_epik_Tot_abs_Q>  (1) 
1

>  <i_i_glide_confnum>  (1) 
283

>  <i_i_glide_lignum>  (1) 
62

>  <i_i_glide_posenum>  (1) 
55

>  <i_i_glide_rotatable_bonds>  (1) 
6

>  <i_lp_mmshare_version>  (1) 
72125

>  <i_m_source_file_index>  (1) 
24

>  <i_f3d_flags>  (1) 
0

>  <num_sample>  (1) 
50

>  <b_lp_Chiralities_Consistent>  (1) 
1

>  <r_epik_Charging_Adjusted_Penalty>  (1) 
0.20786405117440027

>  <r_epik_Ionization_Penalty>  (1) 
0.17784020352230567

>  <r_epik_Ionization_Penalty_Charging>  (1) 
0.046839863378715332

>  <r_epik_Ionization_Penalty_Neutral>  (1) 
0.13100034014359035

>  <r_epik_State_Penalty>  (1) 
0.16102418779568495

>  <r_glide_ring_energy>  (1) 
2.0047208920200115

>  <r_i_docking_score>  (1) 
-8.2381657242152819

>  <r_i_glide_ecoul>  (1) 
-5.2892641073145974

>  <r_i_glide_eff_state_penalty>  (1) 
0.16102418779568495

>  <r_i_glide_einternal>  (1) 
6.7858667473156746

>  <r_i_glide_emodel>  (1) 
-83.997888805456242

>  <r_i_glide_emodel_strain>  (1) 
3.6104495063456739

>  <r_i_glide_energy>  (1) 
-57.917917146309023

>  <r_i_glide_erotb>  (1) 
0.32266353053763186

>  <r_i_glide_esite>  (1) 
0

>  <r_i_glide_evdw>  (1) 
-52.628653038994422

>  <r_i_glide_gscore>  (1) 
-8.3991899120109661

>  <r_i_glide_gscore_strain>  (1) 
0

>  <r_i_glide_hbond>  (1) 
0

>  <r_i_glide_ligand_efficiency>  (1) 
-0.23537616354900806

>  <r_i_glide_ligand_efficiency_ln>  (1) 
-1.8084602127025475

>  <r_i_glide_ligand_efficiency_sa>  (1) 
-0.76993103880659997

>  <r_i_glide_lipo>  (1) 
-3.3929994570811965

>  <r_i_glide_metal>  (1) 
-0

>  <r_i_glide_rewards>  (1) 
-1.9040317174204915

>  <r_lp_Energy>  (1) 
46.497914999999999

>  <s_epik_Chemistry_Notes>  (1) 
This compound has an imine and may undergo hydrolysis. This compound contains an acetal/aminal-like group ( X-CH(R)-Y where X, Y are N, S, or O) that may be acid/base labile, releasing an aldehyde.

>  <s_epik_cmdline>  (1) 
J2VwaWtfcHl0aG9uJywgJy1waHQnLCAnMS4wJywgJy1waCcsICc3LjQnLCAnLXRuJywgJzgnLCAnLW1hJywgJzUwMCcsICctaW1hZScsICc8aW5maWxlLm1hZT4nLCAnLW9tYWUnLCAnPG91dGZpbGUubWFlPic=

>  <s_epik_input>  (1) 
W0NIMl0xW0NIMl1DKD1PKU49W0NIXWMoYzEyKVtjSF1bY0hdYyhbY0hdMilTW0NAQEhdM09bQ0gyXVtDSDJdTihbQ0BIXTNDbClTKD1PKSg9TylbTkhdW05IXVtDQEBIXTRbQ0BASF0oW05IMl0pW0NIMl1bQ0gyXWMoYzQ1KW5bY0hdczU=

>  <s_glide_docking_method>  (1) 
confgen

>  <s_i_glide_gridfile>  (1) 
gpcr_5ht2c_6bqh_protein_autoprepared_prepared

>  <s_lp_Force_Field>  (1) 
S-OPLS

>  <s_lp_Variant>  (1) 
DiffSBDD_23_num_sample_50-1

>  <s_m_source_file>  (1) 
generated__ligand_DiffSBDD_2026-05-06_prepared.sdf

>  <GenAI_Model>  (1) 
DiffSBDD

>  <Protein>  (1) 
GPCR_5HT2C

$$$$
DiffSBDD_28_num_sample_50
     RDKit          3D

  0  0  0  0  0  0  0  0  0  0999 V3000
M  V30 BEGIN CTAB
M  V30 COUNTS 93 98 0 0 1
M  V30 BEGIN ATOM
M  V30 1 C 40.962255 29.632175 50.848870 0
M  V30 2 C 40.758343 26.713994 57.895356 0
M  V30 3 O 45.067392 28.576527 69.648901 0
M  V30 4 C 40.828852 29.451096 63.731907 0 CFG=1
M  V30 5 C 41.673446 27.728821 58.583176 0 CFG=2
M  V30 6 C 40.307768 29.833609 66.242522 0
M  V30 7 C 38.843132 30.236491 55.145205 0
M  V30 8 O 44.709973 29.340949 64.604109 0
M  V30 9 C 39.571018 30.117323 50.522548 0
M  V30 10 C 44.149230 29.543992 69.179559 0 CFG=1
M  V30 11 C 37.885587 30.823466 56.019365 0
M  V30 12 N 40.247531 29.495295 59.957109 0
M  V30 13 C 41.959073 28.866192 69.449207 0
M  V30 14 C 37.092131 31.270435 60.705701 0
M  V30 15 C 42.143917 30.120359 70.316719 0
M  V30 16 C 39.525452 27.424438 58.464508 0 CFG=1
M  V30 17 C 39.080058 28.971078 55.624455 0
M  V30 18 O 38.827700 29.810597 59.961407 0
M  V30 19 O 45.467401 30.364292 65.318863 0
M  V30 20 O 43.867404 27.221426 57.853492 0
M  V30 21 C 39.470590 30.886801 53.946242 0
M  V30 22 C 40.663782 30.470574 64.890633 0
M  V30 23 C 40.397567 29.980975 62.336668 0 CFG=2
M  V30 24 C 44.211672 27.956690 66.527351 0
M  V30 25 O 42.635365 28.224566 64.727201 0
M  V30 26 N 38.303333 28.777804 56.757033 0
M  V30 27 C 37.573755 29.918200 56.987355 0
M  V30 28 C 40.442118 28.634955 58.773176 0 CFG=2
M  V30 29 C 38.963079 30.547694 62.264083 0
M  V30 30 C 44.435223 31.015149 69.247915 0
M  V30 31 C 42.876423 28.222826 57.805082 0
M  V30 32 C 38.584602 30.928506 60.817412 0 CFG=2
M  V30 33 O 39.277156 32.105857 60.453936 0
M  V30 34 O 37.871535 25.203522 57.451069 0
M  V30 35 N 43.024911 28.958808 68.456331 0
M  V30 36 C 37.890359 26.279593 56.853024 0
M  V30 37 C 38.266866 27.576206 57.580969 0 CFG=1
M  V30 38 C 43.632533 30.340424 70.345977 0 CFG=2
M  V30 39 C 40.521684 28.881337 61.255341 0
M  V30 40 C 43.652144 28.907050 65.446958 0 CFG=2
M  V30 41 C 40.267397 30.599632 51.766239 0
M  V30 42 C 43.247500 27.721592 67.706718 0
M  V30 43 O 42.202914 29.100985 63.585477 0
M  V30 44 O 39.809327 29.957140 52.939451 0
M  V30 45 H 41.785369 30.021457 50.253688 0
M  V30 46 H 41.067403 28.604782 51.190462 0
M  V30 47 H 40.821778 26.764009 56.807753 0
M  V30 48 H 40.875697 25.688410 58.247173 0
M  V30 49 H 45.878193 28.686029 69.176901 0
M  V30 50 H 40.267409 28.543341 63.947662 0
M  V30 51 H 41.994380 27.335539 59.540090 0
M  V30 52 H 40.362009 30.570265 67.044334 0
M  V30 53 H 39.294994 29.429661 66.239709 0
M  V30 54 H 40.976299 29.016550 66.496570 0
M  V30 55 H 38.751087 29.413766 50.653499 0
M  V30 56 H 39.467404 30.819872 49.698677 0
M  V30 57 H 37.467408 31.817123 55.945246 0
M  V30 58 H 40.974497 28.821446 68.985929 0
M  V30 59 H 42.097605 27.969385 70.055631 0
M  V30 60 H 36.825980 31.556019 59.687001 0
M  V30 61 H 36.467490 30.421442 60.975080 0
M  V30 62 H 36.823343 32.099651 61.361091 0
M  V30 63 H 41.657051 30.984225 69.862943 0
M  V30 64 H 41.743976 29.985226 71.321842 0
M  V30 65 H 39.267338 26.937361 59.404953 0
M  V30 66 H 39.735192 28.191493 55.266364 0
M  V30 67 H 46.164081 29.847743 65.707329 0
M  V30 68 H 43.494499 26.404707 57.534163 0
M  V30 69 H 38.774900 31.630078 53.551745 0
M  V30 70 H 40.366655 31.412522 54.277613 0
M  V30 71 H 41.566857 31.074871 64.976544 0
M  V30 72 H 39.872880 31.186234 64.689727 0
M  V30 73 H 41.080390 30.791785 62.078675 0
M  V30 74 H 44.455439 27.000774 66.063041 0
M  V30 75 H 45.157590 28.336235 66.912124 0
M  V30 76 H 36.896139 29.983219 57.826706 0
M  V30 77 H 40.432006 29.326798 57.932719 0
M  V30 78 H 38.267686 29.804675 62.649096 0
M  V30 79 H 38.843097 31.431300 62.886984 0
M  V30 80 H 43.900961 31.665250 68.557278 0
M  V30 81 H 45.452914 31.323718 69.479466 0
M  V30 82 H 42.616477 28.421430 56.766165 0
M  V30 83 H 43.266756 29.147227 58.229493 0
M  V30 84 H 38.985679 32.355166 59.589781 0
M  V30 85 H 37.645771 26.385879 55.795779 0
M  V30 86 H 37.427281 27.735302 58.253499 0
M  V30 87 H 44.115790 30.199582 71.311413 0
M  V30 88 H 41.529584 28.472800 61.269908 0
M  V30 89 H 39.834960 28.055121 61.444741 0
M  V30 90 H 43.206300 29.786246 65.911571 0
M  V30 91 H 40.655245 31.613081 51.853475 0
M  V30 92 H 42.294701 27.351998 67.326370 0
M  V30 93 H 43.630952 26.943427 68.368123 0
M  V30 END ATOM
M  V30 BEGIN BOND
M  V30 1 1 5 2
M  V30 2 1 9 1
M  V30 3 1 10 3 CFG=1
M  V30 4 1 11 7
M  V30 5 1 15 13
M  V30 6 1 16 2
M  V30 7 2 17 7
M  V30 8 1 18 12
M  V30 9 1 19 8
M  V30 10 1 21 7
M  V30 11 1 22 4
M  V30 12 1 22 6
M  V30 13 1 23 4
M  V30 14 1 26 17
M  V30 15 2 27 11
M  V30 16 1 27 26
M  V30 17 1 28 5
M  V30 18 1 28 12
M  V30 19 1 28 16
M  V30 20 1 29 23
M  V30 21 1 30 10
M  V30 22 1 31 5
M  V30 23 1 31 20
M  V30 24 1 32 14
M  V30 25 1 32 18
M  V30 26 1 32 29
M  V30 27 1 32 33 CFG=3
M  V30 28 1 35 10
M  V30 29 1 35 13
M  V30 30 2 36 34
M  V30 31 1 37 16
M  V30 32 1 37 26
M  V30 33 1 37 36
M  V30 34 1 38 10
M  V30 35 1 38 15
M  V30 36 1 38 30
M  V30 37 1 39 12
M  V30 38 1 39 23
M  V30 39 1 40 8
M  V30 40 1 40 24
M  V30 41 1 40 25
M  V30 42 1 41 1
M  V30 43 1 41 9
M  V30 44 1 42 24
M  V30 45 1 42 35
M  V30 46 1 43 4
M  V30 47 1 43 25
M  V30 48 1 44 21
M  V30 49 1 44 41
M  V30 50 1 45 1
M  V30 51 1 46 1
M  V30 52 1 47 2
M  V30 53 1 48 2
M  V30 54 1 49 3
M  V30 55 1 4 50 CFG=1
M  V30 56 1 5 51 CFG=1
M  V30 57 1 52 6
M  V30 58 1 53 6
M  V30 59 1 54 6
M  V30 60 1 55 9
M  V30 61 1 56 9
M  V30 62 1 57 11
M  V30 63 1 58 13
M  V30 64 1 59 13
M  V30 65 1 60 14
M  V30 66 1 61 14
M  V30 67 1 62 14
M  V30 68 1 63 15
M  V30 69 1 64 15
M  V30 70 1 16 65 CFG=1
M  V30 71 1 66 17
M  V30 72 1 67 19
M  V30 73 1 68 20
M  V30 74 1 69 21
M  V30 75 1 70 21
M  V30 76 1 71 22
M  V30 77 1 72 22
M  V30 78 1 23 73 CFG=3
M  V30 79 1 74 24
M  V30 80 1 75 24
M  V30 81 1 76 27
M  V30 82 1 28 77 CFG=3
M  V30 83 1 78 29
M  V30 84 1 79 29
M  V30 85 1 80 30
M  V30 86 1 81 30
M  V30 87 1 82 31
M  V30 88 1 83 31
M  V30 89 1 84 33
M  V30 90 1 85 36
M  V30 91 1 37 86 CFG=1
M  V30 92 1 38 87 CFG=1
M  V30 93 1 88 39
M  V30 94 1 89 39
M  V30 95 1 40 90 CFG=1
M  V30 96 1 91 41
M  V30 97 1 92 42
M  V30 98 1 93 42
M  V30 END BOND
M  V30 END CTAB
M  END
>  <i_epik_Tot_Q>  (1) 
0

>  <i_epik_Tot_abs_Q>  (1) 
0

>  <i_i_glide_confnum>  (1) 
5194

>  <i_i_glide_lignum>  (1) 
71

>  <i_i_glide_posenum>  (1) 
196

>  <i_i_glide_rotatable_bonds>  (1) 
21

>  <i_lp_mmshare_version>  (1) 
72125

>  <i_m_source_file_index>  (1) 
29

>  <i_f3d_flags>  (1) 
2

>  <num_sample>  (1) 
50

>  <b_lp_Chiralities_Consistent>  (1) 
0

>  <r_epik_Charging_Adjusted_Penalty>  (1) 
0.25482057645041689

>  <r_epik_Ionization_Penalty>  (1) 
0.26872052639311422

>  <r_epik_Ionization_Penalty_Charging>  (1) 
0

>  <r_epik_Ionization_Penalty_Neutral>  (1) 
0.26872052639311422

>  <r_epik_State_Penalty>  (1) 
0.25482057645041689

>  <r_glide_ring_energy>  (1) 
0

>  <r_i_docking_score>  (1) 
-8.2109786597694185

>  <r_i_glide_ecoul>  (1) 
-9.1155040407253871

>  <r_i_glide_eff_state_penalty>  (1) 
0.25482057645041689

>  <r_i_glide_einternal>  (1) 
16.478937374466771

>  <r_i_glide_emodel>  (1) 
-82.977419747022523

>  <r_i_glide_emodel_strain>  (1) 
0.63732031251251442

>  <r_i_glide_energy>  (1) 
-62.998805978121254

>  <r_i_glide_erotb>  (1) 
0.67974203347384798

>  <r_i_glide_esite>  (1) 
-0.0095504370709240012

>  <r_i_glide_evdw>  (1) 
-53.883301937395871

>  <r_i_glide_gscore>  (1) 
-8.4657992362198353

>  <r_i_glide_gscore_strain>  (1) 
0

>  <r_i_glide_hbond>  (1) 
-0.60799999999999998

>  <r_i_glide_ligand_efficiency>  (1) 
-0.18661315135839587

>  <r_i_glide_ligand_efficiency_ln>  (1) 
-1.7162736613859115

>  <r_i_glide_ligand_efficiency_sa>  (1) 
-0.65880942824806366

>  <r_i_glide_lipo>  (1) 
-3.3769167099538402

>  <r_i_glide_metal>  (1) 
-0

>  <r_i_glide_rewards>  (1) 
-1.0895834196903171

>  <r_lp_Energy>  (1) 
27.722360999999999

>  <s_epik_Chemistry_Notes>  (1) 
This compound contains an acetal/aminal-like group ( X-CH(R)-Y where X, Y are N, S, or O) that may be acid/base labile, releasing an aldehyde. This compound has a N-S or N-O group and may undergo hydrolysis at high or low pH.

>  <s_epik_cmdline>  (1) 
J2VwaWtfcHl0aG9uJywgJy1waHQnLCAnMS4wJywgJy1waCcsICc3LjQnLCAnLXRuJywgJzgnLCAnLW1hJywgJzUwMCcsICctaW1hZScsICc8aW5maWxlLm1hZT4nLCAnLW9tYWUnLCAnPG91dGZpbGUubWFlPic=

>  <s_epik_input>  (1) 
W0NIMl0xW0NIMl1bQ0hdMU9bQ0gyXWMyW2NIXVtjSF1uKFtjSF0yKVtDQEBIXShbQ0hdPU8pW0NAQEhdKFtDSDJdW0NASF0zW0NIMl1bT0hdKVtDQEhdM04oT1tDQF00KFtDSDNdKVtPSF0pW0NIMl1bQ0BASF0oW0NIMl00KVtDQEhdKFtDSDJdW0NIM10pT09bQ0BIXShPW09IXSlbQ0gyXVtDSDJdTjVbQ0gyXVtDSDJdW0NASF0oW0NIMl02KVtDQEBdNTZbT0hd

>  <s_glide_docking_method>  (1) 
confgen

>  <s_i_glide_gridfile>  (1) 
gpcr_5ht2c_6bqh_protein_autoprepared_prepared

>  <s_lp_Force_Field>  (1) 
S-OPLS

>  <s_lp_Variant>  (1) 
DiffSBDD_28_num_sample_50-1

>  <s_m_source_file>  (1) 
generated__ligand_DiffSBDD_2026-05-06_prepared.sdf

>  <GenAI_Model>  (1) 
DiffSBDD

>  <Protein>  (1) 
GPCR_5HT2C

$$$$
DiffSBDD_44_num_sample_50
     RDKit          3D

  0  0  0  0  0  0  0  0  0  0999 V3000
M  V30 BEGIN CTAB
M  V30 COUNTS 65 67 0 0 1
M  V30 BEGIN ATOM
M  V30 1 C 36.935546 37.621681 62.183509 0
M  V30 2 C 39.226897 28.196846 56.438852 0
M  V30 3 C 40.238162 34.450855 62.455835 0
M  V30 4 O 36.979967 31.221348 61.418845 0
M  V30 5 O 38.004610 39.464974 61.052632 0
M  V30 6 C 39.653046 34.138426 61.110361 0
M  V30 7 F 42.388241 32.978458 65.064431 0
M  V30 8 C 38.057437 26.499301 55.096837 0
M  V30 9 C 38.667370 28.176513 58.990347 0 CFG=2
M  V30 10 O 36.667404 24.876790 56.036358 0
M  V30 11 C 37.994604 36.988411 63.103568 0
M  V30 12 C 41.597262 33.860506 64.411390 0
M  V30 13 C 37.516324 38.338821 60.966554 0
M  V30 14 C 38.713067 27.673802 55.163978 0
M  V30 15 O 39.867288 29.242822 56.516946 0
M  V30 16 O 39.158222 36.598450 62.389870 0
M  V30 17 O 40.707304 29.867189 61.998739 0
M  V30 18 C 37.756787 26.314258 57.490008 0
M  V30 19 C 36.482729 32.542733 61.250002 0
M  V30 20 C 37.467376 37.597045 59.637447 0
M  V30 21 O 39.921438 28.565486 59.526649 0
M  V30 22 C 41.306415 35.103123 64.993225 0
M  V30 23 C 38.912195 27.343288 57.703111 0 CFG=1
M  V30 24 C 39.444874 31.728791 61.316764 0 CFG=2
M  V30 25 C 41.069026 33.530065 63.149713 0
M  V30 26 C 38.147711 30.742948 59.273535 0
M  V30 27 C 39.959627 35.701280 63.048310 0
M  V30 28 C 38.094341 27.221468 53.074406 0
M  V30 29 C 37.647449 29.357878 58.839218 0
M  V30 30 O 37.647516 26.164073 53.851655 0
M  V30 31 N 37.806728 25.674471 56.182393 0
M  V30 32 O 40.667490 31.025183 61.118510 0
M  V30 33 C 40.488705 36.021421 64.315523 0
M  V30 34 C 38.236143 30.893845 60.811672 0 CFG=2
M  V30 35 N 39.505734 32.982618 60.593484 0
M  V30 36 C 38.745124 28.162574 53.838101 0
M  V30 37 H 36.268627 36.843964 61.814840 0
M  V30 38 H 36.309183 38.311598 62.748780 0
M  V30 39 H 39.313373 35.006666 60.541936 0
M  V30 40 H 38.267657 27.501092 59.745552 0
M  V30 41 H 35.978707 25.461941 55.755887 0
M  V30 42 H 37.541373 36.103800 63.540445 0
M  V30 43 H 38.250778 37.621435 63.944871 0
M  V30 44 H 40.328474 29.209057 61.426261 0
M  V30 45 H 37.805505 25.538928 58.254551 0
M  V30 46 H 36.794675 26.815066 57.605232 0
M  V30 47 H 36.498353 32.877214 60.213628 0
M  V30 48 H 35.447252 32.583120 61.588856 0
M  V30 49 H 37.046885 33.251587 61.853829 0
M  V30 50 H 38.055773 36.684063 59.698164 0
M  V30 51 H 36.441121 37.323885 59.391465 0
M  V30 52 H 37.867504 38.216812 58.836119 0
M  V30 53 H 40.527686 27.843855 59.441860 0
M  V30 54 H 41.712254 35.353756 65.961770 0
M  V30 55 H 39.808211 26.740639 57.858923 0
M  V30 56 H 39.276096 31.877509 62.384510 0
M  V30 57 H 41.312976 32.580278 62.715585 0
M  V30 58 H 37.500213 31.507401 58.847954 0
M  V30 59 H 39.114118 30.919805 58.807874 0
M  V30 60 H 37.867761 27.142196 52.020992 0
M  V30 61 H 36.737612 29.163725 59.403380 0
M  V30 62 H 37.300692 29.437943 57.809350 0
M  V30 63 H 40.266980 36.976481 64.767068 0
M  V30 64 H 38.386927 29.894514 61.209776 0
M  V30 65 H 39.186066 29.081929 53.479872 0
M  V30 END ATOM
M  V30 BEGIN BOND
M  V30 1 1 6 3
M  V30 2 1 11 1
M  V30 3 1 12 7
M  V30 4 1 13 1
M  V30 5 2 13 5
M  V30 6 1 14 2
M  V30 7 2 14 8
M  V30 8 2 15 2
M  V30 9 1 16 11
M  V30 10 1 19 4
M  V30 11 1 20 13
M  V30 12 1 21 9
M  V30 13 1 22 12
M  V30 14 1 23 2
M  V30 15 1 23 9
M  V30 16 1 23 18
M  V30 17 1 25 3
M  V30 18 2 25 12
M  V30 19 2 27 3
M  V30 20 1 27 16
M  V30 21 1 29 9
M  V30 22 1 29 26
M  V30 23 1 30 8
M  V30 24 1 30 28
M  V30 25 1 31 8
M  V30 26 1 31 10
M  V30 27 1 31 18
M  V30 28 1 32 17
M  V30 29 1 32 24
M  V30 30 2 33 22
M  V30 31 1 33 27
M  V30 32 1 34 4
M  V30 33 1 34 24
M  V30 34 1 34 26
M  V30 35 2 35 6
M  V30 36 1 35 24
M  V30 37 1 36 14
M  V30 38 2 36 28
M  V30 39 1 37 1
M  V30 40 1 38 1
M  V30 41 1 39 6
M  V30 42 1 9 40 CFG=1
M  V30 43 1 41 10
M  V30 44 1 42 11
M  V30 45 1 43 11
M  V30 46 1 44 17
M  V30 47 1 45 18
M  V30 48 1 46 18
M  V30 49 1 47 19
M  V30 50 1 48 19
M  V30 51 1 49 19
M  V30 52 1 50 20
M  V30 53 1 51 20
M  V30 54 1 52 20
M  V30 55 1 53 21
M  V30 56 1 54 22
M  V30 57 1 23 55 CFG=1
M  V30 58 1 24 56 CFG=1
M  V30 59 1 57 25
M  V30 60 1 58 26
M  V30 61 1 59 26
M  V30 62 1 60 28
M  V30 63 1 61 29
M  V30 64 1 62 29
M  V30 65 1 63 33
M  V30 66 1 34 64 CFG=1
M  V30 67 1 65 36
M  V30 END BOND
M  V30 END CTAB
M  END
>  <i_epik_Tot_Q>  (1) 
0

>  <i_epik_Tot_abs_Q>  (1) 
0

>  <i_i_glide_confnum>  (1) 
4197

>  <i_i_glide_lignum>  (1) 
103

>  <i_i_glide_posenum>  (1) 
206

>  <i_i_glide_rotatable_bonds>  (1) 
16

>  <i_lp_mmshare_version>  (1) 
72125

>  <i_m_source_file_index>  (1) 
45

>  <i_f3d_flags>  (1) 
0

>  <num_sample>  (1) 
50

>  <b_lp_Chiralities_Consistent>  (1) 
1

>  <r_epik_Charging_Adjusted_Penalty>  (1) 
0

>  <r_epik_Ionization_Penalty>  (1) 
0.00046426775496228489

>  <r_epik_Ionization_Penalty_Charging>  (1) 
0

>  <r_epik_Ionization_Penalty_Neutral>  (1) 
0.00046426775496228489

>  <r_epik_State_Penalty>  (1) 
-0

>  <r_glide_ring_energy>  (1) 
0

>  <r_i_docking_score>  (1) 
-8.1771150036620739

>  <r_i_glide_ecoul>  (1) 
-6.9998815053993795

>  <r_i_glide_eff_state_penalty>  (1) 
-0

>  <r_i_glide_einternal>  (1) 
21.635408776613762

>  <r_i_glide_emodel>  (1) 
-70.633737615175619

>  <r_i_glide_emodel_strain>  (1) 
4.1402247060646005

>  <r_i_glide_energy>  (1) 
-56.262409505273922

>  <r_i_glide_erotb>  (1) 
0.87096195952989475

>  <r_i_glide_esite>  (1) 
-0.05757942982884056

>  <r_i_glide_evdw>  (1) 
-49.262527999874543

>  <r_i_glide_gscore>  (1) 
-8.1771150036620739

>  <r_i_glide_gscore_strain>  (1) 
0.035056176516150117

>  <r_i_glide_hbond>  (1) 
-0.32000000000000001

>  <r_i_glide_ligand_efficiency>  (1) 
-0.2271420834350576

>  <r_i_glide_ligand_efficiency_ln>  (1) 
-1.7840255736821311

>  <r_i_glide_ligand_efficiency_sa>  (1) 
-0.75000663466491369

>  <r_i_glide_lipo>  (1) 
-3.3774552692571023

>  <r_i_glide_metal>  (1) 
-0

>  <r_i_glide_rewards>  (1) 
-1.8149898148185419

>  <r_lp_Energy>  (1) 
33.654626

>  <r_lp_tautomer_probability>  (1) 
1

>  <s_epik_Chemistry_Notes>  (1) 
This compound has an imine and may undergo hydrolysis. This compound contains an acetal/aminal-like group ( X-CH(R)-Y where X, Y are N, S, or O) that may be acid/base labile, releasing an aldehyde. This compound has a N-S or N-O group and may undergo hydrolysis at high or low pH.

>  <s_epik_cmdline>  (1) 
J2VwaWtfcHl0aG9uJywgJy1waHQnLCAnMS4wJywgJy1waCcsICc3LjQnLCAnLXRuJywgJzgnLCAnLW1hJywgJzUwMCcsICctaW1hZScsICc8aW5maWxlLm1hZT4nLCAnLW9tYWUnLCAnPG91dGZpbGUubWFlPic=

>  <s_epik_input>  (1) 
Tz1DKFtDSDNdKVtDSDJdW0NIMl1PYzFbY0hdW2NIXWMoRilbY0hdYzEvW0NIXT1OXFtDQEhdKE9bT0hdKVtDQEBIXShPW0NIM10pW0NIMl1bQ0gyXVtDQEhdKFtPSF0pW0NAQEhdKFtDSDJdTjJbT0hdKUMoPU8pYyhjMjMpW2NIXVtjSF1vMw==

>  <s_glide_docking_method>  (1) 
confgen

>  <s_i_glide_gridfile>  (1) 
gpcr_5ht2c_6bqh_protein_autoprepared_prepared

>  <s_lp_Force_Field>  (1) 
S-OPLS

>  <s_lp_Variant>  (1) 
DiffSBDD_44_num_sample_50-2

>  <s_m_source_file>  (1) 
generated__ligand_DiffSBDD_2026-05-06_prepared.sdf

>  <GenAI_Model>  (1) 
DiffSBDD

>  <Protein>  (1) 
GPCR_5HT2C

$$$$
DiffSBDD_7_num_sample_50
     RDKit          3D

  0  0  0  0  0  0  0  0  0  0999 V3000
M  V30 BEGIN CTAB
M  V30 COUNTS 93 96 0 0 1
M  V30 BEGIN ATOM
M  V30 1 C 39.217315 26.196357 56.507185 0 CFG=1
M  V30 2 O 40.566107 30.284402 61.162071 0
M  V30 3 C 38.727657 29.528971 55.162934 0 CFG=1
M  V30 4 C 39.129038 33.542981 60.831865 0
M  V30 5 O 37.086383 25.692079 57.453211 0 CHG=-1
M  V30 6 N 40.797020 33.542289 65.668606 0
M  V30 7 S 40.667445 29.243450 65.762392 0
M  V30 8 N 41.066457 26.273661 67.053198 0
M  V30 9 N 38.697055 32.153542 60.518434 0 CFG=1 CHG=1
M  V30 10 S 42.357972 26.793541 64.871471 0
M  V30 11 C 41.079728 33.857033 66.944971 0
M  V30 12 C 39.520612 28.975160 52.604409 0
M  V30 13 C 40.776913 28.901803 60.869599 0
M  V30 14 C 39.657411 30.523916 62.239207 0 CFG=1
M  V30 15 C 42.121493 28.134295 66.096486 0 CFG=2
M  V30 16 N 41.292799 34.021478 68.068929 0
M  V30 17 O 40.372421 33.441126 62.929137 0
M  V30 18 C 38.810886 30.803463 55.989438 0
M  V30 19 O 41.866544 27.159247 70.430023 0
M  V30 20 C 37.167623 27.716836 53.919903 0
M  V30 21 C 40.356303 31.060333 63.523032 0 CFG=2
M  V30 22 C 42.703119 26.368505 69.609280 0 CFG=1
M  V30 23 O 37.615826 24.724212 55.516371 0
M  V30 24 C 41.777635 27.466189 67.455489 0 CFG=2
M  V30 25 O 40.667153 24.821509 65.300246 0
M  V30 26 C 41.175709 32.387470 63.450336 0 CFG=2
M  V30 27 C 39.201738 27.703175 56.718405 0
M  V30 28 C 37.854768 25.477750 56.487025 0
M  V30 29 C 39.036556 29.752257 58.211252 0
M  V30 30 C 38.193051 30.704964 57.383835 0 CFG=1
M  V30 31 C 38.128575 32.107452 58.050767 0
M  V30 32 C 38.427359 31.336450 61.737757 0
M  V30 33 C 38.945704 28.281514 57.909589 0
M  V30 34 C 43.019477 27.118640 68.299719 0
M  V30 35 C 40.218278 25.722805 55.450735 0
M  V30 36 C 37.534654 29.143076 54.300636 0 CFG=2
M  V30 37 C 40.498503 33.611634 61.520146 0
M  V30 38 C 41.683208 32.774873 64.859766 0
M  V30 39 C 37.591717 32.135291 59.505173 0
M  V30 40 O 40.727752 30.411308 66.749826 0
M  V30 41 C 41.208007 29.966824 64.174295 0
M  V30 42 C 43.972772 26.043703 70.405132 0
M  V30 43 C 38.750522 29.762067 53.650070 0 CFG=1
M  V30 44 C 41.219675 25.794406 65.787038 0
M  V30 45 O 42.254200 29.604964 63.636822 0
M  V30 46 O 42.775941 32.421851 65.294860 0
M  V30 47 O 39.556201 28.434534 55.589320 0
M  V30 48 H 39.648831 25.841469 57.444054 0
M  V30 49 H 38.370832 34.059577 61.421701 0
M  V30 50 H 39.206950 34.091253 59.891786 0
M  V30 51 H 39.903840 33.831901 65.302936 0
M  V30 52 H 40.432519 25.797452 67.679063 0
M  V30 53 H 39.848547 28.008197 52.980653 0
M  V30 54 H 38.881364 28.797511 51.739660 0
M  V30 55 H 40.386606 29.540257 52.257537 0
M  V30 56 H 41.390042 28.803366 59.973193 0
M  V30 57 H 41.291391 28.376736 61.671645 0
M  V30 58 H 39.837398 28.379055 60.689463 0
M  V30 59 H 39.221788 29.569383 62.544650 0
M  V30 60 H 43.017882 28.751706 66.163692 0
M  V30 61 H 38.296749 31.600119 55.448856 0
M  V30 62 H 39.856310 31.108853 56.050044 0
M  V30 63 H 41.008258 27.228431 70.028196 0
M  V30 64 H 36.507637 27.715002 53.054629 0
M  V30 65 H 36.667333 27.217231 54.732377 0
M  V30 66 H 38.036316 27.102612 53.695190 0
M  V30 67 H 39.548647 31.222211 64.233431 0
M  V30 68 H 42.183080 25.435204 69.390954 0
M  V30 69 H 41.119563 28.101340 68.048859 0
M  V30 70 H 42.078664 32.246618 62.852355 0
M  V30 71 H 40.089422 30.021300 58.186548 0
M  V30 72 H 38.728877 29.815094 59.248882 0
M  V30 73 H 37.176455 30.315062 57.306611 0
M  V30 74 H 37.467391 32.725960 57.442199 0
M  V30 75 H 39.099095 32.600132 57.995735 0
M  V30 76 H 37.994069 31.946338 62.530871 0
M  V30 77 H 37.657734 30.602370 61.501608 0
M  V30 78 H 38.702743 27.645901 58.749052 0
M  V30 79 H 43.556836 28.039537 68.533000 0
M  V30 80 H 43.705342 26.516228 67.700937 0
M  V30 81 H 39.782886 25.525410 54.471045 0
M  V30 82 H 41.036404 26.429722 55.321089 0
M  V30 83 H 40.667241 24.822791 55.853943 0
M  V30 84 H 36.667578 29.790840 54.409339 0
M  V30 85 H 40.933566 34.598223 61.358224 0
M  V30 86 H 41.179042 32.900549 61.054801 0
M  V30 87 H 36.919039 31.286076 59.633194 0
M  V30 88 H 36.959121 33.013467 59.649922 0
M  V30 89 H 44.643116 25.401843 69.833022 0
M  V30 90 H 44.520358 26.950641 70.664056 0
M  V30 91 H 43.732221 25.524330 71.333147 0
M  V30 92 H 38.658015 30.804730 53.355706 0
M  V30 93 H 39.470402 31.680943 60.068976 0
M  V30 END ATOM
M  V30 BEGIN BOND
M  V30 1 1 9 4
M  V30 2 1 11 6
M  V30 3 1 13 2
M  V30 4 1 14 2
M  V30 5 1 15 7
M  V30 6 1 15 10
M  V30 7 3 16 11
M  V30 8 1 18 3
M  V30 9 1 21 14
M  V30 10 1 22 19
M  V30 11 1 24 8
M  V30 12 1 24 15
M  V30 13 1 26 17
M  V30 14 1 26 21
M  V30 15 1 27 1
M  V30 16 1 28 1
M  V30 17 1 28 5
M  V30 18 2 28 23
M  V30 19 1 30 18
M  V30 20 1 30 29
M  V30 21 1 31 30
M  V30 22 1 32 9
M  V30 23 1 32 14
M  V30 24 2 33 27
M  V30 25 1 33 29
M  V30 26 1 34 22
M  V30 27 1 34 24
M  V30 28 1 35 1
M  V30 29 1 36 3
M  V30 30 1 36 20
M  V30 31 1 37 4
M  V30 32 1 37 17
M  V30 33 1 38 6
M  V30 34 1 38 26
M  V30 35 1 39 9
M  V30 36 1 39 31
M  V30 37 2 40 7
M  V30 38 1 7 41 CFG=3
M  V30 39 1 41 21
M  V30 40 1 42 22
M  V30 41 1 43 3
M  V30 42 1 43 12
M  V30 43 1 43 36
M  V30 44 1 44 8
M  V30 45 1 44 10
M  V30 46 2 44 25
M  V30 47 2 45 41
M  V30 48 2 46 38
M  V30 49 1 3 47 CFG=1
M  V30 50 1 47 27
M  V30 51 1 1 48 CFG=1
M  V30 52 1 49 4
M  V30 53 1 50 4
M  V30 54 1 51 6
M  V30 55 1 52 8
M  V30 56 1 53 12
M  V30 57 1 54 12
M  V30 58 1 55 12
M  V30 59 1 56 13
M  V30 60 1 57 13
M  V30 61 1 58 13
M  V30 62 1 14 59 CFG=1
M  V30 63 1 15 60 CFG=1
M  V30 64 1 61 18
M  V30 65 1 62 18
M  V30 66 1 63 19
M  V30 67 1 64 20
M  V30 68 1 65 20
M  V30 69 1 66 20
M  V30 70 1 21 67 CFG=1
M  V30 71 1 22 68 CFG=3
M  V30 72 1 24 69 CFG=1
M  V30 73 1 26 70 CFG=3
M  V30 74 1 71 29
M  V30 75 1 72 29
M  V30 76 1 30 73 CFG=3
M  V30 77 1 74 31
M  V30 78 1 75 31
M  V30 79 1 76 32
M  V30 80 1 77 32
M  V30 81 1 78 33
M  V30 82 1 79 34
M  V30 83 1 80 34
M  V30 84 1 81 35
M  V30 85 1 82 35
M  V30 86 1 83 35
M  V30 87 1 36 84 CFG=1
M  V30 88 1 85 37
M  V30 89 1 86 37
M  V30 90 1 87 39
M  V30 91 1 88 39
M  V30 92 1 89 42
M  V30 93 1 90 42
M  V30 94 1 91 42
M  V30 95 1 43 92 CFG=1
M  V30 96 1 9 93 CFG=3
M  V30 END BOND
M  V30 END CTAB
M  END
>  <i_epik_Tot_Q>  (1) 
0

>  <i_epik_Tot_abs_Q>  (1) 
2

>  <i_i_glide_confnum>  (1) 
2032

>  <i_i_glide_lignum>  (1) 
25

>  <i_i_glide_posenum>  (1) 
18

>  <i_i_glide_rotatable_bonds>  (1) 
14

>  <i_lp_mmshare_version>  (1) 
72125

>  <i_m_source_file_index>  (1) 
8

>  <i_f3d_flags>  (1) 
0

>  <num_sample>  (1) 
50

>  <b_lp_Chiralities_Consistent>  (1) 
1

>  <r_epik_Charging_Adjusted_Penalty>  (1) 
2.2678334573304797

>  <r_epik_Ionization_Penalty>  (1) 
1.1498882506810455

>  <r_epik_Ionization_Penalty_Charging>  (1) 
1.1031410554290029

>  <r_epik_Ionization_Penalty_Neutral>  (1) 
0.046747195252042517

>  <r_epik_State_Penalty>  (1) 
1.164692401901477

>  <r_glide_ring_energy>  (1) 
0

>  <r_i_docking_score>  (1) 
-8.1669586476005946

>  <r_i_glide_ecoul>  (1) 
-8.0019030623900793

>  <r_i_glide_eff_state_penalty>  (1) 
1.164692401901477

>  <r_i_glide_einternal>  (1) 
9.1911245843587537

>  <r_i_glide_emodel>  (1) 
-96.257001831751367

>  <r_i_glide_emodel_strain>  (1) 
1.2129272619737179

>  <r_i_glide_energy>  (1) 
-63.943643931059121

>  <r_i_glide_erotb>  (1) 
0.2643022598508753

>  <r_i_glide_esite>  (1) 
-0.0071053105546116189

>  <r_i_glide_evdw>  (1) 
-55.941740868669044

>  <r_i_glide_gscore>  (1) 
-9.3316510495020726

>  <r_i_glide_gscore_strain>  (1) 
0

>  <r_i_glide_hbond>  (1) 
-0.48534832476243905

>  <r_i_glide_ligand_efficiency>  (1) 
-0.17376507760852328

>  <r_i_glide_ligand_efficiency_ln>  (1) 
-1.6838577540858961

>  <r_i_glide_ligand_efficiency_sa>  (1) 
-0.62708794389096334

>  <r_i_glide_lipo>  (1) 
-2.8908194751519494

>  <r_i_glide_metal>  (1) 
-0

>  <r_i_glide_rewards>  (1) 
-2.2153076960919846

>  <r_lp_Energy>  (1) 
33.837415

>  <s_epik_Chemistry_Notes>  (1) 
This compound contains an acetal/aminal-like group ( X-CH(R)-Y where X, Y are N, S, or O) that may be acid/base labile, releasing an aldehyde.

>  <s_epik_cmdline>  (1) 
J2VwaWtfcHl0aG9uJywgJy1waHQnLCAnMS4wJywgJy1waCcsICc3LjQnLCAnLXRuJywgJzgnLCAnLW1hJywgJzUwMCcsICctaW1hZScsICc8aW5maWxlLm1hZT4nLCAnLW9tYWUnLCAnPG91dGZpbGUubWFlPic=

>  <s_epik_input>  (1) 
W09IXUMoPU8pW0NAQEhdKFtDSDNdKUMoTzEpPVtDSF1bQ0gyXVtDQEhdKFtDSDJdW0NAXTEyW0NASF0oW0NIM10pW0NAQEhdMltDSDNdKVtDSDJdW0NIMl1OM1tDSDJdW0NIMl1PW0NAQEhdKEMoPU8pW05IXUMjTilbQ0BASF0oW0NAQEhdKFtDSDJdMylPW0NIM10pQyg9TylTKD1PKVtDQEBIXTRTQyg9TylbTkhdW0NASF00W0NIMl1bQ0BIXShbT0hdKVtDSDNd

>  <s_glide_docking_method>  (1) 
confgen

>  <s_i_glide_gridfile>  (1) 
gpcr_5ht2c_6bqh_protein_autoprepared_prepared

>  <s_lp_Force_Field>  (1) 
S-OPLS

>  <s_lp_Variant>  (1) 
DiffSBDD_7_num_sample_50-3

>  <s_m_source_file>  (1) 
generated__ligand_DiffSBDD_2026-05-06_prepared.sdf

>  <GenAI_Model>  (1) 
DiffSBDD

>  <Protein>  (1) 
GPCR_5HT2C

$$$$
DiffSBDD_2_num_sample_50
     RDKit          3D

  0  0  0  0  0  0  0  0  0  0999 V3000
M  V30 BEGIN CTAB
M  V30 COUNTS 69 73 0 0 1
M  V30 BEGIN ATOM
M  V30 1 C 38.782855 32.740539 60.641250 0
M  V30 2 C 39.018614 29.281524 54.398282 0
M  V30 3 C 40.125403 28.467826 61.426235 0
M  V30 4 C 35.827404 29.979539 58.959918 0
M  V30 5 F 39.758991 30.074034 52.279936 0
M  V30 6 C 39.533376 30.418311 53.549071 0
M  V30 7 C 39.212906 31.508086 60.759006 0
M  V30 8 C 40.552817 32.650628 61.758842 0
M  V30 9 C 37.784523 31.874083 57.666941 0
M  V30 10 C 39.091435 28.822453 60.340664 0 CFG=1
M  V30 11 C 39.481270 34.994465 61.930854 0
M  V30 12 C 42.353936 31.719541 64.989613 0 CFG=2
M  V30 13 C 38.661448 25.170456 57.462465 0
M  V30 14 C 38.443440 28.415614 56.605269 0
M  V30 15 C 38.416863 35.962931 61.453087 0
M  V30 16 C 40.704342 28.970586 58.481194 0
M  V30 17 C 38.332612 28.644560 58.122840 0 CFG=2
M  V30 18 C 40.221346 35.216693 63.030845 0
M  V30 19 O 43.588850 31.168382 65.382367 0
M  V30 20 O 39.067410 32.414518 57.586538 0
M  V30 21 C 38.156067 27.012225 54.608601 0
M  V30 22 F 38.666955 31.427098 53.611592 0
M  V30 23 O 41.561489 30.895813 64.134299 0
M  V30 24 C 38.630607 28.064509 53.806257 0
M  V30 25 C 42.267809 31.978709 63.502466 0 CFG=1
M  V30 26 C 38.930993 29.448821 55.787344 0
M  V30 27 P 37.615526 30.287084 58.700939 0 CFG=2 CHG=1
M  V30 28 C 41.216421 34.257255 63.501025 0
M  V30 29 C 38.416211 30.252087 60.383211 0 CFG=2
M  V30 30 C 37.534920 26.013746 56.852414 0
M  V30 31 C 39.717616 33.781734 61.065242 0 CFG=2
M  V30 32 N 40.464050 31.423487 61.336286 0
M  V30 33 N 39.483333 28.359427 58.983178 0
M  V30 34 C 38.056722 27.173206 56.008374 0
M  V30 35 F 40.667418 30.821537 54.100116 0
M  V30 36 C 41.387595 33.036997 62.931367 0
M  V30 37 H 37.817428 33.004615 60.239484 0
M  V30 38 H 39.768843 28.756753 62.414723 0
M  V30 39 H 40.295842 27.394824 61.447412 0
M  V30 40 H 41.095334 28.936400 61.275405 0
M  V30 41 H 35.638521 29.221927 59.716035 0
M  V30 42 H 35.286880 30.892946 59.204230 0
M  V30 43 H 35.467410 29.621418 58.009076 0
M  V30 44 H 37.111699 32.646113 58.042310 0
M  V30 45 H 37.467701 31.675317 56.643748 0
M  V30 46 H 38.268371 28.144269 60.570248 0
M  V30 47 H 41.814401 32.316850 65.723977 0
M  V30 48 H 38.257530 24.259657 57.902048 0
M  V30 49 H 39.385769 24.870607 56.704531 0
M  V30 50 H 39.197076 25.713877 58.238769 0
M  V30 51 H 37.447870 35.466619 61.396077 0
M  V30 52 H 38.318774 36.816199 62.124868 0
M  V30 53 H 38.663579 36.340508 60.461484 0
M  V30 54 H 41.539310 28.856866 59.171371 0
M  V30 55 H 41.003652 28.497322 57.545034 0
M  V30 56 H 40.541538 30.021366 58.282473 0
M  V30 57 H 37.580709 27.949091 58.466902 0
M  V30 58 H 40.051790 36.115934 63.605484 0
M  V30 59 H 43.422667 30.460449 65.985891 0
M  V30 60 H 39.160715 32.842985 56.747089 0
M  V30 61 H 37.863881 26.077908 54.150268 0
M  V30 62 H 38.700675 27.936069 52.737045 0
M  V30 63 H 43.067243 31.647895 62.843687 0
M  V30 64 H 39.241896 30.377717 56.224223 0
M  V30 65 H 41.790621 34.502784 64.382588 0
M  V30 66 H 37.629798 30.226483 61.132888 0
M  V30 67 H 36.803555 26.317754 57.597935 0
M  V30 68 H 36.963754 25.362005 56.189412 0
M  V30 69 H 40.245277 34.131278 60.178860 0
M  V30 END ATOM
M  V30 BEGIN BOND
M  V30 1 1 6 2
M  V30 2 1 6 5
M  V30 3 2 7 1
M  V30 4 1 10 3
M  V30 5 1 15 11
M  V30 6 1 17 14
M  V30 7 2 18 11
M  V30 8 1 19 12
M  V30 9 1 20 9
M  V30 10 1 22 6
M  V30 11 1 23 12
M  V30 12 1 24 2
M  V30 13 2 24 21
M  V30 14 1 25 12
M  V30 15 1 25 23
M  V30 16 2 26 2
M  V30 17 1 26 14
M  V30 18 1 27 4 CFG=1
M  V30 19 1 27 9
M  V30 20 1 27 17
M  V30 21 1 28 18
M  V30 22 1 29 7
M  V30 23 1 29 10
M  V30 24 1 29 27
M  V30 25 1 30 13
M  V30 26 1 31 1
M  V30 27 1 31 8
M  V30 28 1 31 11
M  V30 29 1 32 7
M  V30 30 2 32 8
M  V30 31 1 33 10
M  V30 32 1 33 16
M  V30 33 1 33 17
M  V30 34 2 34 14
M  V30 35 1 34 21
M  V30 36 1 34 30
M  V30 37 1 35 6
M  V30 38 1 36 8
M  V30 39 1 36 25
M  V30 40 2 36 28
M  V30 41 1 37 1
M  V30 42 1 38 3
M  V30 43 1 39 3
M  V30 44 1 40 3
M  V30 45 1 41 4
M  V30 46 1 42 4
M  V30 47 1 43 4
M  V30 48 1 44 9
M  V30 49 1 45 9
M  V30 50 1 10 46 CFG=1
M  V30 51 1 12 47 CFG=1
M  V30 52 1 48 13
M  V30 53 1 49 13
M  V30 54 1 50 13
M  V30 55 1 51 15
M  V30 56 1 52 15
M  V30 57 1 53 15
M  V30 58 1 54 16
M  V30 59 1 55 16
M  V30 60 1 56 16
M  V30 61 1 17 57 CFG=1
M  V30 62 1 58 18
M  V30 63 1 59 19
M  V30 64 1 60 20
M  V30 65 1 61 21
M  V30 66 1 62 24
M  V30 67 1 25 63 CFG=3
M  V30 68 1 64 26
M  V30 69 1 65 28
M  V30 70 1 29 66 CFG=1
M  V30 71 1 67 30
M  V30 72 1 68 30
M  V30 73 1 31 69 CFG=3
M  V30 END BOND
M  V30 END CTAB
M  END
>  <i_epik_Tot_Q>  (1) 
1

>  <i_epik_Tot_abs_Q>  (1) 
1

>  <i_i_glide_confnum>  (1) 
49

>  <i_i_glide_lignum>  (1) 
8

>  <i_i_glide_posenum>  (1) 
317

>  <i_i_glide_rotatable_bonds>  (1) 
8

>  <i_lp_mmshare_version>  (1) 
72125

>  <i_m_source_file_index>  (1) 
3

>  <i_f3d_flags>  (1) 
0

>  <num_sample>  (1) 
50

>  <b_lp_Chiralities_Consistent>  (1) 
1

>  <r_epik_Charging_Adjusted_Penalty>  (1) 
0.0033292626678827373

>  <r_epik_Ionization_Penalty>  (1) 
0.0034349233012131116

>  <r_epik_Ionization_Penalty_Charging>  (1) 
0

>  <r_epik_Ionization_Penalty_Neutral>  (1) 
0.0034349233012131116

>  <r_epik_State_Penalty>  (1) 
0.0033292626678827373

>  <r_glide_ring_energy>  (1) 
0

>  <r_i_docking_score>  (1) 
-8.1554305146772474

>  <r_i_glide_ecoul>  (1) 
-3.0680636085478881

>  <r_i_glide_eff_state_penalty>  (1) 
0.0033292626678827373

>  <r_i_glide_einternal>  (1) 
2.9653540357130881

>  <r_i_glide_emodel>  (1) 
-47.006350174792246

>  <r_i_glide_emodel_strain>  (1) 
0.6325863651798187

>  <r_i_glide_energy>  (1) 
-41.832985858508593

>  <r_i_glide_erotb>  (1) 
0.30231676593683265

>  <r_i_glide_esite>  (1) 
-0.057274103027006251

>  <r_i_glide_evdw>  (1) 
-38.764922249960705

>  <r_i_glide_gscore>  (1) 
-8.1587597773451304

>  <r_i_glide_gscore_strain>  (1) 
0

>  <r_i_glide_hbond>  (1) 
0

>  <r_i_glide_ligand_efficiency>  (1) 
-0.22653973651881243

>  <r_i_glide_ligand_efficiency_ln>  (1) 
-1.7792946040328312

>  <r_i_glide_ligand_efficiency_sa>  (1) 
-0.74801772896887608

>  <r_i_glide_lipo>  (1) 
-4.2428605541863611

>  <r_i_glide_metal>  (1) 
-0

>  <r_i_glide_rewards>  (1) 
-1.7624862322883768

>  <r_lp_Energy>  (1) 
42.025849000000001

>  <s_epik_Chemistry_Notes>  (1) 
This compound has an imine and may undergo hydrolysis. This compound contains an acetal/aminal-like group ( X-CH(R)-Y where X, Y are N, S, or O) that may be acid/base labile, releasing an aldehyde.

>  <s_epik_cmdline>  (1) 
J2VwaWtfcHl0aG9uJywgJy1waHQnLCAnMS4wJywgJy1waCcsICc3LjQnLCAnLXRuJywgJzgnLCAnLW1hJywgJzUwMCcsICctaW1hZScsICc8aW5maWxlLm1hZT4nLCAnLW9tYWUnLCAnPG91dGZpbGUubWFlPic=

>  <s_epik_input>  (1) 
W09IXVtDSF0xT1tDQEhdMUMyPVtDSF1bQ0hdPUMoW0NIM10pW0NAQEhdKEMyPTMpW0NIXT1DKE4zKVtDQEBIXTRbQ0BIXShbQ0gzXSlOKFtDSDNdKVtDQEBIXShbUEArXTQoW0NIM10pW0NIMl1bT0hdKWMoW2NIXTUpYyhbQ0gyXVtDSDNdKVtjSF1bY0hdYzVDKEYpKEYpRg==

>  <s_glide_docking_method>  (1) 
confgen

>  <s_i_glide_gridfile>  (1) 
gpcr_5ht2c_6bqh_protein_autoprepared_prepared

>  <s_lp_Force_Field>  (1) 
S-OPLS

>  <s_lp_Variant>  (1) 
DiffSBDD_2_num_sample_50-1

>  <s_m_source_file>  (1) 
generated__ligand_DiffSBDD_2026-05-06_prepared.sdf

>  <GenAI_Model>  (1) 
DiffSBDD

>  <Protein>  (1) 
GPCR_5HT2C

$$$$
DiffSBDD_41_num_sample_50
     RDKit          3D

  0  0  0  0  0  0  0  0  0  0999 V3000
M  V30 BEGIN CTAB
M  V30 COUNTS 83 87 0 0 1
M  V30 BEGIN ATOM
M  V30 1 C 39.530275 28.295059 56.584105 0
M  V30 2 C 39.659121 29.047762 57.926984 0 CFG=2
M  V30 3 C 41.238044 32.696678 64.008069 0
M  V30 4 C 45.040354 32.436737 68.391666 0
M  V30 5 C 37.716949 30.543999 57.173370 0 CFG=1
M  V30 6 O 36.690587 30.021431 58.003798 0
M  V30 7 O 36.928725 30.304617 54.926678 0
M  V30 8 C 37.207788 37.157091 60.654688 0
M  V30 9 C 38.855448 26.835542 58.987251 0
M  V30 10 C 40.984536 34.911716 63.002061 0
M  V30 11 C 40.396307 29.619558 66.002815 0
M  V30 12 C 40.588193 28.592980 62.978928 0
M  V30 13 C 39.219363 28.250257 59.215690 0 CFG=1
M  V30 14 C 38.696564 37.298392 62.693329 0
M  V30 15 F 36.637344 36.310799 59.799268 0
M  V30 16 O 41.327843 30.773073 62.559541 0
M  V30 17 C 41.391697 31.805432 65.242062 0 CFG=2
M  V30 18 C 39.595557 28.483652 61.789609 0
M  V30 19 C 40.973401 34.325974 61.727190 0
M  V30 20 C 39.067473 30.472768 57.867748 0 CFG=1
M  V30 21 O 38.884379 31.065022 59.144094 0
M  V30 22 F 36.267526 37.767759 61.368748 0
M  V30 23 C 43.425676 30.789272 66.334468 0 CFG=1
M  V30 24 C 40.642994 30.030790 63.542533 0 CFG=2
M  V30 25 C 39.649973 36.694944 63.721039 0
M  V30 26 N 40.728610 28.590703 66.655426 0
M  V30 27 F 37.866299 38.084778 59.963953 0
M  V30 28 O 45.315948 31.138216 67.898376 0
M  V30 29 C 38.585512 28.699104 55.593489 0
M  V30 30 C 41.218406 32.121666 62.718184 0
M  V30 31 C 42.706318 32.105329 66.004463 0
M  V30 32 C 40.263719 26.473822 55.120266 0
M  V30 33 C 41.117798 34.098267 64.150396 0
M  V30 34 O 40.863878 36.268639 63.122636 0
M  V30 35 C 41.288387 30.270514 64.937046 0 CFG=2
M  V30 36 S 43.017994 29.693558 64.960501 0
M  V30 37 C 39.327878 26.870093 54.148187 0
M  V30 38 C 38.552429 25.700095 58.652196 0
M  V30 39 C 37.682683 29.874857 55.798636 0
M  V30 40 C 44.952082 30.903750 66.541614 0
M  V30 41 C 40.237213 28.427280 60.386727 0
M  V30 42 C 38.155445 36.387663 61.587209 0
M  V30 43 C 41.086334 32.934202 61.589557 0
M  V30 44 C 40.371448 27.185790 56.326986 0
M  V30 45 C 38.496686 27.980097 54.379036 0
M  V30 46 H 40.736688 29.189202 58.018898 0
M  V30 47 H 45.467442 32.533963 69.388562 0
M  V30 48 H 45.468348 33.211557 67.756622 0
M  V30 49 H 43.972768 32.613207 68.498483 0
M  V30 50 H 37.473425 31.597466 57.016860 0
M  V30 51 H 35.896526 30.461741 57.691471 0
M  V30 52 H 39.430503 30.109918 66.159432 0
M  V30 53 H 40.268990 27.909509 63.764073 0
M  V30 54 H 41.584500 28.250712 62.692907 0
M  V30 55 H 38.264325 28.656333 59.544350 0
M  V30 56 H 37.831023 37.624535 63.265070 0
M  V30 57 H 39.168564 38.172155 62.243816 0
M  V30 58 H 40.564335 32.108708 65.885661 0
M  V30 59 H 38.904491 29.325523 61.812065 0
M  V30 60 H 38.956453 27.622343 61.941371 0
M  V30 61 H 40.876727 34.947865 60.849743 0
M  V30 62 H 39.746343 31.098149 57.288191 0
M  V30 63 H 38.028287 30.778143 59.437914 0
M  V30 64 H 42.981832 30.344809 67.225322 0
M  V30 65 H 39.616576 30.403712 63.592939 0
M  V30 66 H 39.130289 35.910993 64.253980 0
M  V30 67 H 39.870266 37.452188 64.471599 0
M  V30 68 H 40.032652 28.291683 67.328205 0
M  V30 69 H 43.362505 32.714987 65.387706 0
M  V30 70 H 42.503344 32.699918 66.892624 0
M  V30 71 H 40.901044 25.625662 54.938452 0
M  V30 72 H 41.130196 34.546998 65.133785 0
M  V30 73 H 39.250109 26.326324 53.218946 0
M  V30 74 H 38.276260 24.730910 58.301673 0
M  V30 75 H 45.413230 29.948926 66.283408 0
M  V30 76 H 45.403984 31.643661 65.878538 0
M  V30 77 H 40.988446 27.637527 60.349756 0
M  V30 78 H 40.791094 29.358470 60.258971 0
M  V30 79 H 38.966184 35.981481 60.989337 0
M  V30 80 H 37.631577 35.544217 62.036105 0
M  V30 81 H 41.067111 32.484638 60.614295 0
M  V30 82 H 41.097195 26.877322 57.067558 0
M  V30 83 H 37.783530 28.280408 53.624644 0
M  V30 END ATOM
M  V30 BEGIN BOND
M  V30 1 1 2 1
M  V30 2 1 6 5
M  V30 3 1 13 2
M  V30 4 1 13 9
M  V30 5 1 15 8
M  V30 6 1 17 3
M  V30 7 1 18 12
M  V30 8 1 19 10
M  V30 9 1 20 2
M  V30 10 1 20 5
M  V30 11 1 21 20
M  V30 12 1 22 8
M  V30 13 1 24 12
M  V30 14 1 24 16
M  V30 15 1 25 14
M  V30 16 2 26 11
M  V30 17 1 27 8
M  V30 18 1 28 4
M  V30 19 1 29 1
M  V30 20 2 30 3
M  V30 21 1 30 16
M  V30 22 1 31 17
M  V30 23 1 31 23
M  V30 24 1 33 3
M  V30 25 2 33 10
M  V30 26 1 34 10
M  V30 27 1 34 25
M  V30 28 1 35 11 CFG=1
M  V30 29 1 35 17
M  V30 30 1 35 24
M  V30 31 1 36 23
M  V30 32 1 36 35
M  V30 33 2 37 32
M  V30 34 3 38 9
M  V30 35 1 39 5
M  V30 36 2 39 7
M  V30 37 1 39 29
M  V30 38 1 40 23
M  V30 39 1 40 28
M  V30 40 1 41 13
M  V30 41 1 41 18
M  V30 42 1 42 8
M  V30 43 1 42 14
M  V30 44 2 43 19
M  V30 45 1 43 30
M  V30 46 2 44 1
M  V30 47 1 44 32
M  V30 48 2 45 29
M  V30 49 1 45 37
M  V30 50 1 2 46 CFG=1
M  V30 51 1 47 4
M  V30 52 1 48 4
M  V30 53 1 49 4
M  V30 54 1 5 50 CFG=3
M  V30 55 1 51 6
M  V30 56 1 52 11
M  V30 57 1 53 12
M  V30 58 1 54 12
M  V30 59 1 13 55 CFG=1
M  V30 60 1 56 14
M  V30 61 1 57 14
M  V30 62 1 17 58 CFG=1
M  V30 63 1 59 18
M  V30 64 1 60 18
M  V30 65 1 61 19
M  V30 66 1 20 62 CFG=3
M  V30 67 1 63 21
M  V30 68 1 23 64 CFG=1
M  V30 69 1 24 65 CFG=1
M  V30 70 1 66 25
M  V30 71 1 67 25
M  V30 72 1 68 26
M  V30 73 1 69 31
M  V30 74 1 70 31
M  V30 75 1 71 32
M  V30 76 1 72 33
M  V30 77 1 73 37
M  V30 78 1 74 38
M  V30 79 1 75 40
M  V30 80 1 76 40
M  V30 81 1 77 41
M  V30 82 1 78 41
M  V30 83 1 79 42
M  V30 84 1 80 42
M  V30 85 1 81 43
M  V30 86 1 82 44
M  V30 87 1 83 45
M  V30 END BOND
M  V30 END CTAB
M  END
>  <i_epik_Tot_Q>  (1) 
0

>  <i_epik_Tot_abs_Q>  (1) 
0

>  <i_i_glide_confnum>  (1) 
3629

>  <i_i_glide_lignum>  (1) 
97

>  <i_i_glide_posenum>  (1) 
67

>  <i_i_glide_rotatable_bonds>  (1) 
16

>  <i_lp_mmshare_version>  (1) 
72125

>  <i_m_source_file_index>  (1) 
42

>  <i_f3d_flags>  (1) 
0

>  <num_sample>  (1) 
50

>  <b_lp_Chiralities_Consistent>  (1) 
1

>  <r_epik_Charging_Adjusted_Penalty>  (1) 
0.41067983895260396

>  <r_epik_Ionization_Penalty>  (1) 
0.0048607436090088536

>  <r_epik_Ionization_Penalty_Charging>  (1) 
0

>  <r_epik_Ionization_Penalty_Neutral>  (1) 
0.0048607436090088536

>  <r_epik_State_Penalty>  (1) 
0.41067983895260396

>  <r_glide_ring_energy>  (1) 
0.56107915077030179

>  <r_i_docking_score>  (1) 
-8.1384585031909396

>  <r_i_glide_ecoul>  (1) 
-8.593811679567942

>  <r_i_glide_eff_state_penalty>  (1) 
0.41067983895260396

>  <r_i_glide_einternal>  (1) 
14.276256667971801

>  <r_i_glide_emodel>  (1) 
-73.015668086370113

>  <r_i_glide_emodel_strain>  (1) 
2.0947851392794092

>  <r_i_glide_energy>  (1) 
-55.470387667583893

>  <r_i_glide_erotb>  (1) 
0.41134081239429626

>  <r_i_glide_esite>  (1) 
-0.057184799404874712

>  <r_i_glide_evdw>  (1) 
-46.876575988015951

>  <r_i_glide_gscore>  (1) 
-8.549138342143543

>  <r_i_glide_gscore_strain>  (1) 
0

>  <r_i_glide_hbond>  (1) 
-0.63913226759813913

>  <r_i_glide_ligand_efficiency>  (1) 
-0.1808546334042431

>  <r_i_glide_ligand_efficiency_ln>  (1) 
-1.6931620475769718

>  <r_i_glide_ligand_efficiency_sa>  (1) 
-0.64328063464155716

>  <r_i_glide_lipo>  (1) 
-4.8386552968540055

>  <r_i_glide_metal>  (1) 
-0

>  <r_i_glide_rewards>  (1) 
0.20739376065516923

>  <r_lp_Energy>  (1) 
46.140012999999996

>  <r_lp_tautomer_probability>  (1) 
0.5

>  <s_epik_Chemistry_Notes>  (1) 
This compound has an imine and may undergo hydrolysis.

>  <s_epik_cmdline>  (1) 
J2VwaWtfcHl0aG9uJywgJy1waHQnLCAnMS4wJywgJy1waCcsICc3LjQnLCAnLXRuJywgJzgnLCAnLW1hJywgJzUwMCcsICctaW1hZScsICc8aW5maWxlLm1hZT4nLCAnLW9tYWUnLCAnPG91dGZpbGUubWFlPic=

>  <s_epik_input>  (1) 
W2NIXTFbY0hdW2NIXVtjSF1jKGMxMilDKD1PKVtDQEBIXShbT0hdKVtDQEBIXShbT0hdKVtDQEBIXTJbQ0BASF0oQyNbQ0hdKVtDSDJdW0NIMl1bQ0gyXVtDQEBIXTNPYyhjNFtDQEBIXShbQ0BAXTM1L1tDSF09Ti9bSF0pW0NIMl1bQ0BASF0oUzUpW0NIMl1PW0NIM10pW2NIXVtjSF1jKFtjSF00KU9bQ0gyXVtDSDJdW0NIMl1DKEYpKEYpRg==

>  <s_glide_docking_method>  (1) 
confgen

>  <s_i_glide_gridfile>  (1) 
gpcr_5ht2c_6bqh_protein_autoprepared_prepared

>  <s_lp_Force_Field>  (1) 
S-OPLS

>  <s_lp_Variant>  (1) 
DiffSBDD_41_num_sample_50-2

>  <s_m_source_file>  (1) 
generated__ligand_DiffSBDD_2026-05-06_prepared.sdf

>  <GenAI_Model>  (1) 
DiffSBDD

>  <Protein>  (1) 
GPCR_5HT2C

$$$$
DiffSBDD_44_num_sample_50
     RDKit          3D

  0  0  0  0  0  0  0  0  0  0999 V3000
M  V30 BEGIN CTAB
M  V30 COUNTS 65 67 0 0 1
M  V30 BEGIN ATOM
M  V30 1 C 40.842459 36.313646 62.862039 0
M  V30 2 C 38.680213 27.281172 54.073434 0
M  V30 3 C 37.711809 33.523923 60.724266 0
M  V30 4 O 39.245647 28.743347 61.400718 0
M  V30 5 O 40.983221 33.997796 63.527637 0
M  V30 6 C 38.469432 32.447878 61.425932 0
M  V30 7 F 34.577243 34.021447 58.857790 0
M  V30 8 C 39.164024 29.169157 52.565255 0
M  V30 9 C 39.307171 27.695702 56.560146 0 CFG=2
M  V30 10 O 39.867453 31.221424 53.323493 0
M  V30 11 C 39.426982 36.169177 62.284325 0
M  V30 12 C 35.761605 34.285584 59.454019 0
M  V30 13 C 41.295073 35.162402 63.764625 0
M  V30 14 C 38.978136 27.849194 52.739483 0
M  V30 15 O 38.432418 26.089308 54.253510 0
M  V30 16 O 39.417410 35.123397 61.326089 0
M  V30 17 O 36.549863 29.807665 58.459098 0
M  V30 18 C 39.363747 29.656644 54.910559 0
M  V30 19 C 40.528125 28.574783 61.983881 0
M  V30 20 C 42.158646 35.519528 64.966265 0
M  V30 21 O 40.602447 27.171351 56.323739 0
M  V30 22 C 36.267383 35.595144 59.453611 0
M  V30 23 C 38.704284 28.286889 55.258844 0 CFG=1
M  V30 24 C 38.135606 30.502411 60.077410 0 CFG=2
M  V30 25 C 36.478242 33.251024 60.083030 0
M  V30 26 C 39.211524 28.261881 59.077331 0
M  V30 27 C 38.212857 34.849099 60.721847 0
M  V30 28 C 39.425080 28.338219 50.613406 0
M  V30 29 C 39.456033 28.768450 57.659847 0
M  V30 30 O 39.444599 29.530412 51.291206 0
M  V30 31 N 39.089237 30.110376 53.564200 0
M  V30 32 O 36.805439 30.021416 59.881041 0
M  V30 33 C 37.485017 35.879815 60.085589 0
M  V30 34 C 39.242875 29.386096 60.128960 0 CFG=2
M  V30 35 N 38.227924 31.202060 61.352504 0
M  V30 36 C 39.138121 27.285155 51.453572 0
M  V30 37 H 41.565060 36.439393 62.055872 0
M  V30 38 H 40.871762 37.221446 63.453476 0
M  V30 39 H 39.288335 32.787267 62.062136 0
M  V30 40 H 38.661327 26.885957 56.905402 0
M  V30 41 H 39.267117 31.923435 53.115419 0
M  V30 42 H 39.146797 37.119781 61.832263 0
M  V30 43 H 38.705682 35.961056 63.075733 0
M  V30 44 H 36.144048 30.629842 58.187154 0
M  V30 45 H 38.999938 30.437782 55.577474 0
M  V30 46 H 40.444191 29.600865 55.053557 0
M  V30 47 H 40.980898 29.539858 62.214620 0
M  V30 48 H 40.432599 28.021726 62.918077 0
M  V30 49 H 41.200065 28.021378 61.327814 0
M  V30 50 H 43.067365 36.021321 64.638926 0
M  V30 51 H 41.618817 36.185617 65.639246 0
M  V30 52 H 42.440616 34.621537 65.516229 0
M  V30 53 H 40.893092 26.689969 57.084587 0
M  V30 54 H 35.714909 36.385518 58.967418 0
M  V30 55 H 37.653984 28.498913 55.457339 0
M  V30 56 H 38.373832 31.178750 59.251323 0
M  V30 57 H 36.073152 32.254028 60.087350 0
M  V30 58 H 39.978846 27.523679 59.311423 0
M  V30 59 H 38.267409 27.727829 59.135196 0
M  V30 60 H 39.627612 28.421442 49.557690 0
M  V30 61 H 38.749647 29.569233 57.479564 0
M  V30 62 H 40.437208 29.241878 57.602513 0
M  V30 63 H 37.868140 36.888598 60.076233 0
M  V30 64 H 40.192641 29.913056 60.013852 0
M  V30 65 H 39.067433 26.251208 51.168151 0
M  V30 END ATOM
M  V30 BEGIN BOND
M  V30 1 1 6 3
M  V30 2 1 11 1
M  V30 3 1 12 7
M  V30 4 1 13 1
M  V30 5 2 13 5
M  V30 6 1 14 2
M  V30 7 2 14 8
M  V30 8 2 15 2
M  V30 9 1 16 11
M  V30 10 1 19 4
M  V30 11 1 20 13
M  V30 12 1 21 9
M  V30 13 1 22 12
M  V30 14 1 23 2
M  V30 15 1 23 9
M  V30 16 1 23 18
M  V30 17 1 25 3
M  V30 18 2 25 12
M  V30 19 2 27 3
M  V30 20 1 27 16
M  V30 21 1 29 9
M  V30 22 1 29 26
M  V30 23 1 30 8
M  V30 24 1 30 28
M  V30 25 1 31 8
M  V30 26 1 31 10
M  V30 27 1 31 18
M  V30 28 1 32 17
M  V30 29 1 32 24
M  V30 30 2 33 22
M  V30 31 1 33 27
M  V30 32 1 34 4
M  V30 33 1 34 24
M  V30 34 1 34 26
M  V30 35 2 35 6
M  V30 36 1 35 24
M  V30 37 1 36 14
M  V30 38 2 36 28
M  V30 39 1 37 1
M  V30 40 1 38 1
M  V30 41 1 39 6
M  V30 42 1 9 40 CFG=1
M  V30 43 1 41 10
M  V30 44 1 42 11
M  V30 45 1 43 11
M  V30 46 1 44 17
M  V30 47 1 45 18
M  V30 48 1 46 18
M  V30 49 1 47 19
M  V30 50 1 48 19
M  V30 51 1 49 19
M  V30 52 1 50 20
M  V30 53 1 51 20
M  V30 54 1 52 20
M  V30 55 1 53 21
M  V30 56 1 54 22
M  V30 57 1 23 55 CFG=1
M  V30 58 1 24 56 CFG=3
M  V30 59 1 57 25
M  V30 60 1 58 26
M  V30 61 1 59 26
M  V30 62 1 60 28
M  V30 63 1 61 29
M  V30 64 1 62 29
M  V30 65 1 63 33
M  V30 66 1 34 64 CFG=3
M  V30 67 1 65 36
M  V30 END BOND
M  V30 END CTAB
M  END
>  <i_epik_Tot_Q>  (1) 
0

>  <i_epik_Tot_abs_Q>  (1) 
0

>  <i_i_glide_confnum>  (1) 
564

>  <i_i_glide_lignum>  (1) 
103

>  <i_i_glide_posenum>  (1) 
7

>  <i_i_glide_rotatable_bonds>  (1) 
16

>  <i_lp_mmshare_version>  (1) 
72125

>  <i_m_source_file_index>  (1) 
45

>  <i_f3d_flags>  (1) 
0

>  <num_sample>  (1) 
50

>  <b_lp_Chiralities_Consistent>  (1) 
1

>  <r_epik_Charging_Adjusted_Penalty>  (1) 
0

>  <r_epik_Ionization_Penalty>  (1) 
0.00046426775496228489

>  <r_epik_Ionization_Penalty_Charging>  (1) 
0

>  <r_epik_Ionization_Penalty_Neutral>  (1) 
0.00046426775496228489

>  <r_epik_State_Penalty>  (1) 
-0

>  <r_glide_ring_energy>  (1) 
0

>  <r_i_docking_score>  (1) 
-8.1371077320716036

>  <r_i_glide_ecoul>  (1) 
-6.3858138751363622

>  <r_i_glide_eff_state_penalty>  (1) 
-0

>  <r_i_glide_einternal>  (1) 
39.010180241318182

>  <r_i_glide_emodel>  (1) 
-65.546496647223478

>  <r_i_glide_emodel_strain>  (1) 
2.7348784972235407

>  <r_i_glide_energy>  (1) 
-58.600704093112377

>  <r_i_glide_erotb>  (1) 
0.87096195952989475

>  <r_i_glide_esite>  (1) 
-0.14351149083067621

>  <r_i_glide_evdw>  (1) 
-52.214890217976013

>  <r_i_glide_gscore>  (1) 
-8.1371077320716036

>  <r_i_glide_gscore_strain>  (1) 
0

>  <r_i_glide_hbond>  (1) 
-0.16

>  <r_i_glide_ligand_efficiency>  (1) 
-0.22603077033532232

>  <r_i_glide_ligand_efficiency_ln>  (1) 
-1.7752970678926587

>  <r_i_glide_ligand_efficiency_sa>  (1) 
-0.74633715965884417

>  <r_i_glide_lipo>  (1) 
-3.1323076649246961

>  <r_i_glide_metal>  (1) 
-0

>  <r_i_glide_rewards>  (1) 
-2.0036339436768706

>  <r_lp_Energy>  (1) 
33.654626

>  <r_lp_tautomer_probability>  (1) 
1

>  <s_epik_Chemistry_Notes>  (1) 
This compound has an imine and may undergo hydrolysis. This compound contains an acetal/aminal-like group ( X-CH(R)-Y where X, Y are N, S, or O) that may be acid/base labile, releasing an aldehyde. This compound has a N-S or N-O group and may undergo hydrolysis at high or low pH.

>  <s_epik_cmdline>  (1) 
J2VwaWtfcHl0aG9uJywgJy1waHQnLCAnMS4wJywgJy1waCcsICc3LjQnLCAnLXRuJywgJzgnLCAnLW1hJywgJzUwMCcsICctaW1hZScsICc8aW5maWxlLm1hZT4nLCAnLW9tYWUnLCAnPG91dGZpbGUubWFlPic=

>  <s_epik_input>  (1) 
Tz1DKFtDSDNdKVtDSDJdW0NIMl1PYzFbY0hdW2NIXWMoRilbY0hdYzEvW0NIXT1OXFtDQEhdKE9bT0hdKVtDQEBIXShPW0NIM10pW0NIMl1bQ0gyXVtDQEhdKFtPSF0pW0NAQEhdKFtDSDJdTjJbT0hdKUMoPU8pYyhjMjMpW2NIXVtjSF1vMw==

>  <s_glide_docking_method>  (1) 
confgen

>  <s_i_glide_gridfile>  (1) 
gpcr_5ht2c_6bqh_protein_autoprepared_prepared

>  <s_lp_Force_Field>  (1) 
S-OPLS

>  <s_lp_Variant>  (1) 
DiffSBDD_44_num_sample_50-2

>  <s_m_source_file>  (1) 
generated__ligand_DiffSBDD_2026-05-06_prepared.sdf

>  <GenAI_Model>  (1) 
DiffSBDD

>  <Protein>  (1) 
GPCR_5HT2C

$$$$
DiffSBDD_20_num_sample_50
     RDKit          3D

  0  0  0  0  0  0  0  0  0  0999 V3000
M  V30 BEGIN CTAB
M  V30 COUNTS 77 81 0 0 1
M  V30 BEGIN ATOM
M  V30 1 C 39.516622 31.762403 62.418293 0
M  V30 2 C 40.840572 33.491271 63.511534 0
M  V30 3 C 38.428878 31.517250 59.448693 0 CFG=2
M  V30 4 C 37.978507 25.912509 54.601880 0
M  V30 5 C 40.154431 34.485911 62.792837 0
M  V30 6 C 39.216518 29.920291 56.795617 0
M  V30 7 C 38.770598 36.505500 61.401643 0
M  V30 8 C 38.311275 28.658142 56.746753 0 CFG=1
M  V30 9 C 40.148530 27.043703 57.479043 0
M  V30 10 C 39.081693 27.351010 56.370717 0 CFG=2
M  V30 11 C 37.467807 28.583727 58.035266 0
M  V30 12 F 40.394628 28.259146 51.287274 0
M  V30 13 C 36.742264 29.901154 58.380746 0
M  V30 14 C 40.476943 35.840812 63.003869 0
M  V30 15 O 37.467652 31.312037 55.918536 0
M  V30 16 C 39.675727 27.520805 54.952880 0
M  V30 17 C 36.612806 31.531302 61.344076 0
M  V30 18 C 38.389617 31.187178 56.994182 0 CFG=1
M  V30 19 C 37.740835 32.285217 60.630200 0 CFG=1
M  V30 20 C 38.447587 35.158010 61.166308 0
M  V30 21 C 44.046886 27.137454 57.853392 0
M  V30 22 F 38.670177 27.129721 50.665438 0
M  V30 23 C 42.574623 27.093430 58.268412 0
M  V30 24 O 39.423085 26.743681 52.764177 0
M  V30 25 C 40.519189 32.137626 63.330305 0
M  V30 26 C 38.820493 32.741972 61.663523 0
M  V30 27 C 41.604151 27.339509 57.114338 0
M  V30 28 C 38.407827 28.797191 52.247696 0
M  V30 29 C 37.630020 28.115275 53.334113 0
M  V30 30 C 39.274815 27.685395 51.706820 0
M  V30 31 N 37.577797 31.143140 58.258131 0 CFG=2 CHG=1
M  V30 32 C 38.644205 27.098690 53.904483 0 CFG=1
M  V30 33 C 39.784224 36.845997 62.312174 0
M  V30 34 C 38.142222 26.130345 56.122591 0
M  V30 35 O 38.991902 30.411774 59.871312 0 CHG=-1
M  V30 36 C 39.134611 34.128162 61.863762 0
M  V30 37 H 39.282916 30.716548 62.288417 0
M  V30 38 H 41.612427 33.769325 64.214643 0
M  V30 39 H 39.063046 32.320638 59.079810 0
M  V30 40 H 38.476918 24.991900 54.306423 0
M  V30 41 H 36.932526 25.797685 54.325138 0
M  V30 42 H 39.795895 30.095831 55.894872 0
M  V30 43 H 39.952116 29.813008 57.590949 0
M  V30 44 H 38.239131 37.283967 60.873670 0
M  V30 45 H 37.566442 28.813098 55.982599 0
M  V30 46 H 39.956578 27.603444 58.390775 0
M  V30 47 H 40.092480 26.004245 57.799881 0
M  V30 48 H 36.708994 27.815757 57.921149 0
M  V30 49 H 38.059619 28.274443 58.891031 0
M  V30 50 H 35.883606 30.003586 57.725958 0
M  V30 51 H 36.326992 29.802132 59.377576 0
M  V30 52 H 41.252676 36.109549 63.705737 0
M  V30 53 H 36.585329 31.566234 56.253463 0
M  V30 54 H 40.116306 28.487855 54.762607 0
M  V30 55 H 40.485582 26.803995 54.821573 0
M  V30 56 H 36.278954 32.095135 62.213490 0
M  V30 57 H 35.740665 31.406860 60.702224 0
M  V30 58 H 36.960657 30.554905 61.671629 0
M  V30 59 H 39.022373 32.073024 56.950824 0
M  V30 60 H 37.221244 33.104766 60.156931 0
M  V30 61 H 37.672407 34.930985 60.463804 0
M  V30 62 H 44.667736 26.820675 58.691016 0
M  V30 63 H 44.258672 26.433161 57.052435 0
M  V30 64 H 44.331527 28.132686 57.509820 0
M  V30 65 H 42.378443 27.800799 59.074019 0
M  V30 66 H 42.390697 26.095794 58.653222 0
M  V30 67 H 41.044415 31.379981 63.893682 0
M  V30 68 H 41.865207 26.639221 56.342842 0
M  V30 69 H 41.729464 28.345255 56.713386 0
M  V30 70 H 39.014188 29.598752 52.669544 0
M  V30 71 H 37.789549 29.215795 51.462716 0
M  V30 72 H 36.788074 27.584697 52.887153 0
M  V30 73 H 37.209280 28.841334 54.014367 0
M  V30 74 H 40.028804 37.882589 62.483984 0
M  V30 75 H 38.549839 25.211120 56.547344 0
M  V30 76 H 37.163652 26.255045 56.575609 0
M  V30 77 H 36.902551 31.890415 58.164680 0
M  V30 END ATOM
M  V30 BEGIN BOND
M  V30 1 1 5 2
M  V30 2 1 8 6
M  V30 3 1 10 8
M  V30 4 1 10 9 CFG=1
M  V30 5 1 11 8
M  V30 6 1 13 11
M  V30 7 2 14 5
M  V30 8 1 16 10
M  V30 9 1 18 6
M  V30 10 1 18 15
M  V30 11 1 19 3
M  V30 12 1 19 17
M  V30 13 1 20 7
M  V30 14 1 23 21
M  V30 15 1 25 1
M  V30 16 2 25 2
M  V30 17 2 26 1
M  V30 18 1 26 19
M  V30 19 1 27 9
M  V30 20 1 27 23
M  V30 21 1 29 28
M  V30 22 1 30 12
M  V30 23 1 30 22
M  V30 24 1 30 24
M  V30 25 1 30 28
M  V30 26 1 31 3
M  V30 27 1 31 13
M  V30 28 1 31 18
M  V30 29 1 32 4
M  V30 30 1 32 16
M  V30 31 1 32 24 CFG=3
M  V30 32 1 32 29
M  V30 33 2 33 7
M  V30 34 1 33 14
M  V30 35 1 34 4
M  V30 36 1 34 10
M  V30 37 1 35 3
M  V30 38 1 36 5
M  V30 39 2 36 20
M  V30 40 1 36 26
M  V30 41 1 37 1
M  V30 42 1 38 2
M  V30 43 1 3 39 CFG=3
M  V30 44 1 40 4
M  V30 45 1 41 4
M  V30 46 1 42 6
M  V30 47 1 43 6
M  V30 48 1 44 7
M  V30 49 1 8 45 CFG=3
M  V30 50 1 46 9
M  V30 51 1 47 9
M  V30 52 1 48 11
M  V30 53 1 49 11
M  V30 54 1 50 13
M  V30 55 1 51 13
M  V30 56 1 52 14
M  V30 57 1 53 15
M  V30 58 1 54 16
M  V30 59 1 55 16
M  V30 60 1 56 17
M  V30 61 1 57 17
M  V30 62 1 58 17
M  V30 63 1 18 59 CFG=1
M  V30 64 1 19 60 CFG=3
M  V30 65 1 61 20
M  V30 66 1 62 21
M  V30 67 1 63 21
M  V30 68 1 64 21
M  V30 69 1 65 23
M  V30 70 1 66 23
M  V30 71 1 67 25
M  V30 72 1 68 27
M  V30 73 1 69 27
M  V30 74 1 70 28
M  V30 75 1 71 28
M  V30 76 1 72 29
M  V30 77 1 73 29
M  V30 78 1 74 33
M  V30 79 1 75 34
M  V30 80 1 76 34
M  V30 81 1 31 77 CFG=3
M  V30 END BOND
M  V30 END CTAB
M  END
>  <i_epik_Tot_Q>  (1) 
0

>  <i_epik_Tot_abs_Q>  (1) 
2

>  <i_i_glide_confnum>  (1) 
1821

>  <i_i_glide_lignum>  (1) 
57

>  <i_i_glide_posenum>  (1) 
142

>  <i_i_glide_rotatable_bonds>  (1) 
8

>  <i_lp_mmshare_version>  (1) 
72125

>  <i_m_source_file_index>  (1) 
21

>  <i_f3d_flags>  (1) 
0

>  <num_sample>  (1) 
50

>  <b_lp_Chiralities_Consistent>  (1) 
1

>  <r_epik_Charging_Adjusted_Penalty>  (1) 
0.70686764658740575

>  <r_epik_Ionization_Penalty>  (1) 
0.13730248461042968

>  <r_epik_Ionization_Penalty_Charging>  (1) 
0.016711854413244867

>  <r_epik_Ionization_Penalty_Neutral>  (1) 
0.12059063019718481

>  <r_epik_State_Penalty>  (1) 
0.6901557921741609

>  <r_glide_ring_energy>  (1) 
2.1300699226803457

>  <r_i_docking_score>  (1) 
-8.1307066842096347

>  <r_i_glide_ecoul>  (1) 
-9.3780063019301991

>  <r_i_glide_eff_state_penalty>  (1) 
0.6901557921741609

>  <r_i_glide_einternal>  (1) 
10.246475929275306

>  <r_i_glide_emodel>  (1) 
-49.891379559846456

>  <r_i_glide_emodel_strain>  (1) 
4.9488196389866346

>  <r_i_glide_energy>  (1) 
-37.433316531815549

>  <r_i_glide_erotb>  (1) 
0.48702584280874928

>  <r_i_glide_esite>  (1) 
-0.20576158761371627

>  <r_i_glide_evdw>  (1) 
-28.05531022988535

>  <r_i_glide_gscore>  (1) 
-8.8208624763837964

>  <r_i_glide_gscore_strain>  (1) 
0.23720490974665864

>  <r_i_glide_hbond>  (1) 
-0.21134998091859647

>  <r_i_glide_ligand_efficiency>  (1) 
-0.22585296345026762

>  <r_i_glide_ligand_efficiency_ln>  (1) 
-1.773900532185505

>  <r_i_glide_ligand_efficiency_sa>  (1) 
-0.74575005426004104

>  <r_i_glide_lipo>  (1) 
-4.6380206290161086

>  <r_i_glide_metal>  (1) 
-0

>  <r_i_glide_rewards>  (1) 
-1.680494574606985

>  <r_lp_Energy>  (1) 
66.418807999999999

>  <s_epik_Chemistry_Notes>  (1) 
This compound contains an acetal/aminal-like group ( X-CH(R)-Y where X, Y are N, S, or O) that may be acid/base labile, releasing an aldehyde.

>  <s_epik_cmdline>  (1) 
J2VwaWtfcHl0aG9uJywgJy1waHQnLCAnMS4wJywgJy1waCcsICc3LjQnLCAnLXRuJywgJzgnLCAnLW1hJywgJzUwMCcsICctaW1hZScsICc8aW5maWxlLm1hZT4nLCAnLW9tYWUnLCAnPG91dGZpbGUubWFlPic=

>  <s_epik_input>  (1) 
W2NIXTFbY0hdW2NIXVtjSF1jKGMxMiljKFtjSF1bY0hdW2NIXTIpW0NASF0oW0NIM10pW0NAQEhdKFtPSF0pTihbQ0gyXVtDSDJdMylbQ0BIXShbT0hdKVtDSDJdW0NASF0zW0NAQF0oW0NIMl00KShbQ0gyXVtDSDJdW0NIMl1bQ0gzXSlbQ0gyXVtDSDJdW0NAXTQ1T0MoRikoRilbQ0gyXVtDSDJdNQ==

>  <s_glide_docking_method>  (1) 
confgen

>  <s_i_glide_gridfile>  (1) 
gpcr_5ht2c_6bqh_protein_autoprepared_prepared

>  <s_lp_Force_Field>  (1) 
S-OPLS

>  <s_lp_Variant>  (1) 
DiffSBDD_20_num_sample_50-2

>  <s_m_source_file>  (1) 
generated__ligand_DiffSBDD_2026-05-06_prepared.sdf

>  <GenAI_Model>  (1) 
DiffSBDD

>  <Protein>  (1) 
GPCR_5HT2C

$$$$
DiffSBDD_4_num_sample_50
     RDKit          3D

  0  0  0  0  0  0  0  0  0  0999 V3000
M  V30 BEGIN CTAB
M  V30 COUNTS 72 74 0 0 1
M  V30 BEGIN ATOM
M  V30 1 C 38.323142 29.026481 52.866102 0
M  V30 2 C 40.105292 33.602950 62.425208 0
M  V30 3 C 38.664657 35.206716 61.387249 0
M  V30 4 N 39.397317 31.631276 61.688748 0
M  V30 5 C 38.994585 24.414302 57.298207 0
M  V30 6 C 39.364342 36.259532 62.033301 0
M  V30 7 C 40.331549 32.195933 62.483386 0
M  V30 8 N 39.931654 26.919501 56.602661 0
M  V30 9 C 40.458279 28.407254 59.953033 0
M  V30 10 C 38.133369 27.418997 54.933043 0
M  V30 11 O 38.647147 28.399932 57.750225 0
M  V30 12 C 39.306991 30.204319 61.414095 0
M  V30 13 F 40.418981 30.556430 51.451681 0
M  V30 14 C 39.867375 27.601418 51.662914 0
M  V30 15 C 38.425093 32.622509 61.001886 0
M  V30 16 C 39.551380 29.904392 50.676520 0
M  V30 17 N 39.467151 26.948567 52.914869 0 CHG=1
M  V30 18 C 40.839289 34.604654 63.100704 0
M  V30 19 C 40.910284 28.118951 58.503000 0
M  V30 20 C 39.005647 28.014456 53.813909 0 CFG=1
M  V30 21 C 39.076058 33.885760 61.618875 0
M  V30 22 O 37.614243 35.476325 60.558671 0
M  V30 23 C 40.458239 35.956581 62.897959 0
M  V30 24 C 38.883346 28.740281 51.448082 0 CFG=2
M  V30 25 C 38.091894 25.302715 56.414385 0
M  V30 26 C 39.723915 27.829475 57.576583 0
M  V30 27 N 38.855337 26.440437 55.803333 0
M  V30 28 C 36.947736 25.773162 57.321405 0
M  V30 29 C 41.998594 34.263085 64.023349 0
M  V30 30 N 41.551483 33.780585 65.315876 0
M  V30 31 F 40.195241 29.426966 49.609960 0
M  V30 32 C 40.157980 29.892999 60.179555 0
M  V30 33 C 37.497503 24.391728 55.319435 0
M  V30 34 O 41.217459 31.629482 63.124090 0
M  V30 35 H 37.245152 28.863830 52.865902 0
M  V30 36 H 38.507366 30.049292 53.193584 0
M  V30 37 H 39.846526 24.023269 56.746419 0
M  V30 38 H 39.380120 24.968608 58.153673 0
M  V30 39 H 38.444504 23.568866 57.708393 0
M  V30 40 H 39.067934 37.285627 61.873534 0
M  V30 41 H 37.252455 34.711073 60.138646 0
M  V30 42 H 40.831334 26.469369 56.497801 0
M  V30 43 H 41.233470 28.085407 60.648907 0
M  V30 44 H 39.579307 27.809435 60.200164 0
M  V30 45 H 37.280388 26.929084 54.467682 0
M  V30 46 H 37.704701 28.216110 55.538398 0
M  V30 47 H 39.645248 29.626128 62.277027 0
M  V30 48 H 38.267830 29.935903 61.231406 0
M  V30 49 H 39.867381 26.903287 50.823717 0
M  V30 50 H 40.867060 28.021698 51.782722 0
M  V30 51 H 37.394911 32.482271 61.331102 0
M  V30 52 H 38.503422 32.598355 59.913782 0
M  V30 53 H 38.858950 30.631808 50.253486 0
M  V30 54 H 40.226419 26.427286 53.329198 0
M  V30 55 H 41.503379 28.942104 58.105974 0
M  V30 56 H 41.563899 27.244494 58.506866 0
M  V30 57 H 39.867404 28.508174 54.265621 0
M  V30 58 H 40.992307 36.752712 63.396095 0
M  V30 59 H 38.070824 28.346537 50.839610 0
M  V30 60 H 36.267402 26.407468 56.773440 0
M  V30 61 H 36.368685 24.936611 57.707778 0
M  V30 62 H 37.308827 26.325821 58.185005 0
M  V30 63 H 42.667247 33.541786 63.556762 0
M  V30 64 H 42.593650 35.161730 64.187086 0
M  V30 65 H 41.849067 32.820869 65.431103 0
M  V30 66 H 41.995294 34.309097 66.052659 0
M  V30 67 H 39.643065 30.305922 59.311971 0
M  V30 68 H 41.104999 30.421713 60.253531 0
M  V30 69 H 38.274540 24.023420 54.653501 0
M  V30 70 H 37.004296 23.519224 55.751143 0
M  V30 71 H 36.748553 24.892931 54.707825 0
M  V30 72 H 38.691752 26.327907 52.728874 0
M  V30 END ATOM
M  V30 BEGIN BOND
M  V30 1 1 6 3
M  V30 2 1 7 2
M  V30 3 1 7 4
M  V30 4 1 12 4
M  V30 5 1 15 4
M  V30 6 1 16 13
M  V30 7 1 17 14
M  V30 8 2 18 2
M  V30 9 1 19 9
M  V30 10 1 20 1
M  V30 11 1 20 10
M  V30 12 1 20 17
M  V30 13 1 21 2
M  V30 14 2 21 3
M  V30 15 1 21 15
M  V30 16 1 22 3
M  V30 17 2 23 6
M  V30 18 1 23 18
M  V30 19 1 24 1
M  V30 20 1 24 14
M  V30 21 1 24 16
M  V30 22 1 25 5
M  V30 23 1 26 8
M  V30 24 2 26 11
M  V30 25 1 26 19
M  V30 26 1 27 8
M  V30 27 1 27 10
M  V30 28 1 27 25
M  V30 29 1 28 25
M  V30 30 1 29 18
M  V30 31 1 30 29
M  V30 32 1 31 16
M  V30 33 1 32 9
M  V30 34 1 32 12
M  V30 35 1 33 25
M  V30 36 2 34 7
M  V30 37 1 35 1
M  V30 38 1 36 1
M  V30 39 1 37 5
M  V30 40 1 38 5
M  V30 41 1 39 5
M  V30 42 1 40 6
M  V30 43 1 41 22
M  V30 44 1 42 8
M  V30 45 1 43 9
M  V30 46 1 44 9
M  V30 47 1 45 10
M  V30 48 1 46 10
M  V30 49 1 47 12
M  V30 50 1 48 12
M  V30 51 1 49 14
M  V30 52 1 50 14
M  V30 53 1 51 15
M  V30 54 1 52 15
M  V30 55 1 53 16
M  V30 56 1 54 17
M  V30 57 1 55 19
M  V30 58 1 56 19
M  V30 59 1 20 57 CFG=1
M  V30 60 1 58 23
M  V30 61 1 24 59 CFG=3
M  V30 62 1 60 28
M  V30 63 1 61 28
M  V30 64 1 62 28
M  V30 65 1 63 29
M  V30 66 1 64 29
M  V30 67 1 65 30
M  V30 68 1 66 30
M  V30 69 1 67 32
M  V30 70 1 68 32
M  V30 71 1 69 33
M  V30 72 1 70 33
M  V30 73 1 71 33
M  V30 74 1 72 17
M  V30 END BOND
M  V30 END CTAB
M  END
>  <i_epik_Tot_Q>  (1) 
1

>  <i_epik_Tot_abs_Q>  (1) 
1

>  <i_i_glide_confnum>  (1) 
1500

>  <i_i_glide_lignum>  (1) 
13

>  <i_i_glide_posenum>  (1) 
193

>  <i_i_glide_rotatable_bonds>  (1) 
13

>  <i_lp_mmshare_version>  (1) 
72125

>  <i_m_source_file_index>  (1) 
5

>  <i_f3d_flags>  (1) 
0

>  <num_sample>  (1) 
50

>  <b_lp_Chiralities_Consistent>  (1) 
1

>  <r_epik_Charging_Adjusted_Penalty>  (1) 
1.2595029471344665

>  <r_epik_Ionization_Penalty>  (1) 
1.2628522822174981

>  <r_epik_Ionization_Penalty_Charging>  (1) 
0.002090266189742528

>  <r_epik_Ionization_Penalty_Neutral>  (1) 
1.2607620160277555

>  <r_epik_State_Penalty>  (1) 
1.2574126809447239

>  <r_glide_ring_energy>  (1) 
0

>  <r_i_docking_score>  (1) 
-8.1278329077151241

>  <r_i_glide_ecoul>  (1) 
-1.209400190052317

>  <r_i_glide_eff_state_penalty>  (1) 
1.2574126809447239

>  <r_i_glide_einternal>  (1) 
10.318890200869234

>  <r_i_glide_emodel>  (1) 
-70.953194106942249

>  <r_i_glide_emodel_strain>  (1) 
0.3073847255480473

>  <r_i_glide_energy>  (1) 
-47.878550030926604

>  <r_i_glide_erotb>  (1) 
0.78424635180538971

>  <r_i_glide_esite>  (1) 
0

>  <r_i_glide_evdw>  (1) 
-46.66914984087429

>  <r_i_glide_gscore>  (1) 
-9.3852455886598474

>  <r_i_glide_gscore_strain>  (1) 
0

>  <r_i_glide_hbond>  (1) 
0

>  <r_i_glide_ligand_efficiency>  (1) 
-0.23905390905044482

>  <r_i_glide_ligand_efficiency_ln>  (1) 
-1.7956662673052033

>  <r_i_glide_ligand_efficiency_sa>  (1) 
-0.77444186490133538

>  <r_i_glide_lipo>  (1) 
-5.1740715418067795

>  <r_i_glide_metal>  (1) 
-0

>  <r_i_glide_rewards>  (1) 
-2.4805528781068951

>  <r_lp_Energy>  (1) 
25.577957999999999

>  <r_lp_tautomer_probability>  (1) 
0.99999999999736477

>  <s_epik_cmdline>  (1) 
J2VwaWtfcHl0aG9uJywgJy1waHQnLCAnMS4wJywgJy1waCcsICc3LjQnLCAnLXRuJywgJzgnLCAnLW1hJywgJzUwMCcsICctaW1hZScsICc8aW5maWxlLm1hZT4nLCAnLW9tYWUnLCAnPG91dGZpbGUubWFlPic=

>  <s_epik_input>  (1) 
RltDSF0oRilbQ0BASF0oW0NIMl1bTkhdMSlbQ0gyXVtDQEhdMVtDSDJdTihDKFtDSDNdKShbQ0gzXSlbQ0gzXSlbTkhdQyg9TylbQ0gyXVtDSDJdW0NIMl1bQ0gyXU4oQzI9TylbQ0gyXUMoPUMyMylDKD1PKVtDSDJdW0NIXT1DM1tDSDJdW05IMl0=

>  <s_glide_docking_method>  (1) 
confgen

>  <s_i_glide_gridfile>  (1) 
gpcr_5ht2c_6bqh_protein_autoprepared_prepared

>  <s_lp_Force_Field>  (1) 
S-OPLS

>  <s_lp_Variant>  (1) 
DiffSBDD_4_num_sample_50-2

>  <s_m_source_file>  (1) 
generated__ligand_DiffSBDD_2026-05-06_prepared.sdf

>  <GenAI_Model>  (1) 
DiffSBDD

>  <Protein>  (1) 
GPCR_5HT2C

$$$$
DiffSBDD_13_num_sample_50
     RDKit          3D

  0  0  0  0  0  0  0  0  0  0999 V3000
M  V30 BEGIN CTAB
M  V30 COUNTS 67 70 0 0 1
M  V30 BEGIN ATOM
M  V30 1 C 37.518945 34.679561 59.446062 0
M  V30 2 C 38.289455 25.225241 56.330459 0
M  V30 3 N 41.852098 32.822793 63.384540 0
M  V30 4 C 38.578661 27.508957 54.721137 0
M  V30 5 C 41.445199 34.933032 63.779334 0
M  V30 6 N 39.648787 29.785516 54.273179 0
M  V30 7 F 37.467430 24.421839 58.283916 0
M  V30 8 C 40.238834 32.354980 61.577904 0
M  V30 9 C 40.215745 30.061206 51.912461 0 CFG=1
M  V30 10 C 37.393157 31.504857 60.243197 0
M  V30 11 C 39.853628 30.788710 53.220675 0
M  V30 12 C 40.896407 33.312697 62.586675 0
M  V30 13 C 38.284434 33.494163 58.787077 0 CFG=1
M  V30 14 N 41.610103 31.576460 63.999113 0
M  V30 15 N 39.131742 29.221456 51.473263 0
M  V30 16 O 40.589364 31.180682 61.430254 0
M  V30 17 O 36.188246 34.354131 59.795758 0
M  V30 18 C 38.703267 28.732439 53.834580 0 CFG=1
M  V30 19 C 38.045060 32.213970 56.639707 0
M  V30 20 C 38.105403 24.021444 57.200747 0
M  V30 21 C 39.572463 27.191097 55.676060 0
M  V30 22 C 40.451647 30.847959 50.650111 0
M  V30 23 C 39.423984 26.048364 56.483266 0
M  V30 24 C 39.387768 30.406080 55.584768 0
M  V30 25 N 40.540069 34.530314 62.644194 0
M  V30 26 C 40.181411 29.810540 49.566597 0
M  V30 27 C 37.467303 26.672670 54.567921 0
M  V30 28 C 37.319960 25.536360 55.369279 0
M  V30 29 O 42.267352 33.800102 64.268769 0
M  V30 30 C 38.203248 31.346452 55.662430 0
M  V30 31 C 38.600399 32.331215 59.764974 0 CFG=1
M  V30 32 O 39.254443 32.944330 60.871990 0
M  V30 33 C 39.031715 28.149893 52.430291 0
M  V30 34 C 37.587181 33.109722 57.489217 0
M  V30 35 O 39.654510 28.676631 50.253159 0
M  V30 36 H 37.467396 35.517962 58.750941 0
M  V30 37 H 38.036814 35.055661 60.327715 0
M  V30 38 H 42.110003 35.737505 63.457515 0
M  V30 39 H 40.859172 35.330057 64.609331 0
M  V30 40 H 41.067381 29.411649 52.066355 0
M  V30 41 H 36.818757 31.123027 59.397887 0
M  V30 42 H 37.722674 30.648238 60.831327 0
M  V30 43 H 36.722067 32.089576 60.871189 0
M  V30 44 H 38.976299 31.419095 53.078274 0
M  V30 45 H 40.674342 31.432237 53.526355 0
M  V30 46 H 39.259576 33.875014 58.486736 0
M  V30 47 H 41.297582 30.912515 63.290886 0
M  V30 48 H 42.477686 31.235487 64.407680 0
M  V30 49 H 35.715090 35.151423 59.977444 0
M  V30 50 H 37.716230 29.195379 53.779379 0
M  V30 51 H 37.426954 23.315095 56.729002 0
M  V30 52 H 39.050804 23.553346 57.472938 0
M  V30 53 H 40.441130 27.821427 55.791200 0
M  V30 54 H 39.750817 31.677657 50.565253 0
M  V30 55 H 41.469784 31.221419 50.594289 0
M  V30 56 H 40.174672 25.806420 57.220861 0
M  V30 57 H 40.267391 30.972409 55.880303 0
M  V30 58 H 39.247444 29.647467 56.352018 0
M  V30 59 H 41.080824 29.581607 49.006821 0
M  V30 60 H 39.467454 30.190967 48.845900 0
M  V30 61 H 36.714035 26.911104 53.829815 0
M  V30 62 H 36.453707 24.902698 55.249682 0
M  V30 63 H 37.475369 31.273491 54.869324 0
M  V30 64 H 39.288777 31.651346 59.265670 0
M  V30 65 H 38.241928 27.478275 52.091351 0
M  V30 66 H 39.951316 27.564029 52.454209 0
M  V30 67 H 36.667254 33.622692 57.285844 0
M  V30 END ATOM
M  V30 BEGIN BOND
M  V30 1 1 11 6
M  V30 2 1 11 9
M  V30 3 1 12 3
M  V30 4 1 12 8
M  V30 5 1 13 1
M  V30 6 1 14 3
M  V30 7 1 15 9
M  V30 8 2 16 8
M  V30 9 1 17 1
M  V30 10 1 18 4
M  V30 11 1 18 6
M  V30 12 1 20 2
M  V30 13 1 20 7
M  V30 14 1 21 4
M  V30 15 1 22 9
M  V30 16 1 23 2
M  V30 17 2 23 21
M  V30 18 1 24 6
M  V30 19 1 25 5
M  V30 20 2 25 12
M  V30 21 1 26 22
M  V30 22 2 27 4
M  V30 23 2 28 2
M  V30 24 1 28 27
M  V30 25 1 29 3
M  V30 26 1 29 5
M  V30 27 2 30 19
M  V30 28 1 30 24
M  V30 29 1 31 10
M  V30 30 1 31 13
M  V30 31 1 32 8
M  V30 32 1 32 31
M  V30 33 1 33 15
M  V30 34 1 33 18
M  V30 35 1 34 13
M  V30 36 2 34 19
M  V30 37 1 35 15
M  V30 38 1 35 26
M  V30 39 1 36 1
M  V30 40 1 37 1
M  V30 41 1 38 5
M  V30 42 1 39 5
M  V30 43 1 9 40 CFG=1
M  V30 44 1 41 10
M  V30 45 1 42 10
M  V30 46 1 43 10
M  V30 47 1 44 11
M  V30 48 1 45 11
M  V30 49 1 13 46 CFG=3
M  V30 50 1 47 14
M  V30 51 1 48 14
M  V30 52 1 49 17
M  V30 53 1 18 50 CFG=3
M  V30 54 1 51 20
M  V30 55 1 52 20
M  V30 56 1 53 21
M  V30 57 1 54 22
M  V30 58 1 55 22
M  V30 59 1 56 23
M  V30 60 1 57 24
M  V30 61 1 58 24
M  V30 62 1 59 26
M  V30 63 1 60 26
M  V30 64 1 61 27
M  V30 65 1 62 28
M  V30 66 1 63 30
M  V30 67 1 31 64 CFG=3
M  V30 68 1 65 33
M  V30 69 1 66 33
M  V30 70 1 67 34
M  V30 END BOND
M  V30 END CTAB
M  END
>  <i_epik_Tot_Q>  (1) 
0

>  <i_epik_Tot_abs_Q>  (1) 
0

>  <i_i_glide_confnum>  (1) 
333

>  <i_i_glide_lignum>  (1) 
42

>  <i_i_glide_posenum>  (1) 
77

>  <i_i_glide_rotatable_bonds>  (1) 
11

>  <i_lp_mmshare_version>  (1) 
72125

>  <i_m_source_file_index>  (1) 
14

>  <i_f3d_flags>  (1) 
0

>  <num_sample>  (1) 
50

>  <b_lp_Chiralities_Consistent>  (1) 
1

>  <r_epik_Charging_Adjusted_Penalty>  (1) 
0.22633531445783178

>  <r_epik_Ionization_Penalty>  (1) 
0.23418350974146993

>  <r_epik_Ionization_Penalty_Charging>  (1) 
0

>  <r_epik_Ionization_Penalty_Neutral>  (1) 
0.23418350974146993

>  <r_epik_State_Penalty>  (1) 
0.22633531445783178

>  <r_glide_ring_energy>  (1) 
0

>  <r_i_docking_score>  (1) 
-8.1243827809870108

>  <r_i_glide_ecoul>  (1) 
-1.3465808201843772

>  <r_i_glide_eff_state_penalty>  (1) 
0.22633531445783178

>  <r_i_glide_einternal>  (1) 
6.5849601935554745

>  <r_i_glide_emodel>  (1) 
-69.783811452446272

>  <r_i_glide_emodel_strain>  (1) 
2.2266024932325337

>  <r_i_glide_energy>  (1) 
-48.636876320379713

>  <r_i_glide_erotb>  (1) 
0.76399126750113433

>  <r_i_glide_esite>  (1) 
0

>  <r_i_glide_evdw>  (1) 
-47.290295500195334

>  <r_i_glide_gscore>  (1) 
-8.3507180954448419

>  <r_i_glide_gscore_strain>  (1) 
0

>  <r_i_glide_hbond>  (1) 
-0.022568951313340725

>  <r_i_glide_ligand_efficiency>  (1) 
-0.23212522231391461

>  <r_i_glide_ligand_efficiency_ln>  (1) 
-1.7834823313875754

>  <r_i_glide_ligand_efficiency_sa>  (1) 
-0.75929699445608279

>  <r_i_glide_lipo>  (1) 
-3.8572780829711699

>  <r_i_glide_metal>  (1) 
-0

>  <r_i_glide_rewards>  (1) 
-2.6683604306240429

>  <r_lp_Energy>  (1) 
-4.0023499999999999

>  <s_epik_Chemistry_Notes>  (1) 
This compound has an ester and may undergo hydrolysis at high or low pH. This compound has an imine and may undergo hydrolysis. This compound contains an acetal/aminal-like group ( X-CH(R)-Y where X, Y are N, S, or O) that may be acid/base labile, releasing an aldehyde. This compound has a N-S or N-O group and may undergo hydrolysis at high or low pH.

>  <s_epik_cmdline>  (1) 
J2VwaWtfcHl0aG9uJywgJy1waHQnLCAnMS4wJywgJy1waCcsICc3LjQnLCAnLXRuJywgJzgnLCAnLW1hJywgJzUwMCcsICctaW1hZScsICc8aW5maWxlLm1hZT4nLCAnLW9tYWUnLCAnPG91dGZpbGUubWFlPic=

>  <s_epik_input>  (1) 
TzFbQ0gyXU49QyhOMVtOSDJdKUMoPU8pT1tDQEBIXShbQ0gzXSlbQ0BIXShbQ0gyXVtPSF0pW0NIXT1DPVtDSF1bQ0gyXU4oW0NIMl0yKVtDQEhdKGMoW2NIXVtjSF0zKVtjSF1bY0hdYzNbQ0gyXUYpW0NIMl1OKFtDQEhdMjQpT1tDSDJdW0NIMl00

>  <s_glide_docking_method>  (1) 
confgen

>  <s_i_glide_gridfile>  (1) 
gpcr_5ht2c_6bqh_protein_autoprepared_prepared

>  <s_lp_Force_Field>  (1) 
S-OPLS

>  <s_lp_Variant>  (1) 
DiffSBDD_13_num_sample_50-1

>  <s_m_source_file>  (1) 
generated__ligand_DiffSBDD_2026-05-06_prepared.sdf

>  <GenAI_Model>  (1) 
DiffSBDD

>  <Protein>  (1) 
GPCR_5HT2C

$$$$
DiffSBDD_2_num_sample_50
     RDKit          3D

  0  0  0  0  0  0  0  0  0  0999 V3000
M  V30 BEGIN CTAB
M  V30 COUNTS 69 73 0 0 1
M  V30 BEGIN ATOM
M  V30 1 C 37.781712 30.152428 57.713308 0
M  V30 2 C 40.640454 34.172560 63.064858 0
M  V30 3 C 37.795416 33.156667 56.808852 0
M  V30 4 C 37.288190 31.621496 62.084645 0
M  V30 5 F 42.269452 33.626866 64.703223 0
M  V30 6 C 41.498196 33.117554 63.742528 0
M  V30 7 C 37.512788 30.727570 58.859431 0
M  V30 8 C 38.787479 29.216532 59.302008 0
M  V30 9 C 35.162559 33.520446 61.225782 0
M  V30 10 C 37.244306 33.312137 58.259324 0 CFG=1
M  V30 11 C 39.736282 28.417913 57.051680 0
M  V30 12 C 41.323851 28.505249 62.274364 0 CFG=2
M  V30 13 C 36.944814 37.573753 61.925808 0
M  V30 14 C 38.870387 34.740575 61.467036 0
M  V30 15 C 39.631571 28.412879 55.542876 0
M  V30 16 C 39.521681 33.317669 59.069597 0
M  V30 17 C 37.822184 34.281579 60.413073 0 CFG=2
M  V30 18 C 40.828830 27.983256 57.706587 0
M  V30 19 O 41.060665 28.314271 63.646034 0
M  V30 20 O 35.467380 34.421426 62.253524 0
M  V30 21 C 39.994973 36.504142 62.757790 0
M  V30 22 F 40.706530 32.192163 64.283244 0
M  V30 23 O 41.057475 29.823233 61.789878 0
M  V30 24 C 40.791992 35.533766 63.391481 0
M  V30 25 C 40.106904 28.803346 61.433619 0 CFG=1
M  V30 26 C 39.689916 33.781429 62.106629 0
M  V30 27 P 36.791700 32.796044 60.756699 0 CFG=1 CHG=1
M  V30 28 C 40.922803 28.021478 59.167314 0
M  V30 29 C 36.729580 32.047898 59.053513 0 CFG=2
M  V30 30 C 38.190397 37.200844 61.119348 0
M  V30 31 C 38.516511 28.885138 57.798712 0 CFG=2
M  V30 32 N 38.020045 30.039022 59.926518 0
M  V30 33 N 38.267374 34.021416 59.057858 0
M  V30 34 C 39.033001 36.122735 61.794693 0
M  V30 35 F 42.267338 32.534645 62.824966 0
M  V30 36 C 39.972898 28.597287 59.947455 0
M  V30 37 H 37.466089 30.539655 56.757653 0
M  V30 38 H 37.067435 32.772647 56.114012 0
M  V30 39 H 38.116573 34.119880 56.410481 0
M  V30 40 H 38.628906 32.466265 56.709216 0
M  V30 41 H 38.312899 31.263242 62.092897 0
M  V30 42 H 37.067426 32.026109 63.053494 0
M  V30 43 H 36.666633 30.760124 61.853568 0
M  V30 44 H 34.488162 32.771333 61.623493 0
M  V30 45 H 34.669354 34.021000 60.392643 0
M  V30 46 H 36.398664 34.000304 58.191046 0
M  V30 47 H 42.207931 28.020894 61.893252 0
M  V30 48 H 36.406886 38.401042 61.462439 0
M  V30 49 H 36.267401 36.734212 61.998347 0
M  V30 50 H 37.198906 37.864690 62.943419 0
M  V30 51 H 39.898132 29.390048 55.137609 0
M  V30 52 H 40.270432 27.647413 55.104718 0
M  V30 53 H 38.608880 28.188144 55.239622 0
M  V30 54 H 39.885217 33.221359 58.057124 0
M  V30 55 H 40.267389 33.916625 59.582517 0
M  V30 56 H 39.467291 32.342183 59.548891 0
M  V30 57 H 37.088513 35.077385 60.319084 0
M  V30 58 H 41.672946 27.617884 57.136878 0
M  V30 59 H 40.129979 28.421451 63.806027 0
M  V30 60 H 34.786456 34.420673 62.916037 0
M  V30 61 H 40.121877 37.547220 63.012021 0
M  V30 62 H 41.524464 35.836910 64.126869 0
M  V30 63 H 39.158420 28.858251 61.964928 0
M  V30 64 H 39.601345 32.746520 61.855184 0
M  V30 65 H 41.813178 27.626314 59.637161 0
M  V30 66 H 35.667972 31.830304 58.989594 0
M  V30 67 H 38.801040 38.102193 61.053609 0
M  V30 68 H 37.944566 36.950512 60.087929 0
M  V30 69 H 37.780392 28.080666 57.743625 0
M  V30 END ATOM
M  V30 BEGIN BOND
M  V30 1 1 6 2
M  V30 2 1 6 5
M  V30 3 2 7 1
M  V30 4 1 10 3
M  V30 5 1 15 11
M  V30 6 1 17 14
M  V30 7 2 18 11
M  V30 8 1 19 12
M  V30 9 1 20 9
M  V30 10 1 22 6
M  V30 11 1 23 12
M  V30 12 1 24 2
M  V30 13 2 24 21
M  V30 14 1 25 12
M  V30 15 1 25 23
M  V30 16 2 26 2
M  V30 17 1 26 14
M  V30 18 1 27 4 CFG=1
M  V30 19 1 27 9
M  V30 20 1 27 17
M  V30 21 1 28 18
M  V30 22 1 29 7
M  V30 23 1 29 10
M  V30 24 1 29 27
M  V30 25 1 30 13
M  V30 26 1 31 1
M  V30 27 1 31 8
M  V30 28 1 31 11
M  V30 29 1 32 7
M  V30 30 2 32 8
M  V30 31 1 33 10
M  V30 32 1 33 16
M  V30 33 1 33 17
M  V30 34 2 34 14
M  V30 35 1 34 21
M  V30 36 1 34 30
M  V30 37 1 35 6
M  V30 38 1 36 8
M  V30 39 1 36 25
M  V30 40 2 36 28
M  V30 41 1 37 1
M  V30 42 1 38 3
M  V30 43 1 39 3
M  V30 44 1 40 3
M  V30 45 1 41 4
M  V30 46 1 42 4
M  V30 47 1 43 4
M  V30 48 1 44 9
M  V30 49 1 45 9
M  V30 50 1 10 46 CFG=3
M  V30 51 1 12 47 CFG=3
M  V30 52 1 48 13
M  V30 53 1 49 13
M  V30 54 1 50 13
M  V30 55 1 51 15
M  V30 56 1 52 15
M  V30 57 1 53 15
M  V30 58 1 54 16
M  V30 59 1 55 16
M  V30 60 1 56 16
M  V30 61 1 17 57 CFG=3
M  V30 62 1 58 18
M  V30 63 1 59 19
M  V30 64 1 60 20
M  V30 65 1 61 21
M  V30 66 1 62 24
M  V30 67 1 25 63 CFG=1
M  V30 68 1 64 26
M  V30 69 1 65 28
M  V30 70 1 29 66 CFG=3
M  V30 71 1 67 30
M  V30 72 1 68 30
M  V30 73 1 31 69 CFG=1
M  V30 END BOND
M  V30 END CTAB
M  END
>  <i_epik_Tot_Q>  (1) 
1

>  <i_epik_Tot_abs_Q>  (1) 
1

>  <i_i_glide_confnum>  (1) 
5

>  <i_i_glide_lignum>  (1) 
9

>  <i_i_glide_posenum>  (1) 
271

>  <i_i_glide_rotatable_bonds>  (1) 
8

>  <i_lp_mmshare_version>  (1) 
72125

>  <i_m_source_file_index>  (1) 
3

>  <i_f3d_flags>  (1) 
0

>  <num_sample>  (1) 
50

>  <b_lp_Chiralities_Consistent>  (1) 
1

>  <r_epik_Charging_Adjusted_Penalty>  (1) 
0.0033292626678827373

>  <r_epik_Ionization_Penalty>  (1) 
0.0034349233012131116

>  <r_epik_Ionization_Penalty_Charging>  (1) 
0

>  <r_epik_Ionization_Penalty_Neutral>  (1) 
0.0034349233012131116

>  <r_epik_State_Penalty>  (1) 
0.0033292626678827373

>  <r_glide_ring_energy>  (1) 
0

>  <r_i_docking_score>  (1) 
-8.1081652429527882

>  <r_i_glide_ecoul>  (1) 
-9.2376996067705104

>  <r_i_glide_eff_state_penalty>  (1) 
0.0033292626678827373

>  <r_i_glide_einternal>  (1) 
4.0175316976535935

>  <r_i_glide_emodel>  (1) 
-39.878036006265994

>  <r_i_glide_emodel_strain>  (1) 
2.3411900274955997

>  <r_i_glide_energy>  (1) 
-36.600974724521379

>  <r_i_glide_erotb>  (1) 
0.30231676593683265

>  <r_i_glide_esite>  (1) 
-0.015464263585870797

>  <r_i_glide_evdw>  (1) 
-27.36327511775087

>  <r_i_glide_gscore>  (1) 
-8.1114945056206711

>  <r_i_glide_gscore_strain>  (1) 
0

>  <r_i_glide_hbond>  (1) 
-0.82939220879861209

>  <r_i_glide_ligand_efficiency>  (1) 
-0.22522681230424413

>  <r_i_glide_ligand_efficiency_ln>  (1) 
-1.7689825987026253

>  <r_i_glide_ligand_efficiency_sa>  (1) 
-0.74368254872905937

>  <r_i_glide_lipo>  (1) 
-3.4286776682739277

>  <r_i_glide_metal>  (1) 
-0

>  <r_i_glide_rewards>  (1) 
-1.3864584339959736

>  <r_lp_Energy>  (1) 
43.507885999999999

>  <s_epik_Chemistry_Notes>  (1) 
This compound has an imine and may undergo hydrolysis. This compound contains an acetal/aminal-like group ( X-CH(R)-Y where X, Y are N, S, or O) that may be acid/base labile, releasing an aldehyde.

>  <s_epik_cmdline>  (1) 
J2VwaWtfcHl0aG9uJywgJy1waHQnLCAnMS4wJywgJy1waCcsICc3LjQnLCAnLXRuJywgJzgnLCAnLW1hJywgJzUwMCcsICctaW1hZScsICc8aW5maWxlLm1hZT4nLCAnLW9tYWUnLCAnPG91dGZpbGUubWFlPic=

>  <s_epik_input>  (1) 
W09IXVtDSF0xT1tDQEhdMUMyPVtDSF1bQ0hdPUMoW0NIM10pW0NAQEhdKEMyPTMpW0NIXT1DKE4zKVtDQEBIXTRbQ0BIXShbQ0gzXSlOKFtDSDNdKVtDQEBIXShbUEArXTQoW0NIM10pW0NIMl1bT0hdKWMoW2NIXTUpYyhbQ0gyXVtDSDNdKVtjSF1bY0hdYzVDKEYpKEYpRg==

>  <s_glide_docking_method>  (1) 
confgen

>  <s_i_glide_gridfile>  (1) 
gpcr_5ht2c_6bqh_protein_autoprepared_prepared

>  <s_lp_Force_Field>  (1) 
S-OPLS

>  <s_lp_Variant>  (1) 
DiffSBDD_2_num_sample_50-2

>  <s_m_source_file>  (1) 
generated__ligand_DiffSBDD_2026-05-06_prepared.sdf

>  <GenAI_Model>  (1) 
DiffSBDD

>  <Protein>  (1) 
GPCR_5HT2C

$$$$
DiffSBDD_18_num_sample_50
     RDKit          3D

  0  0  0  0  0  0  0  0  0  0999 V3000
M  V30 BEGIN CTAB
M  V30 COUNTS 74 76 0 0 1
M  V30 BEGIN ATOM
M  V30 1 C 38.743692 27.036604 54.684814 0
M  V30 2 C 38.434906 26.377551 56.030891 0 CFG=1
M  V30 3 C 40.239262 29.239898 51.714997 0
M  V30 4 F 40.281579 36.832616 61.853508 0
M  V30 5 C 38.035940 32.427456 61.628398 0
M  V30 6 C 38.326600 31.439611 58.186246 0 CFG=2
M  V30 7 C 38.897722 29.056728 51.050766 0
M  V30 8 C 39.188703 33.316963 62.059528 0
M  V30 9 F 40.276377 31.453024 63.131537 0
M  V30 10 C 38.176541 28.457444 54.712996 0
M  V30 11 C 41.321008 33.596732 63.237735 0
M  V30 12 C 38.077371 31.803275 56.709528 0
M  V30 13 C 36.903200 33.158740 60.923885 0 CFG=2
M  V30 14 N 35.586592 32.546030 61.084175 0
M  V30 15 C 38.967272 30.036791 58.371186 0
M  V30 16 C 38.004722 28.830364 58.229083 0
M  V30 17 O 39.295486 31.930995 56.013429 0
M  V30 18 C 41.320906 34.967309 62.919967 0
M  V30 19 O 38.039169 31.215851 61.847606 0
M  V30 20 C 39.208291 34.701498 61.730102 0
M  V30 21 S 39.867402 30.114470 53.250879 0
M  V30 22 C 39.657168 27.280280 59.423140 0
M  V30 23 C 37.888158 28.648297 52.138326 0
M  V30 24 C 40.263414 32.768972 62.812359 0
M  V30 25 C 38.550798 24.841313 55.985391 0
M  V30 26 N 39.321505 26.987139 57.044652 0 CHG=1
M  V30 27 F 37.467410 30.314831 53.853504 0
M  V30 28 C 36.682622 32.901067 59.418503 0 CFG=2
M  V30 29 C 35.188197 32.955230 59.747033 0
M  V30 30 C 37.346672 24.188115 55.278311 0
M  V30 31 C 38.658702 27.424752 58.293883 0 CFG=2
M  V30 32 C 38.273987 29.334768 53.475757 0 CFG=1
M  V30 33 C 40.271500 35.516525 62.163987 0
M  V30 34 N 37.067398 31.546088 58.951155 0 CHG=1
M  V30 35 H 39.813687 27.039235 54.470907 0
M  V30 36 H 38.271048 26.454357 53.901518 0
M  V30 37 H 37.399926 26.602711 56.291562 0
M  V30 38 H 40.938576 29.806216 51.098349 0
M  V30 39 H 40.667383 28.255433 51.889218 0
M  V30 40 H 39.021831 32.172087 58.598989 0
M  V30 41 H 38.667401 30.021447 50.623006 0
M  V30 42 H 38.937808 28.337832 50.232160 0
M  V30 43 H 37.116589 28.375466 54.950240 0
M  V30 44 H 38.634673 29.016770 55.524864 0
M  V30 45 H 42.133432 33.178230 63.814184 0
M  V30 46 H 37.536036 32.746874 56.620333 0
M  V30 47 H 37.467413 31.044901 56.224784 0
M  V30 48 H 36.752226 34.194702 61.218903 0
M  V30 49 H 35.032492 33.001773 61.798560 0
M  V30 50 H 39.800985 29.927584 57.677200 0
M  V30 51 H 39.413669 30.005046 59.365647 0
M  V30 52 H 37.293971 28.880030 59.053651 0
M  V30 53 H 37.387411 28.922226 57.338179 0
M  V30 54 H 39.100960 32.083664 55.098973 0
M  V30 55 H 42.132244 35.599274 63.254217 0
M  V30 56 H 38.417161 35.143817 61.152554 0
M  V30 57 H 39.252265 27.621441 60.378232 0
M  V30 58 H 39.867405 26.215029 59.453504 0
M  V30 59 H 40.590251 27.814432 59.237786 0
M  V30 60 H 37.959460 27.567444 52.202144 0
M  V30 61 H 36.854377 28.821419 51.853549 0
M  V30 62 H 39.476749 24.551643 55.487605 0
M  V30 63 H 38.607924 24.439605 56.998369 0
M  V30 64 H 39.774691 27.790737 56.634635 0
M  V30 65 H 36.997272 33.710277 58.758348 0
M  V30 66 H 34.754006 33.957203 59.726075 0
M  V30 67 H 34.565792 32.229350 59.220294 0
M  V30 68 H 37.467409 23.113039 55.169585 0
M  V30 69 H 36.425532 24.358267 55.836811 0
M  V30 70 H 37.192424 24.579705 54.273814 0
M  V30 71 H 37.867396 26.702837 58.500042 0
M  V30 72 H 36.321516 31.268160 58.315251 0
M  V30 73 H 40.038598 26.311174 57.272176 0
M  V30 74 H 37.070221 30.933164 59.754286 0
M  V30 END ATOM
M  V30 BEGIN BOND
M  V30 1 1 2 1
M  V30 2 1 7 3
M  V30 3 1 8 5
M  V30 4 1 10 1
M  V30 5 1 12 6
M  V30 6 1 13 5
M  V30 7 1 14 13
M  V30 8 1 15 6
M  V30 9 1 16 15
M  V30 10 1 17 12
M  V30 11 2 18 11
M  V30 12 2 19 5
M  V30 13 1 20 8
M  V30 14 1 21 3
M  V30 15 1 23 7
M  V30 16 2 24 8
M  V30 17 1 24 9
M  V30 18 1 24 11
M  V30 19 1 25 2
M  V30 20 1 26 2
M  V30 21 1 28 13
M  V30 22 1 29 14
M  V30 23 1 29 28
M  V30 24 1 30 25
M  V30 25 1 31 16
M  V30 26 1 31 22
M  V30 27 1 31 26
M  V30 28 1 32 10
M  V30 29 1 32 21
M  V30 30 1 32 23
M  V30 31 1 32 27 CFG=1
M  V30 32 1 33 4
M  V30 33 1 33 18
M  V30 34 2 33 20
M  V30 35 1 34 6
M  V30 36 1 34 28
M  V30 37 1 35 1
M  V30 38 1 36 1
M  V30 39 1 2 37 CFG=1
M  V30 40 1 38 3
M  V30 41 1 39 3
M  V30 42 1 6 40 CFG=1
M  V30 43 1 41 7
M  V30 44 1 42 7
M  V30 45 1 43 10
M  V30 46 1 44 10
M  V30 47 1 45 11
M  V30 48 1 46 12
M  V30 49 1 47 12
M  V30 50 1 13 48 CFG=3
M  V30 51 1 49 14
M  V30 52 1 50 15
M  V30 53 1 51 15
M  V30 54 1 52 16
M  V30 55 1 53 16
M  V30 56 1 54 17
M  V30 57 1 55 18
M  V30 58 1 56 20
M  V30 59 1 57 22
M  V30 60 1 58 22
M  V30 61 1 59 22
M  V30 62 1 60 23
M  V30 63 1 61 23
M  V30 64 1 62 25
M  V30 65 1 63 25
M  V30 66 1 64 26
M  V30 67 1 28 65 CFG=3
M  V30 68 1 66 29
M  V30 69 1 67 29
M  V30 70 1 68 30
M  V30 71 1 69 30
M  V30 72 1 70 30
M  V30 73 1 31 71 CFG=1
M  V30 74 1 72 34
M  V30 75 1 73 26
M  V30 76 1 74 34
M  V30 END BOND
M  V30 END CTAB
M  END
>  <i_epik_Tot_Q>  (1) 
2

>  <i_epik_Tot_abs_Q>  (1) 
2

>  <i_i_glide_confnum>  (1) 
7954

>  <i_i_glide_lignum>  (1) 
50

>  <i_i_glide_posenum>  (1) 
17

>  <i_i_glide_rotatable_bonds>  (1) 
15

>  <i_lp_mmshare_version>  (1) 
72125

>  <i_m_source_file_index>  (1) 
19

>  <i_f3d_flags>  (1) 
0

>  <num_sample>  (1) 
50

>  <b_lp_Chiralities_Consistent>  (1) 
1

>  <r_epik_Charging_Adjusted_Penalty>  (1) 
0.1621260604540144

>  <r_epik_Ionization_Penalty>  (1) 
0.081641699249211233

>  <r_epik_Ionization_Penalty_Charging>  (1) 
0.081638306134831307

>  <r_epik_Ionization_Penalty_Neutral>  (1) 
3.3931143799284323e-06

>  <r_epik_State_Penalty>  (1) 
0.080487754319183077

>  <r_glide_ring_energy>  (1) 
0

>  <r_i_docking_score>  (1) 
-8.102061960933808

>  <r_i_glide_ecoul>  (1) 
-7.0817536567574191

>  <r_i_glide_eff_state_penalty>  (1) 
0.080487754319183077

>  <r_i_glide_einternal>  (1) 
28.04346427215734

>  <r_i_glide_emodel>  (1) 
-62.096383198995831

>  <r_i_glide_emodel_strain>  (1) 
2.7052606732725692

>  <r_i_glide_energy>  (1) 
-46.916252210489446

>  <r_i_glide_erotb>  (1) 
0.96692483815447339

>  <r_i_glide_esite>  (1) 
-0.10000000000000001

>  <r_i_glide_evdw>  (1) 
-39.834498553732026

>  <r_i_glide_gscore>  (1) 
-8.1825497152529909

>  <r_i_glide_gscore_strain>  (1) 
0

>  <r_i_glide_hbond>  (1) 
-0.28124724465694673

>  <r_i_glide_ligand_efficiency>  (1) 
-0.23829594002746493

>  <r_i_glide_ligand_efficiency_ln>  (1) 
-1.7899727423106377

>  <r_i_glide_ligand_efficiency_sa>  (1) 
-0.77198633950948692

>  <r_i_glide_lipo>  (1) 
-4.4212915752456405

>  <r_i_glide_metal>  (1) 
-0

>  <r_i_glide_rewards>  (1) 
-1.2929477573046628

>  <r_lp_Energy>  (1) 
44.339452000000001

>  <r_lp_tautomer_probability>  (1) 
0.99990000499974985

>  <s_epik_cmdline>  (1) 
J2VwaWtfcHl0aG9uJywgJy1waHQnLCAnMS4wJywgJy1waCcsICc3LjQnLCAnLXRuJywgJzgnLCAnLW1hJywgJzUwMCcsICctaW1hZScsICc8aW5maWxlLm1hZT4nLCAnLW9tYWUnLCAnPG91dGZpbGUubWFlPic=

>  <s_epik_input>  (1) 
W0NIMl0xW0NIMl1bQ0gyXVNbQ0BdMShGKVtDSDJdW0NIMl1bQ0BASF0oW0NIMl1bQ0gzXSlbTkhdW0NAQEhdKFtDSDNdKVtDSDJdW0NIMl1bQ0BASF0oW0NIMl1bT0hdKVtOSF1bQ0BIXTJbQ0gyXVtOSF1bQ0BIXTJDKD1PKWMzW2NIXWMoRilbY0hdW2NIXWMzRg==

>  <s_glide_docking_method>  (1) 
confgen

>  <s_i_glide_gridfile>  (1) 
gpcr_5ht2c_6bqh_protein_autoprepared_prepared

>  <s_lp_Force_Field>  (1) 
S-OPLS

>  <s_lp_Variant>  (1) 
DiffSBDD_18_num_sample_50-1

>  <s_m_source_file>  (1) 
generated__ligand_DiffSBDD_2026-05-06_prepared.sdf

>  <GenAI_Model>  (1) 
DiffSBDD

>  <Protein>  (1) 
GPCR_5HT2C

$$$$
DiffSBDD_44_num_sample_50
     RDKit          3D

  0  0  0  0  0  0  0  0  0  0999 V3000
M  V30 BEGIN CTAB
M  V30 COUNTS 65 67 0 0 1
M  V30 BEGIN ATOM
M  V30 1 C 39.092677 35.811807 61.712044 0
M  V30 2 C 38.370265 29.573896 55.099221 0
M  V30 3 C 41.109337 33.512688 63.388326 0
M  V30 4 O 37.400843 32.455115 61.751163 0
M  V30 5 O 37.507463 37.621940 61.853982 0
M  V30 6 C 40.964537 33.155212 61.940752 0
M  V30 7 F 41.260966 31.918710 66.708861 0
M  V30 8 C 39.227747 27.354266 54.485803 0
M  V30 9 C 37.997726 30.080384 57.610315 0 CFG=2
M  V30 10 O 39.468033 25.635052 56.059322 0
M  V30 11 C 40.038851 36.569351 62.668029 0
M  V30 12 C 41.261759 32.875836 65.752012 0
M  V30 13 C 37.835261 36.575573 61.300498 0
M  V30 14 C 38.680815 28.530749 54.116909 0
M  V30 15 O 37.833744 30.637632 54.792534 0
M  V30 16 O 41.269955 35.857944 62.802037 0
M  V30 17 O 40.552123 29.313746 61.363106 0
M  V30 18 C 38.871553 27.734519 56.862845 0
M  V30 19 C 36.006222 32.507023 61.451964 0
M  V30 20 C 37.001186 35.982352 60.171918 0
M  V30 21 O 36.667432 29.621516 57.747533 0
M  V30 22 C 41.417546 34.225485 66.111299 0
M  V30 23 C 38.783364 29.265014 56.562406 0 CFG=1
M  V30 24 C 39.450440 31.272428 62.107299 0 CFG=2
M  V30 25 C 41.110082 32.516429 64.399133 0
M  V30 26 C 38.249208 31.386227 59.746639 0
M  V30 27 C 41.268429 34.873378 63.762534 0
M  V30 28 C 39.018414 27.221343 52.349376 0
M  V30 29 C 38.632645 30.091629 59.013225 0
M  V30 30 O 39.464883 26.507577 53.452914 0
M  V30 31 N 39.558035 27.008949 55.793530 0
M  V30 32 O 39.872861 29.961584 62.478650 0
M  V30 33 C 41.421890 35.221655 65.120717 0
M  V30 34 C 38.121163 31.305968 61.288661 0 CFG=2
M  V30 35 N 40.505946 32.059361 61.471855 0
M  V30 36 C 38.529822 28.453476 52.713978 0
M  V30 37 H 39.630681 35.560887 60.797949 0
M  V30 38 H 38.776307 34.873266 62.166550 0
M  V30 39 H 41.284802 33.927907 61.240551 0
M  V30 40 H 37.950337 31.112709 57.256444 0
M  V30 41 H 40.361210 25.339745 56.173753 0
M  V30 42 H 39.565975 36.732188 63.638205 0
M  V30 43 H 40.266157 37.557130 62.265221 0
M  V30 44 H 39.837260 28.837985 60.970104 0
M  V30 45 H 39.408758 27.571830 57.797379 0
M  V30 46 H 37.870500 27.321585 56.996651 0
M  V30 47 H 35.473807 31.645426 61.853467 0
M  V30 48 H 35.578040 33.409535 61.883222 0
M  V30 49 H 35.781672 32.575974 60.390500 0
M  V30 50 H 37.607158 35.335229 59.538343 0
M  V30 51 H 36.182187 35.391249 60.578298 0
M  V30 52 H 36.582158 36.776032 59.553462 0
M  V30 53 H 36.088186 30.326152 57.449877 0
M  V30 54 H 41.535061 34.497070 67.150176 0
M  V30 55 H 39.807081 29.636304 56.607467 0
M  V30 56 H 39.144929 31.710381 63.053763 0
M  V30 57 H 41.007802 31.475767 64.137635 0
M  V30 58 H 37.283721 31.669139 59.341993 0
M  V30 59 H 38.902682 32.203500 59.442597 0
M  V30 60 H 39.120565 26.709762 51.403312 0
M  V30 61 H 39.717793 30.020683 58.939171 0
M  V30 62 H 38.306055 29.213054 59.572089 0
M  V30 63 H 41.542298 36.257682 65.400833 0
M  V30 64 H 37.536901 30.426052 61.562487 0
M  V30 65 H 38.124974 29.200363 52.047821 0
M  V30 END ATOM
M  V30 BEGIN BOND
M  V30 1 1 6 3
M  V30 2 1 11 1
M  V30 3 1 12 7
M  V30 4 1 13 1
M  V30 5 2 13 5
M  V30 6 1 14 2
M  V30 7 2 14 8
M  V30 8 2 15 2
M  V30 9 1 16 11
M  V30 10 1 19 4
M  V30 11 1 20 13
M  V30 12 1 21 9
M  V30 13 1 22 12
M  V30 14 1 23 2
M  V30 15 1 23 9
M  V30 16 1 23 18
M  V30 17 1 25 3
M  V30 18 2 25 12
M  V30 19 2 27 3
M  V30 20 1 27 16
M  V30 21 1 29 9
M  V30 22 1 29 26
M  V30 23 1 30 8
M  V30 24 1 30 28
M  V30 25 1 31 8
M  V30 26 1 31 10
M  V30 27 1 31 18
M  V30 28 1 32 17
M  V30 29 1 32 24
M  V30 30 2 33 22
M  V30 31 1 33 27
M  V30 32 1 34 4
M  V30 33 1 34 24
M  V30 34 1 34 26
M  V30 35 2 35 6
M  V30 36 1 35 24
M  V30 37 1 36 14
M  V30 38 2 36 28
M  V30 39 1 37 1
M  V30 40 1 38 1
M  V30 41 1 39 6
M  V30 42 1 9 40 CFG=3
M  V30 43 1 41 10
M  V30 44 1 42 11
M  V30 45 1 43 11
M  V30 46 1 44 17
M  V30 47 1 45 18
M  V30 48 1 46 18
M  V30 49 1 47 19
M  V30 50 1 48 19
M  V30 51 1 49 19
M  V30 52 1 50 20
M  V30 53 1 51 20
M  V30 54 1 52 20
M  V30 55 1 53 21
M  V30 56 1 54 22
M  V30 57 1 23 55 CFG=3
M  V30 58 1 24 56 CFG=1
M  V30 59 1 57 25
M  V30 60 1 58 26
M  V30 61 1 59 26
M  V30 62 1 60 28
M  V30 63 1 61 29
M  V30 64 1 62 29
M  V30 65 1 63 33
M  V30 66 1 34 64 CFG=3
M  V30 67 1 65 36
M  V30 END BOND
M  V30 END CTAB
M  END
>  <i_epik_Tot_Q>  (1) 
0

>  <i_epik_Tot_abs_Q>  (1) 
0

>  <i_i_glide_confnum>  (1) 
2957

>  <i_i_glide_lignum>  (1) 
103

>  <i_i_glide_posenum>  (1) 
192

>  <i_i_glide_rotatable_bonds>  (1) 
16

>  <i_lp_mmshare_version>  (1) 
72125

>  <i_m_source_file_index>  (1) 
45

>  <i_f3d_flags>  (1) 
0

>  <num_sample>  (1) 
50

>  <b_lp_Chiralities_Consistent>  (1) 
1

>  <r_epik_Charging_Adjusted_Penalty>  (1) 
0

>  <r_epik_Ionization_Penalty>  (1) 
0.00046426775496228489

>  <r_epik_Ionization_Penalty_Charging>  (1) 
0

>  <r_epik_Ionization_Penalty_Neutral>  (1) 
0.00046426775496228489

>  <r_epik_State_Penalty>  (1) 
-0

>  <r_glide_ring_energy>  (1) 
0

>  <r_i_docking_score>  (1) 
-8.0975648012851469

>  <r_i_glide_ecoul>  (1) 
-6.8179773552866951

>  <r_i_glide_eff_state_penalty>  (1) 
-0

>  <r_i_glide_einternal>  (1) 
29.284000175996272

>  <r_i_glide_emodel>  (1) 
-73.718564651963163

>  <r_i_glide_emodel_strain>  (1) 
1.4385094267098566

>  <r_i_glide_energy>  (1) 
-60.75514355314791

>  <r_i_glide_erotb>  (1) 
0.87096195952989475

>  <r_i_glide_esite>  (1) 
-0.028541485427239846

>  <r_i_glide_evdw>  (1) 
-53.937166197861217

>  <r_i_glide_gscore>  (1) 
-8.0975648012851469

>  <r_i_glide_gscore_strain>  (1) 
0

>  <r_i_glide_hbond>  (1) 
-0.16

>  <r_i_glide_ligand_efficiency>  (1) 
-0.22493235559125407

>  <r_i_glide_ligand_efficiency_ln>  (1) 
-1.7666698687215834

>  <r_i_glide_ligand_efficiency_sa>  (1) 
-0.7427102740848176

>  <r_i_glide_lipo>  (1) 
-3.2104180989727991

>  <r_i_glide_metal>  (1) 
-0

>  <r_i_glide_rewards>  (1) 
-1.8500122632289375

>  <r_lp_Energy>  (1) 
33.654626

>  <r_lp_tautomer_probability>  (1) 
1

>  <s_epik_Chemistry_Notes>  (1) 
This compound has an imine and may undergo hydrolysis. This compound contains an acetal/aminal-like group ( X-CH(R)-Y where X, Y are N, S, or O) that may be acid/base labile, releasing an aldehyde. This compound has a N-S or N-O group and may undergo hydrolysis at high or low pH.

>  <s_epik_cmdline>  (1) 
J2VwaWtfcHl0aG9uJywgJy1waHQnLCAnMS4wJywgJy1waCcsICc3LjQnLCAnLXRuJywgJzgnLCAnLW1hJywgJzUwMCcsICctaW1hZScsICc8aW5maWxlLm1hZT4nLCAnLW9tYWUnLCAnPG91dGZpbGUubWFlPic=

>  <s_epik_input>  (1) 
Tz1DKFtDSDNdKVtDSDJdW0NIMl1PYzFbY0hdW2NIXWMoRilbY0hdYzEvW0NIXT1OXFtDQEhdKE9bT0hdKVtDQEBIXShPW0NIM10pW0NIMl1bQ0gyXVtDQEhdKFtPSF0pW0NAQEhdKFtDSDJdTjJbT0hdKUMoPU8pYyhjMjMpW2NIXVtjSF1vMw==

>  <s_glide_docking_method>  (1) 
confgen

>  <s_i_glide_gridfile>  (1) 
gpcr_5ht2c_6bqh_protein_autoprepared_prepared

>  <s_lp_Force_Field>  (1) 
S-OPLS

>  <s_lp_Variant>  (1) 
DiffSBDD_44_num_sample_50-2

>  <s_m_source_file>  (1) 
generated__ligand_DiffSBDD_2026-05-06_prepared.sdf

>  <GenAI_Model>  (1) 
DiffSBDD

>  <Protein>  (1) 
GPCR_5HT2C

$$$$
DiffSBDD_8_num_sample_50
     RDKit          3D

  0  0  0  0  0  0  0  0  0  0999 V3000
M  V30 BEGIN CTAB
M  V30 COUNTS 69 73 0 0 1
M  V30 BEGIN ATOM
M  V30 1 C 38.819354 31.472737 59.932297 0
M  V30 2 N 38.645461 28.680253 57.339352 0
M  V30 3 C 38.419605 28.452430 53.562796 0
M  V30 4 C 38.921158 28.129501 51.103306 0
M  V30 5 C 40.861210 27.936474 56.224316 0
M  V30 6 C 37.100681 24.339368 56.187298 0
M  V30 7 C 39.068307 28.898921 52.394024 0
M  V30 8 C 38.006441 24.740832 55.205389 0
M  V30 9 C 38.885232 28.974042 59.786146 0
M  V30 10 C 39.096803 25.558306 55.537491 0
M  V30 11 N 39.603952 30.232611 60.011026 0
M  V30 12 N 40.074315 28.345177 57.370341 0
M  V30 13 C 40.403463 33.066299 62.329664 0
M  V30 14 C 37.886965 34.322388 60.699024 0
M  V30 15 N 40.262033 34.191826 61.492935 0
M  V30 16 C 40.673630 30.851970 63.960264 0
M  V30 17 C 39.867384 30.054162 52.435860 0
M  V30 18 O 36.821695 29.221854 58.577083 0
M  V30 19 C 37.918613 28.660575 56.037836 0
M  V30 20 C 38.580974 29.161747 54.773519 0
M  V30 21 O 39.069985 36.245751 61.444980 0
M  V30 22 C 38.975727 34.854514 61.621942 0 CFG=1
M  V30 23 N 39.610062 30.892400 63.129546 0
M  V30 24 O 39.467384 26.836470 51.194625 0
M  V30 25 C 37.284548 24.749188 57.515583 0
M  V30 26 C 40.406785 26.917194 57.224871 0 CFG=1
M  V30 27 C 37.302919 33.038311 61.266817 0
M  V30 28 C 41.510270 32.987929 63.195140 0
M  V30 29 C 40.018285 30.758924 53.642254 0
M  V30 30 C 38.023902 28.967280 58.507015 0
M  V30 31 C 39.277777 25.994830 56.868777 0
M  V30 32 F 36.052639 23.551488 55.853499 0
M  V30 33 C 39.373827 30.319384 54.806859 0
M  V30 34 C 39.473866 31.973233 62.324299 0
M  V30 35 C 38.310273 31.888655 61.321927 0 CFG=2
M  V30 36 C 41.645993 31.864785 64.023746 0
M  V30 37 C 38.367113 25.574200 57.855366 0
M  V30 38 H 39.467571 32.262204 59.560756 0
M  V30 39 H 37.999519 31.440493 59.216426 0
M  V30 40 H 37.811931 27.558677 53.535842 0
M  V30 41 H 37.867423 28.045670 50.879217 0
M  V30 42 H 39.384881 28.667316 50.274928 0
M  V30 43 H 40.468769 27.815157 55.227672 0
M  V30 44 H 41.897564 28.255658 56.259099 0
M  V30 45 H 37.864813 24.421404 54.198932 0
M  V30 46 H 39.592358 28.142667 59.805293 0
M  V30 47 H 38.267494 28.793992 60.653379 0
M  V30 48 H 39.787734 25.863060 54.767215 0
M  V30 49 H 40.098476 30.212786 60.893330 0
M  V30 50 H 38.259013 34.191693 59.682703 0
M  V30 51 H 37.070540 35.041910 60.623653 0
M  V30 52 H 41.037741 34.836356 61.528240 0
M  V30 53 H 40.754515 29.979633 64.590498 0
M  V30 54 H 40.373682 30.396392 51.544291 0
M  V30 55 H 37.483465 27.677752 55.871406 0
M  V30 56 H 37.068458 29.335031 56.129172 0
M  V30 57 H 38.389212 36.655774 61.956451 0
M  V30 58 H 38.665670 34.744158 62.655423 0
M  V30 59 H 39.278893 26.368392 50.391798 0
M  V30 60 H 36.595043 24.435218 58.274661 0
M  V30 61 H 41.148351 26.464898 57.881658 0
M  V30 62 H 36.884414 33.220465 62.252816 0
M  V30 63 H 36.455495 32.734670 60.649780 0
M  V30 64 H 42.243567 33.781436 63.224645 0
M  V30 65 H 40.642225 31.621305 53.677459 0
M  V30 66 H 39.502361 30.861341 55.733078 0
M  V30 67 H 37.701056 31.049472 61.664452 0
M  V30 68 H 42.482016 31.780842 64.700833 0
M  V30 69 H 38.493900 25.896790 58.877293 0
M  V30 END ATOM
M  V30 BEGIN BOND
M  V30 1 2 7 3
M  V30 2 1 7 4
M  V30 3 1 8 6
M  V30 4 2 10 8
M  V30 5 1 11 1
M  V30 6 1 11 9
M  V30 7 1 12 2
M  V30 8 1 12 5
M  V30 9 1 15 13
M  V30 10 1 17 7
M  V30 11 1 19 2
M  V30 12 1 20 3
M  V30 13 1 20 19
M  V30 14 1 22 14
M  V30 15 1 22 15
M  V30 16 1 22 21
M  V30 17 1 23 16
M  V30 18 1 24 4
M  V30 19 2 25 6
M  V30 20 1 26 5
M  V30 21 1 26 12
M  V30 22 1 27 14
M  V30 23 2 28 13
M  V30 24 2 29 17
M  V30 25 1 30 2
M  V30 26 1 30 9
M  V30 27 2 30 18
M  V30 28 1 31 10
M  V30 29 1 31 26
M  V30 30 1 32 6
M  V30 31 2 33 20
M  V30 32 1 33 29
M  V30 33 1 34 13
M  V30 34 2 34 23
M  V30 35 1 35 1
M  V30 36 1 35 27
M  V30 37 1 35 34
M  V30 38 2 36 16
M  V30 39 1 36 28
M  V30 40 1 37 25
M  V30 41 2 37 31
M  V30 42 1 38 1
M  V30 43 1 39 1
M  V30 44 1 40 3
M  V30 45 1 41 4
M  V30 46 1 42 4
M  V30 47 1 43 5
M  V30 48 1 44 5
M  V30 49 1 45 8
M  V30 50 1 46 9
M  V30 51 1 47 9
M  V30 52 1 48 10
M  V30 53 1 49 11
M  V30 54 1 50 14
M  V30 55 1 51 14
M  V30 56 1 52 15
M  V30 57 1 53 16
M  V30 58 1 54 17
M  V30 59 1 55 19
M  V30 60 1 56 19
M  V30 61 1 57 21
M  V30 62 1 22 58 CFG=1
M  V30 63 1 59 24
M  V30 64 1 60 25
M  V30 65 1 26 61 CFG=1
M  V30 66 1 62 27
M  V30 67 1 63 27
M  V30 68 1 64 28
M  V30 69 1 65 29
M  V30 70 1 66 33
M  V30 71 1 35 67 CFG=1
M  V30 72 1 68 36
M  V30 73 1 69 37
M  V30 END BOND
M  V30 END CTAB
M  END
>  <i_epik_Tot_Q>  (1) 
0

>  <i_epik_Tot_abs_Q>  (1) 
0

>  <i_i_glide_confnum>  (1) 
799

>  <i_i_glide_lignum>  (1) 
30

>  <i_i_glide_posenum>  (1) 
307

>  <i_i_glide_rotatable_bonds>  (1) 
12

>  <i_lp_mmshare_version>  (1) 
72125

>  <i_m_source_file_index>  (1) 
9

>  <i_f3d_flags>  (1) 
0

>  <num_sample>  (1) 
50

>  <b_lp_Chiralities_Consistent>  (1) 
1

>  <r_epik_Charging_Adjusted_Penalty>  (1) 
1.1060706723907541

>  <r_epik_Ionization_Penalty>  (1) 
1.1273273106042034

>  <r_epik_Ionization_Penalty_Charging>  (1) 
0

>  <r_epik_Ionization_Penalty_Neutral>  (1) 
1.1273273106042034

>  <r_epik_State_Penalty>  (1) 
1.1060706723907541

>  <r_glide_ring_energy>  (1) 
0

>  <r_i_docking_score>  (1) 
-8.087835158400825

>  <r_i_glide_ecoul>  (1) 
-2.6309412972737509

>  <r_i_glide_eff_state_penalty>  (1) 
1.1060706723907541

>  <r_i_glide_einternal>  (1) 
3.2937993734815159

>  <r_i_glide_emodel>  (1) 
-76.223552109465118

>  <r_i_glide_emodel_strain>  (1) 
1.9426316855992809

>  <r_i_glide_energy>  (1) 
-49.262446075063949

>  <r_i_glide_erotb>  (1) 
0.80016093564374513

>  <r_i_glide_esite>  (1) 
0

>  <r_i_glide_evdw>  (1) 
-46.631504777790198

>  <r_i_glide_gscore>  (1) 
-9.1939058307915786

>  <r_i_glide_gscore_strain>  (1) 
0

>  <r_i_glide_hbond>  (1) 
-0.30762723105199224

>  <r_i_glide_ligand_efficiency>  (1) 
-0.2185901394162385

>  <r_i_glide_ligand_efficiency_ln>  (1) 
-1.7540618400995764

>  <r_i_glide_ligand_efficiency_sa>  (1) 
-0.72839083911712543

>  <r_i_glide_lipo>  (1) 
-5.6257486377087789

>  <r_i_glide_metal>  (1) 
-0

>  <r_i_glide_rewards>  (1) 
-1.3344744641939807

>  <r_lp_Energy>  (1) 
58.402149999999999

>  <r_lp_tautomer_probability>  (1) 
0.99999999999999911

>  <s_epik_Chemistry_Notes>  (1) 
This compound contains an acetal/aminal-like group ( X-CH(R)-Y where X, Y are N, S, or O) that may be acid/base labile, releasing an aldehyde.

>  <s_epik_cmdline>  (1) 
J2VwaWtfcHl0aG9uJywgJy1waHQnLCAnMS4wJywgJy1waCcsICc3LjQnLCAnLXRuJywgJzgnLCAnLW1hJywgJzUwMCcsICctaW1hZScsICc8aW5maWxlLm1hZT4nLCAnLW9tYWUnLCAnPG91dGZpbGUubWFlPic=

>  <s_epik_input>  (1) 
W2NIXTFbY0hdW2NIXW5jKGMxMilbQ0BASF0oW0NIMl1bQ0gyXVtDQEBIXShbTkhdMilbT0hdKVtDSDJdW05IXVtDSDJdQyg9TylOKFtDSDJdYyhbY0hdW2NIXVtjSF0zKVtjSF1jM1tDSDJdW09IXSlONFtDSDJdW0NAQEhdNGMoW2NIXVtjSF01KVtjSF1bY0hdYzVG

>  <s_glide_docking_method>  (1) 
confgen

>  <s_i_glide_gridfile>  (1) 
gpcr_5ht2c_6bqh_protein_autoprepared_prepared

>  <s_lp_Force_Field>  (1) 
S-OPLS

>  <s_lp_Variant>  (1) 
DiffSBDD_8_num_sample_50-2

>  <s_m_source_file>  (1) 
generated__ligand_DiffSBDD_2026-05-06_prepared.sdf

>  <GenAI_Model>  (1) 
DiffSBDD

>  <Protein>  (1) 
GPCR_5HT2C

$$$$
DiffSBDD_2_num_sample_50
     RDKit          3D

  0  0  0  0  0  0  0  0  0  0999 V3000
M  V30 BEGIN CTAB
M  V30 COUNTS 69 73 0 0 1
M  V30 BEGIN ATOM
M  V30 1 C 37.851652 30.022165 57.905772 0
M  V30 2 C 40.413810 34.951994 62.892977 0
M  V30 3 C 37.803807 32.954244 56.781171 0
M  V30 4 C 37.578972 31.884977 62.150035 0
M  V30 5 F 42.278540 34.818040 64.349490 0
M  V30 6 C 41.392515 34.089900 63.671555 0
M  V30 7 C 37.560792 30.653925 59.014085 0
M  V30 8 C 38.831681 29.178320 59.555998 0
M  V30 9 C 35.059084 33.376589 61.167702 0
M  V30 10 C 37.234099 33.185011 58.217289 0 CFG=1
M  V30 11 C 39.839927 28.313853 57.361446 0
M  V30 12 C 41.343888 28.602192 62.581539 0 CFG=2
M  V30 13 C 36.479666 37.958891 61.581356 0
M  V30 14 C 38.602304 35.113076 61.256744 0
M  V30 15 C 39.774349 28.258974 55.854053 0
M  V30 16 C 39.473070 33.381244 59.079555 0
M  V30 17 C 37.642353 34.408087 60.255236 0 CFG=2
M  V30 18 C 40.925779 27.930886 58.054435 0
M  V30 19 O 41.066422 28.467205 63.954397 0
M  V30 20 O 34.369276 33.621323 59.948114 0
M  V30 21 C 39.466050 37.131660 62.363893 0
M  V30 22 F 40.708223 33.335684 64.529740 0
M  V30 23 O 41.071275 29.900842 62.040268 0
M  V30 24 C 40.376040 36.343620 63.086829 0
M  V30 25 C 40.126997 28.868574 61.722547 0 CFG=1
M  V30 26 C 39.540342 34.347302 61.980320 0
M  V30 27 P 36.793286 32.854631 60.771317 0 CFG=1 CHG=1
M  V30 28 C 40.984694 28.021290 59.509727 0
M  V30 29 C 36.776519 31.969904 59.116457 0 CFG=2
M  V30 30 C 37.593232 37.415903 60.675746 0
M  V30 31 C 38.591916 28.768659 58.063786 0 CFG=2
M  V30 32 N 38.042927 30.024701 60.127856 0
M  V30 33 N 38.186492 34.021412 58.969045 0
M  V30 34 C 38.570124 36.531064 61.448003 0
M  V30 35 F 42.036312 33.275863 62.834714 0
M  V30 36 C 40.013542 28.603698 60.247556 0
M  V30 37 H 37.551931 30.359900 56.925652 0
M  V30 38 H 37.075624 32.524452 56.101044 0
M  V30 39 H 38.101383 33.904284 56.335208 0
M  V30 40 H 38.662505 32.291127 56.732281 0
M  V30 41 H 38.619696 31.618297 61.990516 0
M  V30 42 H 37.509273 32.443184 63.053450 0
M  V30 43 H 37.073413 30.937217 62.253782 0
M  V30 44 H 35.068361 34.301562 61.752285 0
M  V30 45 H 34.589722 32.609254 61.770136 0
M  V30 46 H 36.353214 33.814917 58.080416 0
M  V30 47 H 42.263106 28.128014 62.249911 0
M  V30 48 H 35.676255 38.417747 61.009826 0
M  V30 49 H 36.058454 37.184072 62.219303 0
M  V30 50 H 36.864053 38.720430 62.251005 0
M  V30 51 H 39.684535 29.261004 55.435881 0
M  V30 52 H 40.666186 27.785293 55.449545 0
M  V30 53 H 38.913598 27.671178 55.535895 0
M  V30 54 H 39.868816 33.222165 58.085975 0
M  V30 55 H 40.177227 34.057076 59.557423 0
M  V30 56 H 39.461517 32.443798 59.632833 0
M  V30 57 H 36.807747 35.067568 60.040920 0
M  V30 58 H 41.794621 27.573003 57.518799 0
M  V30 59 H 40.125261 28.440369 64.080053 0
M  V30 60 H 33.513913 33.222635 59.978710 0
M  V30 61 H 39.455488 38.200343 62.509574 0
M  V30 62 H 41.048176 36.808011 63.789779 0
M  V30 63 H 39.176756 28.960091 62.241292 0
M  V30 64 H 39.599977 33.296591 61.830992 0
M  V30 65 H 41.866180 27.661084 60.010575 0
M  V30 66 H 35.735484 31.682687 59.014652 0
M  V30 67 H 38.158272 38.273582 60.303291 0
M  V30 68 H 37.202977 36.973760 59.762676 0
M  V30 69 H 37.871934 27.949131 58.015490 0
M  V30 END ATOM
M  V30 BEGIN BOND
M  V30 1 1 6 2
M  V30 2 1 6 5
M  V30 3 2 7 1
M  V30 4 1 10 3
M  V30 5 1 15 11
M  V30 6 1 17 14
M  V30 7 2 18 11
M  V30 8 1 19 12
M  V30 9 1 20 9
M  V30 10 1 22 6
M  V30 11 1 23 12
M  V30 12 1 24 2
M  V30 13 2 24 21
M  V30 14 1 25 12
M  V30 15 1 25 23
M  V30 16 2 26 2
M  V30 17 1 26 14
M  V30 18 1 27 4 CFG=1
M  V30 19 1 27 9
M  V30 20 1 27 17
M  V30 21 1 28 18
M  V30 22 1 29 7
M  V30 23 1 29 10
M  V30 24 1 29 27
M  V30 25 1 30 13
M  V30 26 1 31 1
M  V30 27 1 31 8
M  V30 28 1 31 11
M  V30 29 1 32 7
M  V30 30 2 32 8
M  V30 31 1 33 10
M  V30 32 1 33 16
M  V30 33 1 33 17
M  V30 34 2 34 14
M  V30 35 1 34 21
M  V30 36 1 34 30
M  V30 37 1 35 6
M  V30 38 1 36 8
M  V30 39 1 36 25
M  V30 40 2 36 28
M  V30 41 1 37 1
M  V30 42 1 38 3
M  V30 43 1 39 3
M  V30 44 1 40 3
M  V30 45 1 41 4
M  V30 46 1 42 4
M  V30 47 1 43 4
M  V30 48 1 44 9
M  V30 49 1 45 9
M  V30 50 1 10 46 CFG=3
M  V30 51 1 12 47 CFG=3
M  V30 52 1 48 13
M  V30 53 1 49 13
M  V30 54 1 50 13
M  V30 55 1 51 15
M  V30 56 1 52 15
M  V30 57 1 53 15
M  V30 58 1 54 16
M  V30 59 1 55 16
M  V30 60 1 56 16
M  V30 61 1 17 57 CFG=3
M  V30 62 1 58 18
M  V30 63 1 59 19
M  V30 64 1 60 20
M  V30 65 1 61 21
M  V30 66 1 62 24
M  V30 67 1 25 63 CFG=1
M  V30 68 1 64 26
M  V30 69 1 65 28
M  V30 70 1 29 66 CFG=3
M  V30 71 1 67 30
M  V30 72 1 68 30
M  V30 73 1 31 69 CFG=1
M  V30 END BOND
M  V30 END CTAB
M  END
>  <i_epik_Tot_Q>  (1) 
1

>  <i_epik_Tot_abs_Q>  (1) 
1

>  <i_i_glide_confnum>  (1) 
12

>  <i_i_glide_lignum>  (1) 
9

>  <i_i_glide_posenum>  (1) 
267

>  <i_i_glide_rotatable_bonds>  (1) 
8

>  <i_lp_mmshare_version>  (1) 
72125

>  <i_m_source_file_index>  (1) 
3

>  <i_f3d_flags>  (1) 
0

>  <num_sample>  (1) 
50

>  <b_lp_Chiralities_Consistent>  (1) 
1

>  <r_epik_Charging_Adjusted_Penalty>  (1) 
0.0033292626678827373

>  <r_epik_Ionization_Penalty>  (1) 
0.0034349233012131116

>  <r_epik_Ionization_Penalty_Charging>  (1) 
0

>  <r_epik_Ionization_Penalty_Neutral>  (1) 
0.0034349233012131116

>  <r_epik_State_Penalty>  (1) 
0.0033292626678827373

>  <r_glide_ring_energy>  (1) 
0

>  <r_i_docking_score>  (1) 
-8.0770796564963501

>  <r_i_glide_ecoul>  (1) 
-5.9351790940510991

>  <r_i_glide_eff_state_penalty>  (1) 
0.0033292626678827373

>  <r_i_glide_einternal>  (1) 
4.2001070655590773

>  <r_i_glide_emodel>  (1) 
-41.42907863993819

>  <r_i_glide_emodel_strain>  (1) 
2.355165244094195

>  <r_i_glide_energy>  (1) 
-38.286509188272952

>  <r_i_glide_erotb>  (1) 
0.30231676593683265

>  <r_i_glide_esite>  (1) 
-0.016466264085821674

>  <r_i_glide_evdw>  (1) 
-32.351330094221851

>  <r_i_glide_gscore>  (1) 
-8.080408919164233

>  <r_i_glide_gscore_strain>  (1) 
0

>  <r_i_glide_hbond>  (1) 
-0.60799999999999998

>  <r_i_glide_ligand_efficiency>  (1) 
-0.22436332379156529

>  <r_i_glide_ligand_efficiency_ln>  (1) 
-1.7622005635733218

>  <r_i_glide_ligand_efficiency_sa>  (1) 
-0.74083137247993758

>  <r_i_glide_lipo>  (1) 
-3.5339360299183999

>  <r_i_glide_metal>  (1) 
-0

>  <r_i_glide_rewards>  (1) 
-1.7164800222780863

>  <r_lp_Energy>  (1) 
43.507885999999999

>  <s_epik_Chemistry_Notes>  (1) 
This compound has an imine and may undergo hydrolysis. This compound contains an acetal/aminal-like group ( X-CH(R)-Y where X, Y are N, S, or O) that may be acid/base labile, releasing an aldehyde.

>  <s_epik_cmdline>  (1) 
J2VwaWtfcHl0aG9uJywgJy1waHQnLCAnMS4wJywgJy1waCcsICc3LjQnLCAnLXRuJywgJzgnLCAnLW1hJywgJzUwMCcsICctaW1hZScsICc8aW5maWxlLm1hZT4nLCAnLW9tYWUnLCAnPG91dGZpbGUubWFlPic=

>  <s_epik_input>  (1) 
W09IXVtDSF0xT1tDQEhdMUMyPVtDSF1bQ0hdPUMoW0NIM10pW0NAQEhdKEMyPTMpW0NIXT1DKE4zKVtDQEBIXTRbQ0BIXShbQ0gzXSlOKFtDSDNdKVtDQEBIXShbUEArXTQoW0NIM10pW0NIMl1bT0hdKWMoW2NIXTUpYyhbQ0gyXVtDSDNdKVtjSF1bY0hdYzVDKEYpKEYpRg==

>  <s_glide_docking_method>  (1) 
confgen

>  <s_i_glide_gridfile>  (1) 
gpcr_5ht2c_6bqh_protein_autoprepared_prepared

>  <s_lp_Force_Field>  (1) 
S-OPLS

>  <s_lp_Variant>  (1) 
DiffSBDD_2_num_sample_50-2

>  <s_m_source_file>  (1) 
generated__ligand_DiffSBDD_2026-05-06_prepared.sdf

>  <GenAI_Model>  (1) 
DiffSBDD

>  <Protein>  (1) 
GPCR_5HT2C

$$$$
DiffSBDD_8_num_sample_50
     RDKit          3D

  0  0  0  0  0  0  0  0  0  0999 V3000
M  V30 BEGIN CTAB
M  V30 COUNTS 69 73 0 0 1
M  V30 BEGIN ATOM
M  V30 1 C 36.235479 31.584157 59.453491 0
M  V30 2 N 39.436222 28.631417 58.000679 0
M  V30 3 C 38.457190 28.245455 54.354242 0
M  V30 4 C 38.386688 27.873720 51.854269 0
M  V30 5 C 41.304012 27.421836 56.927820 0
M  V30 6 C 36.998646 24.443858 56.148069 0
M  V30 7 C 38.780015 28.697856 53.063344 0
M  V30 8 C 38.077108 24.660311 55.284883 0
M  V30 9 C 38.312338 30.689460 58.756676 0
M  V30 10 C 39.256991 25.252136 55.764857 0
M  V30 11 N 37.022887 30.360789 59.386706 0
M  V30 12 N 40.520060 27.657920 58.126548 0
M  V30 13 C 38.651931 33.421672 60.975742 0
M  V30 14 C 35.841931 34.583701 59.909899 0
M  V30 15 N 38.311599 34.443770 60.070131 0
M  V30 16 C 39.359960 31.368057 62.682534 0
M  V30 17 C 39.467407 29.917323 52.898474 0
M  V30 18 O 40.164263 29.672328 59.878486 0
M  V30 19 C 38.460983 28.503170 56.870973 0
M  V30 20 C 38.827305 29.001689 55.484518 0
M  V30 21 O 37.172828 36.490197 59.843653 0
M  V30 22 C 37.126201 35.203369 60.412041 0 CFG=1
M  V30 23 N 38.080633 31.414772 62.253497 0
M  V30 24 O 39.467403 27.621494 50.981140 0
M  V30 25 C 37.094542 24.821436 57.495980 0
M  V30 26 C 40.589207 26.287575 57.625874 0 CFG=1
M  V30 27 C 35.392790 33.510489 60.882799 0
M  V30 28 C 39.972164 33.356179 61.458357 0
M  V30 29 C 39.834405 30.677237 54.026782 0
M  V30 30 C 39.381667 29.613643 58.926722 0
M  V30 31 C 39.358032 25.635284 57.117821 0
M  V30 32 F 35.867382 23.872234 55.682141 0
M  V30 33 C 39.517268 30.219609 55.319511 0
M  V30 34 C 37.729081 32.403678 61.398760 0
M  V30 35 C 36.300240 32.285062 60.829590 0 CFG=2
M  V30 36 C 40.331511 32.313787 62.322397 0
M  V30 37 C 38.269917 25.408141 57.980425 0
M  V30 38 H 36.547959 32.254207 58.653575 0
M  V30 39 H 35.197905 31.326699 59.236229 0
M  V30 40 H 37.924263 27.315276 54.479254 0
M  V30 41 H 37.971334 26.917700 52.174972 0
M  V30 42 H 37.598103 28.400267 51.324406 0
M  V30 43 H 40.938925 27.707353 55.947373 0
M  V30 44 H 42.382669 27.487725 57.053396 0
M  V30 45 H 38.000648 24.372586 54.253519 0
M  V30 46 H 38.162768 30.972976 57.716064 0
M  V30 47 H 38.743003 31.582885 59.192763 0
M  V30 48 H 40.085075 25.421210 55.092481 0
M  V30 49 H 36.512445 29.703553 58.814657 0
M  V30 50 H 35.935128 34.240929 58.881374 0
M  V30 51 H 35.067425 35.333732 59.853478 0
M  V30 52 H 39.086299 35.027054 59.789035 0
M  V30 53 H 39.611747 30.553179 63.345737 0
M  V30 54 H 39.715093 30.268818 51.907063 0
M  V30 55 H 38.000561 27.538614 56.777526 0
M  V30 56 H 37.544522 29.039775 57.097985 0
M  V30 57 H 36.832598 36.424003 58.962126 0
M  V30 58 H 37.089140 35.349739 61.493472 0
M  V30 59 H 39.169163 27.046287 50.290799 0
M  V30 60 H 36.267404 24.666999 58.162584 0
M  V30 61 H 41.156243 25.605579 58.253430 0
M  V30 62 H 35.337033 33.903596 61.898833 0
M  V30 63 H 34.375603 33.217379 60.621241 0
M  V30 64 H 40.701819 34.093899 61.159986 0
M  V30 65 H 40.359019 31.610259 53.900180 0
M  V30 66 H 39.800485 30.804672 56.180915 0
M  V30 67 H 35.801307 31.585744 61.501774 0
M  V30 68 H 41.339370 32.236245 62.701428 0
M  V30 69 H 38.336697 25.701790 59.017600 0
M  V30 END ATOM
M  V30 BEGIN BOND
M  V30 1 2 7 3
M  V30 2 1 7 4
M  V30 3 1 8 6
M  V30 4 2 10 8
M  V30 5 1 11 1
M  V30 6 1 11 9
M  V30 7 1 12 2
M  V30 8 1 12 5
M  V30 9 1 15 13
M  V30 10 1 17 7
M  V30 11 1 19 2
M  V30 12 1 20 3
M  V30 13 1 20 19
M  V30 14 1 22 14
M  V30 15 1 22 15
M  V30 16 1 22 21
M  V30 17 1 23 16
M  V30 18 1 24 4
M  V30 19 2 25 6
M  V30 20 1 26 5
M  V30 21 1 26 12
M  V30 22 1 27 14
M  V30 23 2 28 13
M  V30 24 2 29 17
M  V30 25 1 30 2
M  V30 26 1 30 9
M  V30 27 2 30 18
M  V30 28 1 31 10
M  V30 29 1 31 26
M  V30 30 1 32 6
M  V30 31 2 33 20
M  V30 32 1 33 29
M  V30 33 1 34 13
M  V30 34 2 34 23
M  V30 35 1 35 1
M  V30 36 1 35 27
M  V30 37 1 35 34
M  V30 38 2 36 16
M  V30 39 1 36 28
M  V30 40 1 37 25
M  V30 41 2 37 31
M  V30 42 1 38 1
M  V30 43 1 39 1
M  V30 44 1 40 3
M  V30 45 1 41 4
M  V30 46 1 42 4
M  V30 47 1 43 5
M  V30 48 1 44 5
M  V30 49 1 45 8
M  V30 50 1 46 9
M  V30 51 1 47 9
M  V30 52 1 48 10
M  V30 53 1 49 11
M  V30 54 1 50 14
M  V30 55 1 51 14
M  V30 56 1 52 15
M  V30 57 1 53 16
M  V30 58 1 54 17
M  V30 59 1 55 19
M  V30 60 1 56 19
M  V30 61 1 57 21
M  V30 62 1 22 58 CFG=1
M  V30 63 1 59 24
M  V30 64 1 60 25
M  V30 65 1 26 61 CFG=1
M  V30 66 1 62 27
M  V30 67 1 63 27
M  V30 68 1 64 28
M  V30 69 1 65 29
M  V30 70 1 66 33
M  V30 71 1 35 67 CFG=1
M  V30 72 1 68 36
M  V30 73 1 69 37
M  V30 END BOND
M  V30 END CTAB
M  END
>  <i_epik_Tot_Q>  (1) 
0

>  <i_epik_Tot_abs_Q>  (1) 
0

>  <i_i_glide_confnum>  (1) 
2654

>  <i_i_glide_lignum>  (1) 
30

>  <i_i_glide_posenum>  (1) 
68

>  <i_i_glide_rotatable_bonds>  (1) 
12

>  <i_lp_mmshare_version>  (1) 
72125

>  <i_m_source_file_index>  (1) 
9

>  <i_f3d_flags>  (1) 
0

>  <num_sample>  (1) 
50

>  <b_lp_Chiralities_Consistent>  (1) 
1

>  <r_epik_Charging_Adjusted_Penalty>  (1) 
1.1060706723907541

>  <r_epik_Ionization_Penalty>  (1) 
1.1273273106042034

>  <r_epik_Ionization_Penalty_Charging>  (1) 
0

>  <r_epik_Ionization_Penalty_Neutral>  (1) 
1.1273273106042034

>  <r_epik_State_Penalty>  (1) 
1.1060706723907541

>  <r_glide_ring_energy>  (1) 
0

>  <r_i_docking_score>  (1) 
-8.0624566182578601

>  <r_i_glide_ecoul>  (1) 
-6.1531958689055459

>  <r_i_glide_eff_state_penalty>  (1) 
1.1060706723907541

>  <r_i_glide_einternal>  (1) 
15.887478577369354

>  <r_i_glide_emodel>  (1) 
-80.777258120833139

>  <r_i_glide_emodel_strain>  (1) 
0.17683231076895822

>  <r_i_glide_energy>  (1) 
-58.431523237974176

>  <r_i_glide_erotb>  (1) 
0.80016093564374513

>  <r_i_glide_esite>  (1) 
0

>  <r_i_glide_evdw>  (1) 
-52.278327369068627

>  <r_i_glide_gscore>  (1) 
-9.1685272906486137

>  <r_i_glide_gscore_strain>  (1) 
0

>  <r_i_glide_hbond>  (1) 
-0.12141546853823561

>  <r_i_glide_ligand_efficiency>  (1) 
-0.21790423292588812

>  <r_i_glide_ligand_efficiency_ln>  (1) 
-1.7485578296999613

>  <r_i_glide_ligand_efficiency_sa>  (1) 
-0.72610524652179409

>  <r_i_glide_lipo>  (1) 
-4.9706278738929788

>  <r_i_glide_metal>  (1) 
-0

>  <r_i_glide_rewards>  (1) 
-1.3397491350718811

>  <r_lp_Energy>  (1) 
58.402149999999999

>  <r_lp_tautomer_probability>  (1) 
0.99999999999999911

>  <s_epik_Chemistry_Notes>  (1) 
This compound contains an acetal/aminal-like group ( X-CH(R)-Y where X, Y are N, S, or O) that may be acid/base labile, releasing an aldehyde.

>  <s_epik_cmdline>  (1) 
J2VwaWtfcHl0aG9uJywgJy1waHQnLCAnMS4wJywgJy1waCcsICc3LjQnLCAnLXRuJywgJzgnLCAnLW1hJywgJzUwMCcsICctaW1hZScsICc8aW5maWxlLm1hZT4nLCAnLW9tYWUnLCAnPG91dGZpbGUubWFlPic=

>  <s_epik_input>  (1) 
W2NIXTFbY0hdW2NIXW5jKGMxMilbQ0BASF0oW0NIMl1bQ0gyXVtDQEBIXShbTkhdMilbT0hdKVtDSDJdW05IXVtDSDJdQyg9TylOKFtDSDJdYyhbY0hdW2NIXVtjSF0zKVtjSF1jM1tDSDJdW09IXSlONFtDSDJdW0NAQEhdNGMoW2NIXVtjSF01KVtjSF1bY0hdYzVG

>  <s_glide_docking_method>  (1) 
confgen

>  <s_i_glide_gridfile>  (1) 
gpcr_5ht2c_6bqh_protein_autoprepared_prepared

>  <s_lp_Force_Field>  (1) 
S-OPLS

>  <s_lp_Variant>  (1) 
DiffSBDD_8_num_sample_50-2

>  <s_m_source_file>  (1) 
generated__ligand_DiffSBDD_2026-05-06_prepared.sdf

>  <GenAI_Model>  (1) 
DiffSBDD

>  <Protein>  (1) 
GPCR_5HT2C

$$$$
DiffSBDD_47_num_sample_50
     RDKit          3D

  0  0  0  0  0  0  0  0  0  0999 V3000
M  V30 BEGIN CTAB
M  V30 COUNTS 47 49 0 0 1
M  V30 BEGIN ATOM
M  V30 1 C 40.318921 31.907614 61.928988 0
M  V30 2 C 39.703450 34.344259 61.509563 0
M  V30 3 C 41.416879 35.203959 63.566455 0
M  V30 4 C 37.960520 28.752921 53.503959 0
M  V30 5 C 38.743802 26.735516 54.608808 0
M  V30 6 N 40.989540 29.596977 62.400784 0
M  V30 7 C 39.391639 30.058987 60.643324 0
M  V30 8 C 40.166002 29.182251 61.419213 0
M  V30 9 C 37.276463 30.556899 55.073889 0
M  V30 10 C 38.094645 27.418493 53.523290 0
M  V30 11 O 40.442744 28.821385 58.331212 0
M  V30 12 N 38.580662 29.241471 57.111782 0
M  V30 13 C 39.174869 28.915464 55.810394 0 CFG=2
M  V30 14 C 38.469879 29.684631 54.611101 0
M  V30 15 C 41.303167 33.830738 63.279592 0
M  V30 16 O 42.249338 35.621430 64.562401 0
M  V30 17 C 39.824889 35.714538 61.806518 0
M  V30 18 C 39.261184 29.164832 58.268065 0
M  V30 19 C 39.466146 31.437581 60.897619 0
M  V30 20 C 38.486603 29.524509 59.541647 0
M  V30 21 C 39.242333 27.398068 55.658270 0
M  V30 22 C 40.442172 33.371980 62.242426 0
M  V30 23 C 40.678665 36.142792 62.831179 0
M  V30 24 C 41.054052 30.925092 62.651047 0
M  V30 25 C 39.501716 30.634596 53.969003 0
M  V30 26 H 39.042040 34.042270 60.717656 0
M  V30 27 H 37.467406 29.221429 52.667024 0
M  V30 28 H 38.832044 25.659273 54.575782 0
M  V30 29 H 40.127642 28.116784 61.243973 0
M  V30 30 H 37.575559 31.298936 55.815807 0
M  V30 31 H 36.835981 31.119353 54.253501 0
M  V30 32 H 36.473794 29.961883 55.507703 0
M  V30 33 H 37.704506 26.839928 52.697648 0
M  V30 34 H 37.613993 29.535978 57.126783 0
M  V30 35 H 40.220585 29.229523 55.837938 0
M  V30 36 H 41.880007 33.131262 63.857376 0
M  V30 37 H 42.267404 36.570416 64.653504 0
M  V30 38 H 39.257481 36.438910 61.241335 0
M  V30 39 H 38.879413 32.120035 60.308713 0
M  V30 40 H 37.974987 28.629292 59.890707 0
M  V30 41 H 37.713635 30.259233 59.310141 0
M  V30 42 H 39.726205 26.850868 56.454714 0
M  V30 43 H 40.767891 37.196268 63.053501 0
M  V30 44 H 41.719761 31.209979 63.445926 0
M  V30 45 H 39.905984 31.336082 54.700277 0
M  V30 46 H 40.337926 30.079667 53.545966 0
M  V30 47 H 39.067404 31.225432 53.162155 0
M  V30 END ATOM
M  V30 BEGIN BOND
M  V30 1 2 8 6
M  V30 2 1 8 7
M  V30 3 2 10 4
M  V30 4 1 10 5
M  V30 5 1 13 12
M  V30 6 1 14 4
M  V30 7 1 14 9
M  V30 8 1 14 13
M  V30 9 2 15 3
M  V30 10 1 16 3
M  V30 11 1 17 2
M  V30 12 2 18 11
M  V30 13 1 18 12
M  V30 14 1 19 1
M  V30 15 2 19 7
M  V30 16 1 20 7
M  V30 17 1 20 18
M  V30 18 2 21 5
M  V30 19 1 21 13
M  V30 20 1 22 1
M  V30 21 2 22 2
M  V30 22 1 22 15
M  V30 23 1 23 3
M  V30 24 2 23 17
M  V30 25 2 24 1
M  V30 26 1 24 6
M  V30 27 1 25 14
M  V30 28 1 26 2
M  V30 29 1 27 4
M  V30 30 1 28 5
M  V30 31 1 29 8
M  V30 32 1 30 9
M  V30 33 1 31 9
M  V30 34 1 32 9
M  V30 35 1 33 10
M  V30 36 1 34 12
M  V30 37 1 13 35 CFG=1
M  V30 38 1 36 15
M  V30 39 1 37 16
M  V30 40 1 38 17
M  V30 41 1 39 19
M  V30 42 1 40 20
M  V30 43 1 41 20
M  V30 44 1 42 21
M  V30 45 1 43 23
M  V30 46 1 44 24
M  V30 47 1 45 25
M  V30 48 1 46 25
M  V30 49 1 47 25
M  V30 END BOND
M  V30 END CTAB
M  END
>  <i_epik_Tot_Q>  (1) 
0

>  <i_epik_Tot_abs_Q>  (1) 
0

>  <i_i_glide_confnum>  (1) 
5

>  <i_i_glide_lignum>  (1) 
108

>  <i_i_glide_posenum>  (1) 
381

>  <i_i_glide_rotatable_bonds>  (1) 
6

>  <i_lp_mmshare_version>  (1) 
72125

>  <i_m_source_file_index>  (1) 
48

>  <i_f3d_flags>  (1) 
0

>  <num_sample>  (1) 
50

>  <b_lp_Chiralities_Consistent>  (1) 
1

>  <r_epik_Charging_Adjusted_Penalty>  (1) 
0.0032589894025149397

>  <r_epik_Ionization_Penalty>  (1) 
0.0038156857198904941

>  <r_epik_Ionization_Penalty_Charging>  (1) 
0

>  <r_epik_Ionization_Penalty_Neutral>  (1) 
0.0038156857198904941

>  <r_epik_State_Penalty>  (1) 
0.0032589894025149397

>  <r_glide_ring_energy>  (1) 
0

>  <r_i_docking_score>  (1) 
-8.0460615365112904

>  <r_i_glide_ecoul>  (1) 
-6.0205220036588987

>  <r_i_glide_eff_state_penalty>  (1) 
0.0032589894025149397

>  <r_i_glide_einternal>  (1) 
0.32048446257851637

>  <r_i_glide_emodel>  (1) 
-71.506214067290387

>  <r_i_glide_emodel_strain>  (1) 
0.001100393502191821

>  <r_i_glide_energy>  (1) 
-47.785442080550105

>  <r_i_glide_erotb>  (1) 
0.84319913175930694

>  <r_i_glide_esite>  (1) 
-0.00072302548613424513

>  <r_i_glide_evdw>  (1) 
-41.764920076891208

>  <r_i_glide_gscore>  (1) 
-8.0493205259138048

>  <r_i_glide_gscore_strain>  (1) 
0

>  <r_i_glide_hbond>  (1) 
-0.52311420583171608

>  <r_i_glide_ligand_efficiency>  (1) 
-0.32184246146045159

>  <r_i_glide_ligand_efficiency_ln>  (1) 
-1.907157705160154

>  <r_i_glide_ligand_efficiency_sa>  (1) 
-0.94107306622045128

>  <r_i_glide_lipo>  (1) 
-3.6175739714181971

>  <r_i_glide_metal>  (1) 
-0

>  <r_i_glide_rewards>  (1) 
-1.7597841505436682

>  <r_lp_Energy>  (1) 
36.557407999999995

>  <r_lp_tautomer_probability>  (1) 
0.99999999999736477

>  <s_epik_cmdline>  (1) 
J2VwaWtfcHl0aG9uJywgJy1waHQnLCAnMS4wJywgJy1waCcsICc3LjQnLCAnLXRuJywgJzgnLCAnLW1hJywgJzUwMCcsICctaW1hZScsICc8aW5maWxlLm1hZT4nLCAnLW9tYWUnLCAnPG91dGZpbGUubWFlPic=

>  <s_epik_input>  (1) 
W09IXWMxW2NIXWMoW2NIXVtjSF1bY0hdMSktYzJbY0hdYyhbY0hdbltjSF0yKVtDSDJdQyg9TylbTkhdW0NAQEhdM1tDSF09W0NIXVtDSF09W0NIXUMzKFtDSDNdKVtDSDNd

>  <s_glide_docking_method>  (1) 
confgen

>  <s_i_glide_gridfile>  (1) 
gpcr_5ht2c_6bqh_protein_autoprepared_prepared

>  <s_lp_Force_Field>  (1) 
S-OPLS

>  <s_lp_Variant>  (1) 
DiffSBDD_47_num_sample_50-2

>  <s_m_source_file>  (1) 
generated__ligand_DiffSBDD_2026-05-06_prepared.sdf

>  <GenAI_Model>  (1) 
DiffSBDD

>  <Protein>  (1) 
GPCR_5HT2C

$$$$
DiffSBDD_13_num_sample_50
     RDKit          3D

  0  0  0  0  0  0  0  0  0  0999 V3000
M  V30 BEGIN CTAB
M  V30 COUNTS 67 70 0 0 1
M  V30 BEGIN ATOM
M  V30 1 C 37.509284 34.774415 59.564140 0
M  V30 2 C 38.629718 25.647379 56.467841 0
M  V30 3 N 41.807594 32.451313 63.852233 0
M  V30 4 C 38.532961 27.746274 54.606137 0
M  V30 5 C 41.687682 34.577802 64.331857 0
M  V30 6 N 39.237180 30.064526 54.017474 0
M  V30 7 F 37.867377 24.821591 58.450333 0
M  V30 8 C 40.322942 32.319753 61.889780 0
M  V30 9 C 40.226914 30.106918 51.745329 0 CFG=1
M  V30 10 C 37.457036 31.797404 60.704365 0
M  V30 11 C 39.768680 30.929926 52.958264 0
M  V30 12 C 41.021072 33.119976 62.999955 0
M  V30 13 C 38.403406 33.609552 59.054190 0 CFG=1
M  V30 14 N 41.325729 31.226513 64.359162 0
M  V30 15 N 39.190542 29.221420 51.282359 0
M  V30 16 O 40.516946 31.114329 61.700220 0
M  V30 17 O 36.165159 34.398535 59.791938 0
M  V30 18 C 38.504957 28.856155 53.572753 0 CFG=1
M  V30 19 C 38.598563 32.339820 56.910505 0
M  V30 20 C 38.684371 24.528075 57.453636 0
M  V30 21 C 39.485143 27.765953 55.652327 0
M  V30 22 C 40.539863 30.821875 50.450138 0
M  V30 23 C 39.528899 26.718959 56.579507 0
M  V30 24 C 38.401408 30.833485 54.950163 0
M  V30 25 N 40.850263 34.374297 63.094728 0
M  V30 26 C 40.267140 29.741031 49.406560 0
M  V30 27 C 37.629482 26.674254 54.501002 0
M  V30 28 C 37.676988 25.624982 55.431343 0
M  V30 29 O 42.267593 33.307123 64.831795 0
M  V30 30 C 39.177835 31.529511 56.051768 0
M  V30 31 C 38.693665 32.505002 60.108271 0 CFG=1
M  V30 32 O 39.483049 33.077175 61.147599 0
M  V30 33 C 39.036293 28.199778 52.278996 0
M  V30 34 C 37.863363 33.033116 57.754968 0
M  V30 35 O 39.821626 28.621320 50.153749 0
M  V30 36 H 37.467418 35.580948 58.832152 0
M  V30 37 H 37.920316 35.193929 60.483692 0
M  V30 38 H 42.501997 35.274396 64.118176 0
M  V30 39 H 41.090026 35.033682 65.123483 0
M  V30 40 H 41.067449 29.483665 52.017817 0
M  V30 41 H 36.802046 31.417418 59.918042 0
M  V30 42 H 37.753148 30.947562 61.319380 0
M  V30 43 H 36.875506 32.465500 61.337662 0
M  V30 44 H 39.067230 31.697276 52.654133 0
M  V30 45 H 40.621094 31.463359 53.371654 0
M  V30 46 H 39.383015 34.021419 58.812545 0
M  V30 47 H 40.957767 30.670652 63.587410 0
M  V30 48 H 42.099021 30.715864 64.783305 0
M  V30 49 H 35.786937 34.119547 58.970071 0
M  V30 50 H 37.467322 29.141386 53.388685 0
M  V30 51 H 38.328714 23.621430 56.992736 0
M  V30 52 H 39.691342 24.381664 57.843137 0
M  V30 53 H 40.187711 28.581127 55.736043 0
M  V30 54 H 39.868745 31.664974 50.293868 0
M  V30 55 H 41.565962 31.181171 50.416256 0
M  V30 56 H 40.258733 26.734331 57.376981 0
M  V30 57 H 37.715930 30.161912 55.471828 0
M  V30 58 H 37.762343 31.542747 54.421139 0
M  V30 59 H 41.127285 29.523919 48.780809 0
M  V30 60 H 39.467734 30.051434 48.738991 0
M  V30 61 H 36.906542 26.653689 53.698086 0
M  V30 62 H 36.985301 24.798832 55.349709 0
M  V30 63 H 40.234130 31.317660 56.109158 0
M  V30 64 H 39.291738 31.742662 59.608644 0
M  V30 65 H 38.326233 27.458663 51.907155 0
M  V30 66 H 39.975831 27.673392 52.447480 0
M  V30 67 H 36.822307 33.221137 57.551550 0
M  V30 END ATOM
M  V30 BEGIN BOND
M  V30 1 1 11 6
M  V30 2 1 11 9
M  V30 3 1 12 3
M  V30 4 1 12 8
M  V30 5 1 13 1
M  V30 6 1 14 3
M  V30 7 1 15 9
M  V30 8 2 16 8
M  V30 9 1 17 1
M  V30 10 1 18 4
M  V30 11 1 18 6
M  V30 12 1 20 2
M  V30 13 1 20 7
M  V30 14 1 21 4
M  V30 15 1 22 9
M  V30 16 1 23 2
M  V30 17 2 23 21
M  V30 18 1 24 6
M  V30 19 1 25 5
M  V30 20 2 25 12
M  V30 21 1 26 22
M  V30 22 2 27 4
M  V30 23 2 28 2
M  V30 24 1 28 27
M  V30 25 1 29 3
M  V30 26 1 29 5
M  V30 27 2 30 19
M  V30 28 1 30 24
M  V30 29 1 31 10
M  V30 30 1 31 13
M  V30 31 1 32 8
M  V30 32 1 32 31
M  V30 33 1 33 15
M  V30 34 1 33 18
M  V30 35 1 34 13
M  V30 36 2 34 19
M  V30 37 1 35 15
M  V30 38 1 35 26
M  V30 39 1 36 1
M  V30 40 1 37 1
M  V30 41 1 38 5
M  V30 42 1 39 5
M  V30 43 1 9 40 CFG=1
M  V30 44 1 41 10
M  V30 45 1 42 10
M  V30 46 1 43 10
M  V30 47 1 44 11
M  V30 48 1 45 11
M  V30 49 1 13 46 CFG=3
M  V30 50 1 47 14
M  V30 51 1 48 14
M  V30 52 1 49 17
M  V30 53 1 18 50 CFG=3
M  V30 54 1 51 20
M  V30 55 1 52 20
M  V30 56 1 53 21
M  V30 57 1 54 22
M  V30 58 1 55 22
M  V30 59 1 56 23
M  V30 60 1 57 24
M  V30 61 1 58 24
M  V30 62 1 59 26
M  V30 63 1 60 26
M  V30 64 1 61 27
M  V30 65 1 62 28
M  V30 66 1 63 30
M  V30 67 1 31 64 CFG=3
M  V30 68 1 65 33
M  V30 69 1 66 33
M  V30 70 1 67 34
M  V30 END BOND
M  V30 END CTAB
M  END
>  <i_epik_Tot_Q>  (1) 
0

>  <i_epik_Tot_abs_Q>  (1) 
0

>  <i_i_glide_confnum>  (1) 
586

>  <i_i_glide_lignum>  (1) 
42

>  <i_i_glide_posenum>  (1) 
133

>  <i_i_glide_rotatable_bonds>  (1) 
11

>  <i_lp_mmshare_version>  (1) 
72125

>  <i_m_source_file_index>  (1) 
14

>  <i_f3d_flags>  (1) 
0

>  <num_sample>  (1) 
50

>  <b_lp_Chiralities_Consistent>  (1) 
1

>  <r_epik_Charging_Adjusted_Penalty>  (1) 
0.22633531445783178

>  <r_epik_Ionization_Penalty>  (1) 
0.23418350974146993

>  <r_epik_Ionization_Penalty_Charging>  (1) 
0

>  <r_epik_Ionization_Penalty_Neutral>  (1) 
0.23418350974146993

>  <r_epik_State_Penalty>  (1) 
0.22633531445783178

>  <r_glide_ring_energy>  (1) 
0

>  <r_i_docking_score>  (1) 
-8.0257366684143125

>  <r_i_glide_ecoul>  (1) 
-2.5586610746023131

>  <r_i_glide_eff_state_penalty>  (1) 
0.22633531445783178

>  <r_i_glide_einternal>  (1) 
5.7870815136239386

>  <r_i_glide_emodel>  (1) 
-72.771763308621715

>  <r_i_glide_emodel_strain>  (1) 
3.3934684619916737

>  <r_i_glide_energy>  (1) 
-52.707757533977627

>  <r_i_glide_erotb>  (1) 
0.76399126750113433

>  <r_i_glide_esite>  (1) 
0

>  <r_i_glide_evdw>  (1) 
-50.149096459375315

>  <r_i_glide_gscore>  (1) 
-8.2520719828721436

>  <r_i_glide_gscore_strain>  (1) 
0

>  <r_i_glide_hbond>  (1) 
0

>  <r_i_glide_ligand_efficiency>  (1) 
-0.22930676195469465

>  <r_i_glide_ligand_efficiency_ln>  (1) 
-1.7618273203453578

>  <r_i_glide_ligand_efficiency_sa>  (1) 
-0.75007762372843645

>  <r_i_glide_lipo>  (1) 
-3.6981309870502042

>  <r_i_glide_metal>  (1) 
-0

>  <r_i_glide_rewards>  (1) 
-2.4266782791639594

>  <r_lp_Energy>  (1) 
-4.0023499999999999

>  <s_epik_Chemistry_Notes>  (1) 
This compound has an ester and may undergo hydrolysis at high or low pH. This compound has an imine and may undergo hydrolysis. This compound contains an acetal/aminal-like group ( X-CH(R)-Y where X, Y are N, S, or O) that may be acid/base labile, releasing an aldehyde. This compound has a N-S or N-O group and may undergo hydrolysis at high or low pH.

>  <s_epik_cmdline>  (1) 
J2VwaWtfcHl0aG9uJywgJy1waHQnLCAnMS4wJywgJy1waCcsICc3LjQnLCAnLXRuJywgJzgnLCAnLW1hJywgJzUwMCcsICctaW1hZScsICc8aW5maWxlLm1hZT4nLCAnLW9tYWUnLCAnPG91dGZpbGUubWFlPic=

>  <s_epik_input>  (1) 
TzFbQ0gyXU49QyhOMVtOSDJdKUMoPU8pT1tDQEBIXShbQ0gzXSlbQ0BIXShbQ0gyXVtPSF0pW0NIXT1DPVtDSF1bQ0gyXU4oW0NIMl0yKVtDQEhdKGMoW2NIXVtjSF0zKVtjSF1bY0hdYzNbQ0gyXUYpW0NIMl1OKFtDQEhdMjQpT1tDSDJdW0NIMl00

>  <s_glide_docking_method>  (1) 
confgen

>  <s_i_glide_gridfile>  (1) 
gpcr_5ht2c_6bqh_protein_autoprepared_prepared

>  <s_lp_Force_Field>  (1) 
S-OPLS

>  <s_lp_Variant>  (1) 
DiffSBDD_13_num_sample_50-1

>  <s_m_source_file>  (1) 
generated__ligand_DiffSBDD_2026-05-06_prepared.sdf

>  <GenAI_Model>  (1) 
DiffSBDD

>  <Protein>  (1) 
GPCR_5HT2C

$$$$
DiffSBDD_25_num_sample_50
     RDKit          3D

  0  0  0  0  0  0  0  0  0  0999 V3000
M  V30 BEGIN CTAB
M  V30 COUNTS 59 60 0 0 1
M  V30 BEGIN ATOM
M  V30 1 C 38.345443 27.545627 54.801402 0 CFG=2
M  V30 2 C 39.328444 29.625902 53.667355 0
M  V30 3 C 36.503149 35.301457 59.571344 0
M  V30 4 C 35.652475 34.415044 58.655258 0
M  V30 5 C 37.648102 29.751498 58.823483 0 CFG=1
M  V30 6 C 38.927961 28.272729 53.568772 0
M  V30 7 C 39.300428 27.585098 56.036500 0
M  V30 8 C 39.067445 27.596427 52.329749 0
M  V30 9 C 39.150234 32.611350 60.732157 0
M  V30 10 C 40.003388 29.609434 51.323798 0
M  V30 11 C 37.813856 29.311053 57.350416 0 CFG=1
M  V30 12 C 35.991319 33.291453 60.726878 0
M  V30 13 N 37.467405 30.421428 56.442303 0 CHG=1
M  V30 14 C 38.591086 31.271769 60.299208 0
M  V30 15 C 39.867403 30.288396 52.547634 0
M  V30 16 C 39.235363 28.802020 56.997182 0
M  V30 17 N 35.247315 33.249741 59.453517 0 CHG=1
M  V30 18 N 38.378160 30.971213 59.083004 0
M  V30 19 C 37.135078 34.314080 60.554208 0 CFG=1
M  V30 20 C 37.072618 25.394459 55.627359 0
M  V30 21 C 38.490562 33.800650 59.998527 0
M  V30 22 C 39.601274 28.267281 51.214209 0
M  V30 23 C 37.871128 26.092396 54.511736 0
M  V30 24 Cl 40.667345 30.421437 49.959903 0
M  V30 25 O 36.267464 29.932117 59.098448 0
M  V30 26 H 37.435949 28.091479 55.028540 0
M  V30 27 H 39.231569 30.153030 54.596989 0
M  V30 28 H 35.867400 36.001375 60.109404 0
M  V30 29 H 37.230653 35.896254 59.018661 0
M  V30 30 H 34.783945 34.936747 58.253496 0
M  V30 31 H 36.257284 34.021551 57.837480 0
M  V30 32 H 37.996080 28.939774 59.468449 0
M  V30 33 H 40.328569 27.423125 55.709648 0
M  V30 34 H 39.094450 26.729087 56.673843 0
M  V30 35 H 38.770107 26.566803 52.231740 0
M  V30 36 H 39.039873 32.721144 61.811836 0
M  V30 37 H 40.221772 32.607595 60.531624 0
M  V30 38 H 37.111558 28.492337 57.204924 0
M  V30 39 H 36.289448 32.303078 61.066131 0
M  V30 40 H 35.300541 33.670187 61.482312 0
M  V30 41 H 38.151899 31.151665 56.576021 0
M  V30 42 H 37.474257 30.116072 55.481464 0
M  V30 43 H 38.365527 30.579713 61.116320 0
M  V30 44 H 40.177625 31.319818 52.628525 0
M  V30 45 H 39.855920 29.617441 56.625389 0
M  V30 46 H 39.737405 28.496980 57.916738 0
M  V30 47 H 34.254002 33.278328 59.632743 0
M  V30 48 H 37.331391 34.802390 61.509514 0
M  V30 49 H 36.621038 24.477409 55.248112 0
M  V30 50 H 37.696075 25.103383 56.471601 0
M  V30 51 H 36.267417 26.021426 56.002164 0
M  V30 52 H 39.189523 34.636047 60.055290 0
M  V30 53 H 38.411784 33.588813 58.931294 0
M  V30 54 H 39.706741 27.747688 50.272831 0
M  V30 55 H 37.210571 26.102994 53.643449 0
M  V30 56 H 38.728000 25.470259 54.253548 0
M  V30 57 H 35.766792 29.870500 58.297793 0
M  V30 58 H 35.467411 32.421015 58.909951 0
M  V30 59 H 36.554479 30.849102 56.653487 0
M  V30 END ATOM
M  V30 BEGIN BOND
M  V30 1 1 4 3
M  V30 2 1 6 1
M  V30 3 1 6 2
M  V30 4 1 7 1
M  V30 5 2 8 6
M  V30 6 1 11 5
M  V30 7 1 13 11
M  V30 8 1 14 9
M  V30 9 2 15 2
M  V30 10 1 15 10
M  V30 11 1 16 7
M  V30 12 1 16 11
M  V30 13 1 17 4
M  V30 14 1 17 12
M  V30 15 1 18 5
M  V30 16 2 18 14
M  V30 17 1 19 3
M  V30 18 1 19 12
M  V30 19 1 21 9
M  V30 20 1 21 19
M  V30 21 1 22 8
M  V30 22 2 22 10
M  V30 23 1 23 1
M  V30 24 1 23 20
M  V30 25 1 24 10
M  V30 26 1 25 5
M  V30 27 1 1 26 CFG=1
M  V30 28 1 27 2
M  V30 29 1 28 3
M  V30 30 1 29 3
M  V30 31 1 30 4
M  V30 32 1 31 4
M  V30 33 1 5 32 CFG=1
M  V30 34 1 33 7
M  V30 35 1 34 7
M  V30 36 1 35 8
M  V30 37 1 36 9
M  V30 38 1 37 9
M  V30 39 1 11 38 CFG=3
M  V30 40 1 39 12
M  V30 41 1 40 12
M  V30 42 1 41 13
M  V30 43 1 42 13
M  V30 44 1 43 14
M  V30 45 1 44 15
M  V30 46 1 45 16
M  V30 47 1 46 16
M  V30 48 1 47 17
M  V30 49 1 19 48 CFG=1
M  V30 50 1 49 20
M  V30 51 1 50 20
M  V30 52 1 51 20
M  V30 53 1 52 21
M  V30 54 1 53 21
M  V30 55 1 54 22
M  V30 56 1 55 23
M  V30 57 1 56 23
M  V30 58 1 57 25
M  V30 59 1 58 17
M  V30 60 1 59 13
M  V30 END BOND
M  V30 END CTAB
M  END
>  <i_epik_Tot_Q>  (1) 
2

>  <i_epik_Tot_abs_Q>  (1) 
2

>  <i_i_glide_confnum>  (1) 
91

>  <i_i_glide_lignum>  (1) 
66

>  <i_i_glide_posenum>  (1) 
222

>  <i_i_glide_rotatable_bonds>  (1) 
11

>  <i_lp_mmshare_version>  (1) 
72125

>  <i_m_source_file_index>  (1) 
26

>  <i_f3d_flags>  (1) 
0

>  <num_sample>  (1) 
50

>  <b_lp_Chiralities_Consistent>  (1) 
1

>  <r_epik_Charging_Adjusted_Penalty>  (1) 
0.45127827763218775

>  <r_epik_Ionization_Penalty>  (1) 
0.041210974459634293

>  <r_epik_Ionization_Penalty_Charging>  (1) 
0.040598438679583813

>  <r_epik_Ionization_Penalty_Neutral>  (1) 
0.0006125357800504809

>  <r_epik_State_Penalty>  (1) 
0.41067983895260396

>  <r_glide_ring_energy>  (1) 
0

>  <r_i_docking_score>  (1) 
-7.9593316280716051

>  <r_i_glide_ecoul>  (1) 
-9.0495388547269382

>  <r_i_glide_eff_state_penalty>  (1) 
0.41067983895260396

>  <r_i_glide_einternal>  (1) 
17.583773204809397

>  <r_i_glide_emodel>  (1) 
-63.738651034215664

>  <r_i_glide_emodel_strain>  (1) 
3.2031528562583844

>  <r_i_glide_energy>  (1) 
-47.168892239142323

>  <r_i_glide_erotb>  (1) 
0.99595821917536853

>  <r_i_glide_esite>  (1) 
-0.1953939592716703

>  <r_i_glide_evdw>  (1) 
-38.119353384415383

>  <r_i_glide_gscore>  (1) 
-8.3700114670242094

>  <r_i_glide_gscore_strain>  (1) 
0

>  <r_i_glide_hbond>  (1) 
-0.33931577376657279

>  <r_i_glide_ligand_efficiency>  (1) 
-0.31837326512286418

>  <r_i_glide_ligand_efficiency_ln>  (1) 
-1.8866001177743261

>  <r_i_glide_ligand_efficiency_sa>  (1) 
-0.93092907459200258

>  <r_i_glide_lipo>  (1) 
-3.8229717104816388

>  <r_i_glide_metal>  (1) 
-0

>  <r_i_glide_rewards>  (1) 
-1.7448897452498859

>  <r_lp_Energy>  (1) 
33.902127

>  <r_lp_tautomer_probability>  (1) 
0.49999300000000002

>  <s_epik_Chemistry_Notes>  (1) 
This compound has an imine and may undergo hydrolysis. This compound contains an acetal/aminal-like group ( X-CH(R)-Y where X, Y are N, S, or O) that may be acid/base labile, releasing an aldehyde.

>  <s_epik_cmdline>  (1) 
J2VwaWtfcHl0aG9uJywgJy1waHQnLCAnMS4wJywgJy1waCcsICc3LjQnLCAnLXRuJywgJzgnLCAnLW1hJywgJzUwMCcsICctaW1hZScsICc8aW5maWxlLm1hZT4nLCAnLW9tYWUnLCAnPG91dGZpbGUubWFlPic=

>  <s_epik_input>  (1) 
W2NIXTFbY0hdYyhDbClbY0hdW2NIXWMxW0NAQEhdKFtDSDJdW0NIM10pW0NIMl1bQ0gyXVtDQEhdKFtOSDJdKVtDQEhdKFtPSF0pXE49W0NIXVxbQ0gyXVtDSDJdW0NASF0yW0NIMl1bQ0gyXVtOSF1bQ0gyXTI=

>  <s_glide_docking_method>  (1) 
confgen

>  <s_i_glide_gridfile>  (1) 
gpcr_5ht2c_6bqh_protein_autoprepared_prepared

>  <s_lp_Force_Field>  (1) 
S-OPLS

>  <s_lp_Variant>  (1) 
DiffSBDD_25_num_sample_50-1

>  <s_m_source_file>  (1) 
generated__ligand_DiffSBDD_2026-05-06_prepared.sdf

>  <GenAI_Model>  (1) 
DiffSBDD

>  <Protein>  (1) 
GPCR_5HT2C

$$$$
DiffSBDD_23_num_sample_50
     RDKit          3D

  0  0  0  0  0  0  0  0  0  0999 V3000
M  V30 BEGIN CTAB
M  V30 COUNTS 61 65 0 0 1
M  V30 BEGIN ATOM
M  V30 1 C 41.838484 31.930627 63.053081 0
M  V30 2 C 39.024576 28.785959 51.212044 0 CFG=2
M  V30 3 C 38.524280 30.968590 59.730194 0
M  V30 4 C 38.267291 27.144437 57.781484 0 CFG=1
M  V30 5 S 37.467403 29.518157 54.989152 0
M  V30 6 C 39.244342 30.612421 60.880078 0
M  V30 7 C 40.532212 31.185312 62.953433 0
M  V30 8 N 39.179284 31.388334 54.544391 0
M  V30 9 C 38.399396 29.471505 53.518039 0
M  V30 10 C 40.146095 30.824806 52.300489 0
M  V30 11 S 38.733583 26.068926 55.358173 0
M  V30 12 O 39.467404 24.821430 55.566852 0
M  V30 13 C 38.815960 33.324884 60.260140 0
M  V30 14 C 38.235411 28.399276 52.493105 0 CFG=2
M  V30 15 N 39.150973 27.176078 56.607948 0
M  V30 16 C 38.305632 32.317287 59.423740 0
M  V30 17 C 39.765309 31.611359 61.734660 0
M  V30 18 C 40.815171 28.421438 57.957684 0
M  V30 19 C 41.594285 33.147696 63.912720 0
M  V30 20 O 42.088547 33.211218 65.037022 0
M  V30 21 Cl 38.267404 25.435030 58.253501 0
M  V30 22 C 40.073746 34.157732 62.270719 0
M  V30 23 S 37.892244 29.720229 58.652333 0
M  V30 24 N 39.431960 26.862392 54.038226 0
M  V30 25 O 37.274017 26.079607 55.184967 0
M  V30 26 N 40.814510 34.127137 63.325000 0
M  V30 27 C 40.582479 27.346384 56.899259 0
M  V30 28 C 39.247079 30.536460 53.435588 0
M  V30 29 C 38.266439 30.993966 55.416662 0
M  V30 30 O 40.089577 28.112730 59.128745 0
M  V30 31 C 39.557402 33.000479 61.423282 0
M  V30 32 N 38.615332 27.065210 52.937577 0
M  V30 33 N 39.211994 27.621424 50.347188 0 CHG=1
M  V30 34 C 38.681733 28.100249 58.932986 0 CFG=2
M  V30 35 C 40.333575 29.576561 51.412381 0
M  V30 36 H 42.271239 32.181484 62.083167 0
M  V30 37 H 42.572105 31.306877 63.565530 0
M  V30 38 H 38.389079 29.461795 50.653681 0
M  V30 39 H 37.245843 27.363158 57.469397 0
M  V30 40 H 39.404997 29.570783 61.112681 0
M  V30 41 H 40.747638 30.118289 62.884634 0
M  V30 42 H 39.900065 31.293683 63.837589 0
M  V30 43 H 39.714723 31.621428 51.695130 0
M  V30 44 H 41.067403 31.221430 52.678069 0
M  V30 45 H 38.641089 34.361691 60.007838 0
M  V30 46 H 37.179493 28.340117 52.225750 0
M  V30 47 H 37.745671 32.584912 58.537987 0
M  V30 48 H 40.525603 29.402333 57.582492 0
M  V30 49 H 41.874715 28.476666 58.207761 0
M  V30 50 H 39.751485 35.139878 61.914407 0
M  V30 51 H 40.299601 26.403492 53.763638 0
M  V30 52 H 41.104323 27.621324 55.985233 0
M  V30 53 H 40.997625 26.398113 57.239208 0
M  V30 54 H 38.064357 31.571953 56.305924 0
M  V30 55 H 37.786949 26.473174 53.012070 0
M  V30 56 H 39.875840 26.989258 50.768682 0
M  V30 57 H 38.333857 27.130915 50.253507 0
M  V30 58 H 38.267407 27.733191 59.869738 0
M  V30 59 H 40.756337 29.877151 50.452723 0
M  V30 60 H 41.067404 28.908246 51.853501 0
M  V30 61 H 39.535755 27.913674 49.436927 0
M  V30 END ATOM
M  V30 BEGIN BOND
M  V30 1 2 6 3
M  V30 2 1 7 1
M  V30 3 1 9 5
M  V30 4 2 12 11
M  V30 5 1 14 2
M  V30 6 1 14 9
M  V30 7 1 15 4
M  V30 8 1 15 11
M  V30 9 1 16 3
M  V30 10 2 16 13
M  V30 11 1 17 6
M  V30 12 1 17 7
M  V30 13 1 19 1
M  V30 14 2 20 19
M  V30 15 1 21 4
M  V30 16 1 23 3
M  V30 17 1 24 11
M  V30 18 2 25 11
M  V30 19 1 26 19
M  V30 20 2 26 22
M  V30 21 1 27 15
M  V30 22 1 27 18
M  V30 23 1 28 8
M  V30 24 2 28 9
M  V30 25 1 28 10
M  V30 26 1 29 5
M  V30 27 2 29 8
M  V30 28 1 30 18
M  V30 29 1 31 13
M  V30 30 2 31 17
M  V30 31 1 31 22
M  V30 32 1 32 14
M  V30 33 1 32 24
M  V30 34 1 33 2
M  V30 35 1 34 4
M  V30 36 1 34 23
M  V30 37 1 34 30
M  V30 38 1 35 2
M  V30 39 1 35 10
M  V30 40 1 36 1
M  V30 41 1 37 1
M  V30 42 1 2 38 CFG=3
M  V30 43 1 4 39 CFG=3
M  V30 44 1 40 6
M  V30 45 1 41 7
M  V30 46 1 42 7
M  V30 47 1 43 10
M  V30 48 1 44 10
M  V30 49 1 45 13
M  V30 50 1 14 46 CFG=3
M  V30 51 1 47 16
M  V30 52 1 48 18
M  V30 53 1 49 18
M  V30 54 1 50 22
M  V30 55 1 51 24
M  V30 56 1 52 27
M  V30 57 1 53 27
M  V30 58 1 54 29
M  V30 59 1 55 32
M  V30 60 1 56 33
M  V30 61 1 57 33
M  V30 62 1 34 58 CFG=1
M  V30 63 1 59 35
M  V30 64 1 60 35
M  V30 65 1 61 33
M  V30 END BOND
M  V30 END CTAB
M  END
>  <i_epik_Tot_Q>  (1) 
1

>  <i_epik_Tot_abs_Q>  (1) 
1

>  <i_i_glide_confnum>  (1) 
158

>  <i_i_glide_lignum>  (1) 
63

>  <i_i_glide_posenum>  (1) 
202

>  <i_i_glide_rotatable_bonds>  (1) 
6

>  <i_lp_mmshare_version>  (1) 
72125

>  <i_m_source_file_index>  (1) 
24

>  <i_f3d_flags>  (1) 
0

>  <num_sample>  (1) 
50

>  <b_lp_Chiralities_Consistent>  (1) 
1

>  <r_epik_Charging_Adjusted_Penalty>  (1) 
0.20786405117440027

>  <r_epik_Ionization_Penalty>  (1) 
0.17784020352230567

>  <r_epik_Ionization_Penalty_Charging>  (1) 
0.046839863378715332

>  <r_epik_Ionization_Penalty_Neutral>  (1) 
0.13100034014359035

>  <r_epik_State_Penalty>  (1) 
0.16102418779568495

>  <r_glide_ring_energy>  (1) 
0.36391509760431284

>  <r_i_docking_score>  (1) 
-7.9545318438292574

>  <r_i_glide_ecoul>  (1) 
-2.1722421997951402

>  <r_i_glide_eff_state_penalty>  (1) 
0.16102418779568495

>  <r_i_glide_einternal>  (1) 
12.464905131199465

>  <r_i_glide_emodel>  (1) 
-82.782947611744873

>  <r_i_glide_emodel_strain>  (1) 
0.56903003759836679

>  <r_i_glide_energy>  (1) 
-57.279501548255908

>  <r_i_glide_erotb>  (1) 
0.32266353053763186

>  <r_i_glide_esite>  (1) 
0

>  <r_i_glide_evdw>  (1) 
-55.107259348460765

>  <r_i_glide_gscore>  (1) 
-8.1155560316249424

>  <r_i_glide_gscore_strain>  (1) 
0

>  <r_i_glide_hbond>  (1) 
0

>  <r_i_glide_ligand_efficiency>  (1) 
-0.22727233839512165

>  <r_i_glide_ligand_efficiency_ln>  (1) 
-1.7461962810430012

>  <r_i_glide_ligand_efficiency_sa>  (1) 
-0.74342288936206324

>  <r_i_glide_lipo>  (1) 
-3.5960037853321789

>  <r_i_glide_metal>  (1) 
-0

>  <r_i_glide_rewards>  (1) 
-1.761016479438086

>  <r_lp_Energy>  (1) 
39.045392999999997

>  <s_epik_Chemistry_Notes>  (1) 
This compound has an imine and may undergo hydrolysis. This compound contains an acetal/aminal-like group ( X-CH(R)-Y where X, Y are N, S, or O) that may be acid/base labile, releasing an aldehyde.

>  <s_epik_cmdline>  (1) 
J2VwaWtfcHl0aG9uJywgJy1waHQnLCAnMS4wJywgJy1waCcsICc3LjQnLCAnLXRuJywgJzgnLCAnLW1hJywgJzUwMCcsICctaW1hZScsICc8aW5maWxlLm1hZT4nLCAnLW9tYWUnLCAnPG91dGZpbGUubWFlPic=

>  <s_epik_input>  (1) 
W0NIMl0xW0NIMl1DKD1PKU49W0NIXWMoYzEyKVtjSF1bY0hdYyhbY0hdMilTW0NAQEhdM09bQ0gyXVtDSDJdTihbQ0BIXTNDbClTKD1PKSg9TylbTkhdW05IXVtDQEBIXTRbQ0BASF0oW05IMl0pW0NIMl1bQ0gyXWMoYzQ1KW5bY0hdczU=

>  <s_glide_docking_method>  (1) 
confgen

>  <s_i_glide_gridfile>  (1) 
gpcr_5ht2c_6bqh_protein_autoprepared_prepared

>  <s_lp_Force_Field>  (1) 
S-OPLS

>  <s_lp_Variant>  (1) 
DiffSBDD_23_num_sample_50-2

>  <s_m_source_file>  (1) 
generated__ligand_DiffSBDD_2026-05-06_prepared.sdf

>  <GenAI_Model>  (1) 
DiffSBDD

>  <Protein>  (1) 
GPCR_5HT2C

$$$$
DiffSBDD_44_num_sample_50
     RDKit          3D

  0  0  0  0  0  0  0  0  0  0999 V3000
M  V30 BEGIN CTAB
M  V30 COUNTS 65 67 0 0 1
M  V30 BEGIN ATOM
M  V30 1 C 42.919354 31.247634 66.449342 0
M  V30 2 C 39.401809 30.131424 54.547585 0
M  V30 3 C 40.425234 33.228615 62.832779 0
M  V30 4 O 36.679839 32.009047 60.734830 0
M  V30 5 O 44.684022 32.375347 67.654190 0
M  V30 6 C 39.856829 31.889858 62.570583 0
M  V30 7 F 40.241193 36.623585 61.453453 0
M  V30 8 C 38.667692 27.825053 54.097264 0
M  V30 9 C 38.929476 31.134899 56.885425 0 CFG=2
M  V30 10 O 37.585129 26.509119 55.692702 0
M  V30 11 C 42.561728 32.601069 65.822094 0
M  V30 12 C 40.596462 35.592696 62.239071 0
M  V30 13 C 44.095941 31.318108 67.426696 0
M  V30 14 C 39.065758 29.024629 53.635098 0
M  V30 15 O 39.801914 31.221053 54.145350 0
M  V30 16 O 41.645886 32.388566 64.752342 0
M  V30 17 O 39.867555 28.813536 62.252363 0
M  V30 18 C 38.324362 28.608692 56.374167 0
M  V30 19 C 35.484479 32.400531 60.080569 0
M  V30 20 C 44.509680 30.020250 68.106982 0
M  V30 21 O 37.867555 31.902835 56.354666 0
M  V30 22 C 41.475576 35.805843 63.299206 0
M  V30 23 C 39.234074 29.841634 56.069911 0 CFG=1
M  V30 24 C 38.332606 30.423868 61.476453 0 CFG=2
M  V30 25 C 40.078149 34.313649 61.995216 0
M  V30 26 C 37.492679 30.410721 58.970223 0
M  V30 27 C 41.305975 33.445702 63.924747 0
M  V30 28 C 38.666310 27.613522 51.957213 0
M  V30 29 C 38.792891 31.016374 58.422930 0
M  V30 30 O 38.409503 26.912289 53.124657 0
M  V30 31 N 38.540674 27.503400 55.439813 0
M  V30 32 O 39.067459 29.255476 61.110593 0
M  V30 33 C 41.831407 34.745967 64.150233 0
M  V30 34 C 37.173669 30.694490 60.459996 0 CFG=2
M  V30 35 N 39.149640 31.621017 61.551932 0
M  V30 36 C 39.069431 28.901936 52.225768 0
M  V30 37 H 42.053298 30.832549 66.965458 0
M  V30 38 H 43.188780 30.547230 65.658961 0
M  V30 39 H 40.066608 31.116053 63.313947 0
M  V30 40 H 39.800883 31.771318 56.723596 0
M  V30 41 H 38.078671 25.730720 55.904167 0
M  V30 42 H 43.469030 33.073736 65.451320 0
M  V30 43 H 42.118673 33.257648 66.572910 0
M  V30 44 H 39.206430 28.421140 62.813495 0
M  V30 45 H 38.548488 28.229446 57.369525 0
M  V30 46 H 37.281986 28.922323 56.369494 0
M  V30 47 H 35.073004 33.281578 60.572947 0
M  V30 48 H 35.687268 32.681725 59.052997 0
M  V30 49 H 34.722230 31.622476 60.097909 0
M  V30 50 H 44.606722 29.222786 67.370606 0
M  V30 51 H 45.467299 30.143261 68.611326 0
M  V30 52 H 43.765144 29.724457 68.845686 0
M  V30 53 H 36.995019 31.622868 56.653914 0
M  V30 54 H 41.879574 36.792131 63.457433 0
M  V30 55 H 40.231412 29.526786 56.377856 0
M  V30 56 H 37.867759 30.249742 62.448340 0
M  V30 57 H 39.401297 34.161804 61.166306 0
M  V30 58 H 37.541366 29.329490 58.867995 0
M  V30 59 H 36.651709 30.710731 58.353281 0
M  V30 60 H 38.512703 27.052603 51.045756 0
M  V30 61 H 38.903052 32.019588 58.836942 0
M  V30 62 H 39.616427 30.420878 58.815338 0
M  V30 63 H 42.505226 34.932445 64.971288 0
M  V30 64 H 36.347302 30.021453 60.660986 0
M  V30 65 H 39.332985 29.653481 51.495180 0
M  V30 END ATOM
M  V30 BEGIN BOND
M  V30 1 1 6 3
M  V30 2 1 11 1
M  V30 3 1 12 7
M  V30 4 1 13 1
M  V30 5 2 13 5
M  V30 6 1 14 2
M  V30 7 2 14 8
M  V30 8 2 15 2
M  V30 9 1 16 11
M  V30 10 1 19 4
M  V30 11 1 20 13
M  V30 12 1 21 9
M  V30 13 1 22 12
M  V30 14 1 23 2
M  V30 15 1 23 9
M  V30 16 1 23 18
M  V30 17 1 25 3
M  V30 18 2 25 12
M  V30 19 2 27 3
M  V30 20 1 27 16
M  V30 21 1 29 9
M  V30 22 1 29 26
M  V30 23 1 30 8
M  V30 24 1 30 28
M  V30 25 1 31 8
M  V30 26 1 31 10
M  V30 27 1 31 18
M  V30 28 1 32 17
M  V30 29 1 32 24
M  V30 30 2 33 22
M  V30 31 1 33 27
M  V30 32 1 34 4
M  V30 33 1 34 24
M  V30 34 1 34 26
M  V30 35 2 35 6
M  V30 36 1 35 24
M  V30 37 1 36 14
M  V30 38 2 36 28
M  V30 39 1 37 1
M  V30 40 1 38 1
M  V30 41 1 39 6
M  V30 42 1 9 40 CFG=1
M  V30 43 1 41 10
M  V30 44 1 42 11
M  V30 45 1 43 11
M  V30 46 1 44 17
M  V30 47 1 45 18
M  V30 48 1 46 18
M  V30 49 1 47 19
M  V30 50 1 48 19
M  V30 51 1 49 19
M  V30 52 1 50 20
M  V30 53 1 51 20
M  V30 54 1 52 20
M  V30 55 1 53 21
M  V30 56 1 54 22
M  V30 57 1 23 55 CFG=1
M  V30 58 1 24 56 CFG=1
M  V30 59 1 57 25
M  V30 60 1 58 26
M  V30 61 1 59 26
M  V30 62 1 60 28
M  V30 63 1 61 29
M  V30 64 1 62 29
M  V30 65 1 63 33
M  V30 66 1 34 64 CFG=1
M  V30 67 1 65 36
M  V30 END BOND
M  V30 END CTAB
M  END
>  <i_epik_Tot_Q>  (1) 
0

>  <i_epik_Tot_abs_Q>  (1) 
0

>  <i_i_glide_confnum>  (1) 
704

>  <i_i_glide_lignum>  (1) 
102

>  <i_i_glide_posenum>  (1) 
50

>  <i_i_glide_rotatable_bonds>  (1) 
16

>  <i_lp_mmshare_version>  (1) 
72125

>  <i_m_source_file_index>  (1) 
45

>  <i_f3d_flags>  (1) 
0

>  <num_sample>  (1) 
50

>  <b_lp_Chiralities_Consistent>  (1) 
1

>  <r_epik_Charging_Adjusted_Penalty>  (1) 
0

>  <r_epik_Ionization_Penalty>  (1) 
0.00046426775496228489

>  <r_epik_Ionization_Penalty_Charging>  (1) 
0

>  <r_epik_Ionization_Penalty_Neutral>  (1) 
0.00046426775496228489

>  <r_epik_State_Penalty>  (1) 
-0

>  <r_glide_ring_energy>  (1) 
0

>  <r_i_docking_score>  (1) 
-7.9459925985743771

>  <r_i_glide_ecoul>  (1) 
-9.4823647894101306

>  <r_i_glide_eff_state_penalty>  (1) 
-0

>  <r_i_glide_einternal>  (1) 
10.122646346381584

>  <r_i_glide_emodel>  (1) 
-77.856629091824601

>  <r_i_glide_emodel_strain>  (1) 
1.0224317108076235

>  <r_i_glide_energy>  (1) 
-55.979712618712853

>  <r_i_glide_erotb>  (1) 
0.87096195952989475

>  <r_i_glide_esite>  (1) 
-0.0025819090815398767

>  <r_i_glide_evdw>  (1) 
-46.497347829302726

>  <r_i_glide_gscore>  (1) 
-7.9459925985743771

>  <r_i_glide_gscore_strain>  (1) 
0

>  <r_i_glide_hbond>  (1) 
-0.45599999999999996

>  <r_i_glide_ligand_efficiency>  (1) 
-0.22072201662706603

>  <r_i_glide_ligand_efficiency_ln>  (1) 
-1.7336009090977742

>  <r_i_glide_ligand_efficiency_sa>  (1) 
-0.72880804113188236

>  <r_i_glide_lipo>  (1) 
-2.8052013925219446

>  <r_i_glide_metal>  (1) 
-0

>  <r_i_glide_rewards>  (1) 
-1.8059491466241329

>  <r_lp_Energy>  (1) 
22.676888999999999

>  <r_lp_tautomer_probability>  (1) 
1

>  <s_epik_Chemistry_Notes>  (1) 
This compound has an imine and may undergo hydrolysis. This compound contains an acetal/aminal-like group ( X-CH(R)-Y where X, Y are N, S, or O) that may be acid/base labile, releasing an aldehyde. This compound has a N-S or N-O group and may undergo hydrolysis at high or low pH.

>  <s_epik_cmdline>  (1) 
J2VwaWtfcHl0aG9uJywgJy1waHQnLCAnMS4wJywgJy1waCcsICc3LjQnLCAnLXRuJywgJzgnLCAnLW1hJywgJzUwMCcsICctaW1hZScsICc8aW5maWxlLm1hZT4nLCAnLW9tYWUnLCAnPG91dGZpbGUubWFlPic=

>  <s_epik_input>  (1) 
Tz1DKFtDSDNdKVtDSDJdW0NIMl1PYzFbY0hdW2NIXWMoRilbY0hdYzEvW0NIXT1OL1tDQEhdKE9bT0hdKVtDQEBIXShPW0NIM10pW0NIMl1bQ0gyXVtDQEhdKFtPSF0pW0NAQEhdKFtDSDJdTjJbT0hdKUMoPU8pYyhjMjMpW2NIXVtjSF1vMw==

>  <s_glide_docking_method>  (1) 
confgen

>  <s_i_glide_gridfile>  (1) 
gpcr_5ht2c_6bqh_protein_autoprepared_prepared

>  <s_lp_Force_Field>  (1) 
S-OPLS

>  <s_lp_Variant>  (1) 
DiffSBDD_44_num_sample_50-1

>  <s_m_source_file>  (1) 
generated__ligand_DiffSBDD_2026-05-06_prepared.sdf

>  <GenAI_Model>  (1) 
DiffSBDD

>  <Protein>  (1) 
GPCR_5HT2C

$$$$
DiffSBDD_8_num_sample_50
     RDKit          3D

  0  0  0  0  0  0  0  0  0  0999 V3000
M  V30 BEGIN CTAB
M  V30 COUNTS 69 73 0 0 1
M  V30 BEGIN ATOM
M  V30 1 C 39.493420 31.772853 60.462922 0
M  V30 2 N 38.866075 28.770690 58.170337 0
M  V30 3 C 38.625516 28.891181 54.464964 0
M  V30 4 C 39.220393 28.968227 51.986982 0
M  V30 5 C 41.015918 28.169470 56.893464 0
M  V30 6 C 37.405202 24.426207 56.216184 0
M  V30 7 C 39.067415 29.633532 53.351213 0
M  V30 8 C 38.388692 24.888515 55.331166 0
M  V30 9 C 39.302518 29.280285 60.572532 0
M  V30 10 C 39.440273 25.697737 55.803293 0
M  V30 11 N 40.151451 30.485770 60.713193 0
M  V30 12 N 40.264149 28.307708 58.133799 0
M  V30 13 C 40.094193 34.527413 62.171471 0
M  V30 14 C 37.406087 34.081957 60.396804 0
M  V30 15 N 39.546010 35.194460 61.054250 0
M  V30 16 C 41.191145 33.207037 64.339226 0
M  V30 17 C 39.375314 30.999378 53.502920 0
M  V30 18 O 37.200415 29.633637 59.453511 0
M  V30 19 C 38.049758 28.709553 56.921795 0
M  V30 20 C 38.505851 29.513590 55.726852 0
M  V30 21 O 37.641593 36.415367 60.373261 0
M  V30 22 C 38.092955 35.268527 61.055249 0 CFG=1
M  V30 23 N 40.267388 32.546973 63.606075 0
M  V30 24 O 38.793834 27.621274 51.929917 0
M  V30 25 C 37.466781 24.774456 57.573300 0
M  V30 26 C 40.596118 26.951226 57.674203 0 CFG=1
M  V30 27 C 37.376015 32.901056 61.349629 0
M  V30 28 C 41.067339 35.182165 62.949565 0
M  V30 29 C 39.238105 31.621347 54.761055 0
M  V30 30 C 38.361491 29.241148 59.342274 0
M  V30 31 C 39.501397 26.060617 57.168651 0
M  V30 32 F 36.397100 23.645827 55.761106 0
M  V30 33 C 38.808686 30.878553 55.871125 0
M  V30 34 C 39.725549 33.188179 62.539841 0
M  V30 35 C 38.759544 32.338831 61.690492 0 CFG=2
M  V30 36 C 41.621243 34.513472 64.050593 0
M  V30 37 C 38.508341 25.590620 58.046779 0
M  V30 38 H 40.272403 32.494854 60.238666 0
M  V30 39 H 38.868819 31.757809 59.571709 0
M  V30 40 H 38.387748 27.843765 54.357706 0
M  V30 41 H 38.667525 29.538580 51.241418 0
M  V30 42 H 40.270185 29.010881 51.694907 0
M  V30 43 H 40.586131 28.271344 55.908936 0
M  V30 44 H 42.072873 28.421352 56.939612 0
M  V30 45 H 38.336485 24.624290 54.288251 0
M  V30 46 H 39.924549 28.386786 60.635503 0
M  V30 47 H 38.667442 29.227457 61.455695 0
M  V30 48 H 40.194266 26.052509 55.116046 0
M  V30 49 H 40.587548 30.520699 61.625045 0
M  V30 50 H 37.870734 33.835429 59.441211 0
M  V30 51 H 36.367848 34.332577 60.170094 0
M  V30 52 H 39.980448 36.082573 60.847079 0
M  V30 53 H 41.602982 32.672224 65.182297 0
M  V30 54 H 39.712497 31.574392 52.652588 0
M  V30 55 H 37.784840 27.705122 56.619144 0
M  V30 56 H 37.067467 29.135784 57.120866 0
M  V30 57 H 37.095496 36.136933 59.652971 0
M  V30 58 H 37.739622 35.377957 62.082186 0
M  V30 59 H 38.831053 27.324831 51.032942 0
M  V30 60 H 36.708610 24.421626 58.253507 0
M  V30 61 H 41.358676 26.400937 58.221091 0
M  V30 62 H 36.838981 33.174705 62.253486 0
M  V30 63 H 36.783325 32.109296 60.888610 0
M  V30 64 H 41.382521 36.186389 62.704829 0
M  V30 65 H 39.466955 32.669175 54.873458 0
M  V30 66 H 38.710112 31.356009 56.835404 0
M  V30 67 H 38.509399 31.484124 62.322223 0
M  V30 68 H 42.366591 34.995421 64.666686 0
M  V30 69 H 38.542949 25.864953 59.085623 0
M  V30 END ATOM
M  V30 BEGIN BOND
M  V30 1 2 7 3
M  V30 2 1 7 4
M  V30 3 1 8 6
M  V30 4 2 10 8
M  V30 5 1 11 1
M  V30 6 1 11 9
M  V30 7 1 12 2
M  V30 8 1 12 5
M  V30 9 1 15 13
M  V30 10 1 17 7
M  V30 11 1 19 2
M  V30 12 1 20 3
M  V30 13 1 20 19
M  V30 14 1 22 14
M  V30 15 1 22 15
M  V30 16 1 22 21
M  V30 17 1 23 16
M  V30 18 1 24 4
M  V30 19 2 25 6
M  V30 20 1 26 5
M  V30 21 1 26 12
M  V30 22 1 27 14
M  V30 23 2 28 13
M  V30 24 2 29 17
M  V30 25 1 30 2
M  V30 26 1 30 9
M  V30 27 2 30 18
M  V30 28 1 31 10
M  V30 29 1 31 26
M  V30 30 1 32 6
M  V30 31 2 33 20
M  V30 32 1 33 29
M  V30 33 1 34 13
M  V30 34 2 34 23
M  V30 35 1 35 1
M  V30 36 1 35 27
M  V30 37 1 35 34
M  V30 38 2 36 16
M  V30 39 1 36 28
M  V30 40 1 37 25
M  V30 41 2 37 31
M  V30 42 1 38 1
M  V30 43 1 39 1
M  V30 44 1 40 3
M  V30 45 1 41 4
M  V30 46 1 42 4
M  V30 47 1 43 5
M  V30 48 1 44 5
M  V30 49 1 45 8
M  V30 50 1 46 9
M  V30 51 1 47 9
M  V30 52 1 48 10
M  V30 53 1 49 11
M  V30 54 1 50 14
M  V30 55 1 51 14
M  V30 56 1 52 15
M  V30 57 1 53 16
M  V30 58 1 54 17
M  V30 59 1 55 19
M  V30 60 1 56 19
M  V30 61 1 57 21
M  V30 62 1 22 58 CFG=1
M  V30 63 1 59 24
M  V30 64 1 60 25
M  V30 65 1 26 61 CFG=1
M  V30 66 1 62 27
M  V30 67 1 63 27
M  V30 68 1 64 28
M  V30 69 1 65 29
M  V30 70 1 66 33
M  V30 71 1 35 67 CFG=1
M  V30 72 1 68 36
M  V30 73 1 69 37
M  V30 END BOND
M  V30 END CTAB
M  END
>  <i_epik_Tot_Q>  (1) 
0

>  <i_epik_Tot_abs_Q>  (1) 
0

>  <i_i_glide_confnum>  (1) 
2622

>  <i_i_glide_lignum>  (1) 
30

>  <i_i_glide_posenum>  (1) 
77

>  <i_i_glide_rotatable_bonds>  (1) 
12

>  <i_lp_mmshare_version>  (1) 
72125

>  <i_m_source_file_index>  (1) 
9

>  <i_f3d_flags>  (1) 
0

>  <num_sample>  (1) 
50

>  <b_lp_Chiralities_Consistent>  (1) 
1

>  <r_epik_Charging_Adjusted_Penalty>  (1) 
1.1060706723907541

>  <r_epik_Ionization_Penalty>  (1) 
1.1273273106042034

>  <r_epik_Ionization_Penalty_Charging>  (1) 
0

>  <r_epik_Ionization_Penalty_Neutral>  (1) 
1.1273273106042034

>  <r_epik_State_Penalty>  (1) 
1.1060706723907541

>  <r_glide_ring_energy>  (1) 
0

>  <r_i_docking_score>  (1) 
-7.9435661674329108

>  <r_i_glide_ecoul>  (1) 
-1.7545650394430323

>  <r_i_glide_eff_state_penalty>  (1) 
1.1060706723907541

>  <r_i_glide_einternal>  (1) 
8.29780668353634

>  <r_i_glide_emodel>  (1) 
-80.157393325225158

>  <r_i_glide_emodel_strain>  (1) 
2.4246589164099674

>  <r_i_glide_energy>  (1) 
-56.659712866276585

>  <r_i_glide_erotb>  (1) 
0.80016093564374513

>  <r_i_glide_esite>  (1) 
0

>  <r_i_glide_evdw>  (1) 
-54.905147826833556

>  <r_i_glide_gscore>  (1) 
-9.0496368398236644

>  <r_i_glide_gscore_strain>  (1) 
0

>  <r_i_glide_hbond>  (1) 
0

>  <r_i_glide_ligand_efficiency>  (1) 
-0.21469097749818677

>  <r_i_glide_ligand_efficiency_ln>  (1) 
-1.722773278103646

>  <r_i_glide_ligand_efficiency_sa>  (1) 
-0.71539796657068777

>  <r_i_glide_lipo>  (1) 
-5.2129680369308415

>  <r_i_glide_metal>  (1) 
-0

>  <r_i_glide_rewards>  (1) 
-1.6283875912784356

>  <r_lp_Energy>  (1) 
58.402149999999999

>  <r_lp_tautomer_probability>  (1) 
0.99999999999999911

>  <s_epik_Chemistry_Notes>  (1) 
This compound contains an acetal/aminal-like group ( X-CH(R)-Y where X, Y are N, S, or O) that may be acid/base labile, releasing an aldehyde.

>  <s_epik_cmdline>  (1) 
J2VwaWtfcHl0aG9uJywgJy1waHQnLCAnMS4wJywgJy1waCcsICc3LjQnLCAnLXRuJywgJzgnLCAnLW1hJywgJzUwMCcsICctaW1hZScsICc8aW5maWxlLm1hZT4nLCAnLW9tYWUnLCAnPG91dGZpbGUubWFlPic=

>  <s_epik_input>  (1) 
W2NIXTFbY0hdW2NIXW5jKGMxMilbQ0BASF0oW0NIMl1bQ0gyXVtDQEBIXShbTkhdMilbT0hdKVtDSDJdW05IXVtDSDJdQyg9TylOKFtDSDJdYyhbY0hdW2NIXVtjSF0zKVtjSF1jM1tDSDJdW09IXSlONFtDSDJdW0NAQEhdNGMoW2NIXVtjSF01KVtjSF1bY0hdYzVG

>  <s_glide_docking_method>  (1) 
confgen

>  <s_i_glide_gridfile>  (1) 
gpcr_5ht2c_6bqh_protein_autoprepared_prepared

>  <s_lp_Force_Field>  (1) 
S-OPLS

>  <s_lp_Variant>  (1) 
DiffSBDD_8_num_sample_50-2

>  <s_m_source_file>  (1) 
generated__ligand_DiffSBDD_2026-05-06_prepared.sdf

>  <GenAI_Model>  (1) 
DiffSBDD

>  <Protein>  (1) 
GPCR_5HT2C

$$$$
DiffSBDD_37_num_sample_50
     RDKit          3D

  0  0  0  0  0  0  0  0  0  0999 V3000
M  V30 BEGIN CTAB
M  V30 COUNTS 62 64 0 0 1
M  V30 BEGIN ATOM
M  V30 1 C 38.582108 27.304914 54.881271 0
M  V30 2 F 39.067363 27.239400 50.721550 0
M  V30 3 C 37.477641 33.855025 59.385778 0
M  V30 4 C 38.140491 27.372654 57.827451 0
M  V30 5 C 38.117594 26.031798 55.591252 0
M  V30 6 N 39.149434 28.447195 51.376474 0
M  V30 7 C 37.107243 36.760214 60.790709 0 CFG=1
M  V30 8 C 38.456098 29.900700 57.714637 0
M  V30 9 C 36.950434 38.127617 61.424391 0
M  V30 10 C 39.362667 29.636450 54.895124 0
M  V30 11 C 38.947481 28.484189 55.611344 0
M  V30 12 C 38.915388 28.518453 57.165036 0 CFG=2
M  V30 13 S 38.784187 25.808848 57.247566 0
M  V30 14 O 38.040561 38.945313 61.053496 0
M  V30 15 C 39.067391 28.461698 52.775520 0
M  V30 16 C 39.091336 35.914591 62.311705 0
M  V30 17 C 39.416328 29.623645 53.489971 0
M  V30 18 C 38.082095 35.658359 61.203067 0 CFG=1
M  V30 19 C 36.075231 30.899828 59.645207 0
M  V30 20 C 39.467402 29.045488 61.211592 0
M  V30 21 C 37.574034 31.240033 59.635262 0 CFG=2
M  V30 22 C 39.634766 29.899095 59.947435 0
M  V30 23 C 38.646768 27.309855 53.470581 0
M  V30 24 F 39.761910 29.503357 50.737918 0
M  V30 25 C 37.915585 32.505893 58.795665 0
M  V30 26 O 36.708032 35.656784 61.614060 0
M  V30 27 N 38.349913 30.035600 59.202299 0 CFG=2 CHG=1
M  V30 28 O 36.667240 36.741966 59.453479 0
M  V30 29 C 38.481582 34.401509 60.421518 0
M  V30 30 H 36.473711 33.785159 59.804831 0
M  V30 31 H 37.418244 34.545719 58.545608 0
M  V30 32 H 38.267434 27.385063 58.907840 0
M  V30 33 H 37.071024 27.438254 57.623552 0
M  V30 34 H 37.027970 26.024908 55.635199 0
M  V30 35 H 38.410306 25.164062 54.998565 0
M  V30 36 H 37.488734 30.131375 57.264714 0
M  V30 37 H 39.151954 30.670637 57.391453 0
M  V30 38 H 36.920967 38.023137 62.508832 0
M  V30 39 H 36.006626 38.580346 61.117400 0
M  V30 40 H 39.648369 30.530785 55.421076 0
M  V30 41 H 39.959640 28.382427 57.447065 0
M  V30 42 H 38.026917 39.019308 60.110137 0
M  V30 43 H 40.077812 36.102963 61.887498 0
M  V30 44 H 38.814367 36.778056 62.914816 0
M  V30 45 H 39.158481 35.053455 62.975687 0
M  V30 46 H 39.739570 30.507795 52.958875 0
M  V30 47 H 35.471996 31.718874 60.036614 0
M  V30 48 H 35.702266 30.662494 58.653518 0
M  V30 49 H 35.877147 30.021501 60.253530 0
M  V30 50 H 40.416713 28.943290 61.737930 0
M  V30 51 H 38.762834 29.500811 61.908629 0
M  V30 52 H 39.116337 28.039648 60.981170 0
M  V30 53 H 37.832525 31.447964 60.674570 0
M  V30 54 H 40.409249 29.452228 59.326103 0
M  V30 55 H 40.014477 30.876768 60.252391 0
M  V30 56 H 38.375109 26.421473 52.920364 0
M  V30 57 H 37.467388 32.415932 57.805947 0
M  V30 58 H 38.990495 32.563545 58.620480 0
M  V30 59 H 36.711164 35.853183 59.135098 0
M  V30 60 H 39.436630 34.593917 59.931627 0
M  V30 61 H 38.674474 33.614982 61.151370 0
M  V30 62 H 37.792604 29.247482 59.497689 0
M  V30 END ATOM
M  V30 BEGIN BOND
M  V30 1 1 5 1
M  V30 2 1 6 2
M  V30 3 1 9 7
M  V30 4 2 11 1
M  V30 5 1 11 10
M  V30 6 1 12 4
M  V30 7 1 12 8
M  V30 8 1 12 11
M  V30 9 1 13 4
M  V30 10 1 13 5
M  V30 11 1 14 9
M  V30 12 1 15 6
M  V30 13 2 17 10
M  V30 14 1 17 15
M  V30 15 1 18 7
M  V30 16 1 18 16 CFG=1
M  V30 17 1 21 19
M  V30 18 1 22 20
M  V30 19 1 23 1
M  V30 20 2 23 15
M  V30 21 1 24 6
M  V30 22 1 25 3
M  V30 23 1 25 21
M  V30 24 1 26 7
M  V30 25 1 26 18
M  V30 26 1 27 8
M  V30 27 1 27 21
M  V30 28 1 27 22
M  V30 29 1 7 28 CFG=3
M  V30 30 1 29 3
M  V30 31 1 29 18
M  V30 32 1 30 3
M  V30 33 1 31 3
M  V30 34 1 32 4
M  V30 35 1 33 4
M  V30 36 1 34 5
M  V30 37 1 35 5
M  V30 38 1 36 8
M  V30 39 1 37 8
M  V30 40 1 38 9
M  V30 41 1 39 9
M  V30 42 1 40 10
M  V30 43 1 12 41 CFG=1
M  V30 44 1 42 14
M  V30 45 1 43 16
M  V30 46 1 44 16
M  V30 47 1 45 16
M  V30 48 1 46 17
M  V30 49 1 47 19
M  V30 50 1 48 19
M  V30 51 1 49 19
M  V30 52 1 50 20
M  V30 53 1 51 20
M  V30 54 1 52 20
M  V30 55 1 21 53 CFG=1
M  V30 56 1 54 22
M  V30 57 1 55 22
M  V30 58 1 56 23
M  V30 59 1 57 25
M  V30 60 1 58 25
M  V30 61 1 59 28
M  V30 62 1 60 29
M  V30 63 1 61 29
M  V30 64 1 27 62 CFG=1
M  V30 END BOND
M  V30 END CTAB
M  END
>  <i_epik_Tot_Q>  (1) 
1

>  <i_epik_Tot_abs_Q>  (1) 
1

>  <i_i_glide_confnum>  (1) 
1393

>  <i_i_glide_lignum>  (1) 
91

>  <i_i_glide_posenum>  (1) 
304

>  <i_i_glide_rotatable_bonds>  (1) 
12

>  <i_lp_mmshare_version>  (1) 
72125

>  <i_m_source_file_index>  (1) 
38

>  <i_f3d_flags>  (1) 
0

>  <num_sample>  (1) 
50

>  <b_lp_Chiralities_Consistent>  (1) 
1

>  <r_epik_Charging_Adjusted_Penalty>  (1) 
0.031037112904587178

>  <r_epik_Ionization_Penalty>  (1) 
0.015538636701717824

>  <r_epik_Ionization_Penalty_Charging>  (1) 
0.015518556452293627

>  <r_epik_Ionization_Penalty_Neutral>  (1) 
2.0080249424197063e-05

>  <r_epik_State_Penalty>  (1) 
0.015518556452293551

>  <r_glide_ring_energy>  (1) 
0

>  <r_i_docking_score>  (1) 
-7.9173702293271795

>  <r_i_glide_ecoul>  (1) 
-2.2038423522349668

>  <r_i_glide_eff_state_penalty>  (1) 
0.015518556452293551

>  <r_i_glide_einternal>  (1) 
6.065167041562546

>  <r_i_glide_emodel>  (1) 
-67.112340645893909

>  <r_i_glide_emodel_strain>  (1) 
1.3086444124901888

>  <r_i_glide_energy>  (1) 
-46.199030505444945

>  <r_i_glide_erotb>  (1) 
0.85436837262661747

>  <r_i_glide_esite>  (1) 
0

>  <r_i_glide_evdw>  (1) 
-43.99518815320998

>  <r_i_glide_gscore>  (1) 
-7.9328887857794728

>  <r_i_glide_gscore_strain>  (1) 
0

>  <r_i_glide_hbond>  (1) 
0

>  <r_i_glide_ligand_efficiency>  (1) 
-0.27301276652852341

>  <r_i_glide_ligand_efficiency_ln>  (1) 
-1.812877015329575

>  <r_i_glide_ligand_efficiency_sa>  (1) 
-0.83878171623262454

>  <r_i_glide_lipo>  (1) 
-3.2880502295669629

>  <r_i_glide_metal>  (1) 
-0

>  <r_i_glide_rewards>  (1) 
-2.9688711683433837

>  <r_lp_Energy>  (1) 
43.254267999999996

>  <s_epik_cmdline>  (1) 
J2VwaWtfcHl0aG9uJywgJy1waHQnLCAnMS4wJywgJy1waCcsICc3LjQnLCAnLXRuJywgJzgnLCAnLW1hJywgJzUwMCcsICctaW1hZScsICc8aW5maWxlLm1hZT4nLCAnLW9tYWUnLCAnPG91dGZpbGUubWFlPic=

>  <s_epik_input>  (1) 
Rk4oRiljKFtjSF0xKVtjSF1bY0hdYyhjMTIpW0NASF0oW0NIMl1TW0NIMl0yKVtDSDJdTihbQ0gyXVtDSDNdKVtDQEhdKFtDSDNdKVtDSDJdW0NIMl1bQ0gyXVtDQEBdKE8zKShbQ0gzXSlDMyhbT0hdKVtDSDJdW09IXQ==

>  <s_glide_docking_method>  (1) 
confgen

>  <s_i_glide_gridfile>  (1) 
gpcr_5ht2c_6bqh_protein_autoprepared_prepared

>  <s_lp_Force_Field>  (1) 
S-OPLS

>  <s_lp_Variant>  (1) 
DiffSBDD_37_num_sample_50-1

>  <s_m_source_file>  (1) 
generated__ligand_DiffSBDD_2026-05-06_prepared.sdf

>  <GenAI_Model>  (1) 
DiffSBDD

>  <Protein>  (1) 
GPCR_5HT2C

$$$$
DiffSBDD_29_num_sample_50
     RDKit          3D

  0  0  0  0  0  0  0  0  0  0999 V3000
M  V30 BEGIN CTAB
M  V30 COUNTS 79 81 0 0 1
M  V30 BEGIN ATOM
M  V30 1 C 41.833545 33.886772 66.759516 0
M  V30 2 C 39.358619 30.416214 59.902301 0
M  V30 3 C 42.482036 34.010531 65.374822 0
M  V30 4 C 39.521229 26.258561 57.766983 0
M  V30 5 C 36.309124 35.409739 62.145667 0
M  V30 6 C 39.502601 28.242907 56.184172 0
M  V30 7 C 39.461956 36.397413 61.979686 0 CFG=2
M  V30 8 N 37.160596 31.664373 59.483229 0 CHG=1
M  V30 9 C 37.338464 35.288678 61.075114 0 CFG=1
M  V30 10 N 38.469406 28.731348 56.751583 0
M  V30 11 C 38.742516 35.109800 61.698259 0
M  V30 12 C 37.767483 32.947720 59.872737 0 CFG=2
M  V30 13 O 35.997532 29.621450 58.355724 0
M  V30 14 O 40.831427 36.435394 61.545835 0
M  V30 15 C 35.467429 34.421543 62.253533 0
M  V30 16 C 41.630273 27.621518 57.377246 0
M  V30 17 C 36.319280 36.644383 63.051104 0
M  V30 18 C 41.096748 35.244536 63.670910 0
M  V30 19 C 36.721940 33.959587 60.387407 0 CFG=1
M  V30 20 C 38.832618 27.203540 58.740134 0
M  V30 21 C 42.326707 32.752718 67.662718 0
M  V30 22 F 42.058696 31.577762 67.093818 0
M  V30 23 O 40.411076 29.852268 61.984186 0
M  V30 24 O 40.667408 26.174130 55.735037 0
M  V30 25 C 36.142404 37.994647 62.328516 0
M  V30 26 C 38.081786 30.586006 59.023935 0 CFG=2
M  V30 27 F 43.643405 32.857272 67.845176 0
M  V30 28 C 35.603632 33.299195 61.312946 0
M  V30 29 C 39.173691 29.815999 61.307333 0
M  V30 30 C 37.275177 29.280920 58.850281 0 CFG=2
M  V30 31 C 42.005271 35.257244 64.655256 0
M  V30 32 F 41.721503 32.804067 68.850705 0
M  V30 33 C 37.892387 28.160649 57.966557 0 CFG=1
M  V30 34 O 40.950705 34.663323 67.128637 0
M  V30 35 C 40.599140 36.449884 62.953058 0 CFG=2
M  V30 36 C 40.322576 27.082461 56.753004 0 CFG=1
M  V30 37 C 38.564535 33.536144 58.702055 0
M  V30 38 H 39.867398 31.366550 60.023769 0
M  V30 39 H 40.078222 29.810869 59.353749 0
M  V30 40 H 42.214913 33.128221 64.792552 0
M  V30 41 H 43.566215 34.019454 65.455979 0
M  V30 42 H 38.762460 25.663586 57.256052 0
M  V30 43 H 40.165577 25.551491 58.290716 0
M  V30 44 H 39.872882 28.641013 55.236091 0
M  V30 45 H 38.921687 37.321151 61.797831 0
M  V30 46 H 36.497261 31.826991 58.730930 0
M  V30 47 H 37.305260 36.123217 60.373847 0
M  V30 48 H 38.667446 34.532407 62.617569 0
M  V30 49 H 39.429505 34.547443 61.078413 0
M  V30 50 H 38.412139 32.719869 60.716586 0
M  V30 51 H 36.060952 30.125326 57.546209 0
M  V30 52 H 34.695159 34.392017 62.996166 0
M  V30 53 H 41.439823 28.331825 58.180166 0
M  V30 54 H 42.236178 26.821873 57.801941 0
M  V30 55 H 42.250807 28.144740 56.653373 0
M  V30 56 H 35.529388 36.545382 63.797060 0
M  V30 57 H 37.251486 36.653969 63.615523 0
M  V30 58 H 40.683858 34.297722 63.362434 0
M  V30 59 H 36.171924 34.313930 59.512692 0
M  V30 60 H 39.580811 27.728538 59.323816 0
M  V30 61 H 38.267406 26.615464 59.453495 0
M  V30 62 H 40.307507 29.425478 62.824340 0
M  V30 63 H 41.358132 25.612380 56.071466 0
M  V30 64 H 36.261962 38.815512 63.035652 0
M  V30 65 H 36.865071 38.144825 61.528057 0
M  V30 66 H 35.149644 38.095904 61.895970 0
M  V30 67 H 38.407509 30.909010 58.035699 0
M  V30 68 H 34.672233 33.093340 60.784545 0
M  V30 69 H 35.944508 32.413836 61.849633 0
M  V30 70 H 38.857373 28.775771 61.259303 0
M  V30 71 H 38.434042 30.370168 61.885426 0
M  V30 72 H 37.082182 28.879942 59.838942 0
M  V30 73 H 42.433515 36.194784 64.976615 0
M  V30 74 H 37.067422 27.523326 57.647613 0
M  V30 75 H 40.668183 37.404232 63.453501 0
M  V30 76 H 39.065584 34.421397 59.053596 0
M  V30 77 H 39.347949 32.881125 58.326653 0
M  V30 78 H 37.922552 33.811738 57.864015 0
M  V30 79 H 36.630672 31.309700 60.263360 0
M  V30 END ATOM
M  V30 BEGIN BOND
M  V30 1 1 3 1
M  V30 2 1 9 5
M  V30 3 2 10 6
M  V30 4 1 11 7
M  V30 5 1 11 9
M  V30 6 1 12 8
M  V30 7 1 14 7
M  V30 8 2 15 5
M  V30 9 1 17 5
M  V30 10 1 19 9
M  V30 11 1 19 12
M  V30 12 1 20 4
M  V30 13 1 21 1
M  V30 14 1 22 21
M  V30 15 1 25 17
M  V30 16 1 26 2
M  V30 17 1 26 8
M  V30 18 1 27 21
M  V30 19 1 28 15
M  V30 20 1 28 19
M  V30 21 1 29 2
M  V30 22 1 29 23
M  V30 23 1 30 13
M  V30 24 1 30 26
M  V30 25 1 31 3
M  V30 26 2 31 18
M  V30 27 1 32 21
M  V30 28 1 33 10
M  V30 29 1 33 20
M  V30 30 1 33 30
M  V30 31 2 34 1
M  V30 32 1 35 7
M  V30 33 1 35 14
M  V30 34 1 35 18
M  V30 35 1 36 4
M  V30 36 1 36 6
M  V30 37 1 36 16
M  V30 38 1 36 24 CFG=3
M  V30 39 1 37 12
M  V30 40 1 38 2
M  V30 41 1 39 2
M  V30 42 1 40 3
M  V30 43 1 41 3
M  V30 44 1 42 4
M  V30 45 1 43 4
M  V30 46 1 44 6
M  V30 47 1 7 45 CFG=3
M  V30 48 1 46 8
M  V30 49 1 9 47 CFG=3
M  V30 50 1 48 11
M  V30 51 1 49 11
M  V30 52 1 12 50 CFG=1
M  V30 53 1 51 13
M  V30 54 1 52 15
M  V30 55 1 53 16
M  V30 56 1 54 16
M  V30 57 1 55 16
M  V30 58 1 56 17
M  V30 59 1 57 17
M  V30 60 1 58 18
M  V30 61 1 19 59 CFG=3
M  V30 62 1 60 20
M  V30 63 1 61 20
M  V30 64 1 62 23
M  V30 65 1 63 24
M  V30 66 1 64 25
M  V30 67 1 65 25
M  V30 68 1 66 25
M  V30 69 1 26 67 CFG=3
M  V30 70 1 68 28
M  V30 71 1 69 28
M  V30 72 1 70 29
M  V30 73 1 71 29
M  V30 74 1 30 72 CFG=1
M  V30 75 1 73 31
M  V30 76 1 33 74 CFG=3
M  V30 77 1 35 75 CFG=1
M  V30 78 1 76 37
M  V30 79 1 77 37
M  V30 80 1 78 37
M  V30 81 1 79 8
M  V30 END BOND
M  V30 END CTAB
M  END
>  <i_epik_Tot_Q>  (1) 
1

>  <i_epik_Tot_abs_Q>  (1) 
1

>  <i_i_glide_confnum>  (1) 
6570

>  <i_i_glide_lignum>  (1) 
73

>  <i_i_glide_posenum>  (1) 
248

>  <i_i_glide_rotatable_bonds>  (1) 
17

>  <i_lp_mmshare_version>  (1) 
72125

>  <i_m_source_file_index>  (1) 
30

>  <i_f3d_flags>  (1) 
0

>  <num_sample>  (1) 
50

>  <b_lp_Chiralities_Consistent>  (1) 
1

>  <r_epik_Charging_Adjusted_Penalty>  (1) 
0.073066720001252791

>  <r_epik_Ionization_Penalty>  (1) 
0.041882768558209021

>  <r_epik_Ionization_Penalty_Charging>  (1) 
0.011280877963412759

>  <r_epik_Ionization_Penalty_Neutral>  (1) 
0.030601890594796264

>  <r_epik_State_Penalty>  (1) 
0.061785842037840037

>  <r_glide_ring_energy>  (1) 
0

>  <r_i_docking_score>  (1) 
-7.9167929415614342

>  <r_i_glide_ecoul>  (1) 
-10.766523127654064

>  <r_i_glide_eff_state_penalty>  (1) 
0.061785842037840037

>  <r_i_glide_einternal>  (1) 
12.29883405605284

>  <r_i_glide_emodel>  (1) 
-56.263005914748184

>  <r_i_glide_emodel_strain>  (1) 
1.1704352407295886

>  <r_i_glide_energy>  (1) 
-40.139879727702422

>  <r_i_glide_erotb>  (1) 
0.87550365807384167

>  <r_i_glide_esite>  (1) 
-0.077068679227592557

>  <r_i_glide_evdw>  (1) 
-29.373356600048353

>  <r_i_glide_gscore>  (1) 
-7.9785787835992741

>  <r_i_glide_gscore_strain>  (1) 
0

>  <r_i_glide_hbond>  (1) 
-0.56209575667323852

>  <r_i_glide_ligand_efficiency>  (1) 
-0.21396737679895769

>  <r_i_glide_ligand_efficiency_ln>  (1) 
-1.7169667930655894

>  <r_i_glide_ligand_efficiency_sa>  (1) 
-0.71298676850885023

>  <r_i_glide_lipo>  (1) 
-3.1680388553326648

>  <r_i_glide_metal>  (1) 
-0

>  <r_i_glide_rewards>  (1) 
-1.9632328512890926

>  <r_lp_Energy>  (1) 
29.690287999999999

>  <s_epik_Chemistry_Notes>  (1) 
This compound has an imine and may undergo hydrolysis.

>  <s_epik_cmdline>  (1) 
J2VwaWtfcHl0aG9uJywgJy1waHQnLCAnMS4wJywgJy1waCcsICc3LjQnLCAnLXRuJywgJzgnLCAnLW1hJywgJzUwMCcsICctaW1hZScsICc8aW5maWxlLm1hZT4nLCAnLW9tYWUnLCAnPG91dGZpbGUubWFlPic=

>  <s_epik_input>  (1) 
RkMoRikoRilDKD1PKVtDSDJdXFtDSF09W0NIXVxbQ0BIXTFPW0NASF0xW0NIMl1bQ0BIXTJbQ0BIXShbQ0gyXVtDSF09QzJbQ0gyXVtDSDNdKVtDQEhdKFtDSDNdKVtOSF1bQ0BASF0oW0NIMl1bQ0gyXVtPSF0pW0NAQEhdKFtPSF0pW0NAQEhdKE49W0NIXTMpW0NIMl1bQ0gyXVtDQEBdMyhbQ0gzXSlbT0hd

>  <s_glide_docking_method>  (1) 
confgen

>  <s_i_glide_gridfile>  (1) 
gpcr_5ht2c_6bqh_protein_autoprepared_prepared

>  <s_lp_Force_Field>  (1) 
S-OPLS

>  <s_lp_Variant>  (1) 
DiffSBDD_29_num_sample_50-1

>  <s_m_source_file>  (1) 
generated__ligand_DiffSBDD_2026-05-06_prepared.sdf

>  <GenAI_Model>  (1) 
DiffSBDD

>  <Protein>  (1) 
GPCR_5HT2C

$$$$
DiffSBDD_47_num_sample_50
     RDKit          3D

  0  0  0  0  0  0  0  0  0  0999 V3000
M  V30 BEGIN CTAB
M  V30 COUNTS 47 49 0 0 1
M  V30 BEGIN ATOM
M  V30 1 C 37.937152 32.769214 60.431332 0
M  V30 2 C 38.149693 35.006152 61.625731 0
M  V30 3 C 36.643427 36.291495 59.640047 0
M  V30 4 C 39.241928 28.437047 52.418037 0
M  V30 5 C 39.937811 30.754151 52.637937 0
M  V30 6 N 38.871641 30.733292 61.433914 0
M  V30 7 C 37.852982 30.650831 59.243160 0
M  V30 8 C 38.506482 30.056845 60.329282 0
M  V30 9 C 39.399641 26.954949 54.464989 0
M  V30 10 C 39.704466 29.565887 51.857746 0
M  V30 11 O 39.679676 29.043763 57.552198 0
M  V30 12 N 38.481297 29.881140 55.820131 0
M  V30 13 C 39.439934 29.523054 54.775607 0 CFG=1
M  V30 14 C 38.898517 28.308821 53.903421 0
M  V30 15 C 36.900279 34.913185 59.537578 0
M  V30 16 O 35.919483 36.914441 58.676721 0
M  V30 17 C 37.879615 36.384095 61.721475 0
M  V30 18 C 38.649427 29.557474 57.113480 0
M  V30 19 C 37.561843 32.022040 59.288794 0
M  V30 20 C 37.463099 29.826457 58.038580 0
M  V30 21 C 39.810406 30.755174 53.972293 0
M  V30 22 C 37.658710 34.241741 60.533026 0
M  V30 23 C 37.126034 37.025040 60.731464 0
M  V30 24 C 38.591254 32.056404 61.475913 0
M  V30 25 C 37.363475 28.250527 53.948451 0
M  V30 26 H 38.732436 34.538337 62.395286 0
M  V30 27 H 39.076474 27.562967 51.804696 0
M  V30 28 H 40.235759 31.661646 52.137047 0
M  V30 29 H 38.737485 29.000824 60.314609 0
M  V30 30 H 39.130598 26.838751 55.516365 0
M  V30 31 H 38.930557 26.119259 53.942025 0
M  V30 32 H 40.478163 26.821842 54.398006 0
M  V30 33 H 39.903766 29.584936 50.795445 0
M  V30 34 H 37.612400 30.308140 55.530750 0
M  V30 35 H 40.393342 29.246636 55.223724 0
M  V30 36 H 36.507873 34.374505 58.693628 0
M  V30 37 H 35.876998 36.427394 57.853582 0
M  V30 38 H 38.257109 36.948681 62.561665 0
M  V30 39 H 37.063977 32.490632 58.456885 0
M  V30 40 H 37.053047 28.866726 58.366173 0
M  V30 41 H 36.677579 30.333678 57.489865 0
M  V30 42 H 40.002647 31.658589 54.531759 0
M  V30 43 H 36.918576 38.083946 60.806317 0
M  V30 44 H 38.892359 32.559066 62.375278 0
M  V30 45 H 37.067397 27.998669 54.959991 0
M  V30 46 H 36.924579 29.208162 53.673374 0
M  V30 47 H 36.939739 27.496991 53.287003 0
M  V30 END ATOM
M  V30 BEGIN BOND
M  V30 1 2 8 6
M  V30 2 1 8 7
M  V30 3 2 10 4
M  V30 4 1 10 5
M  V30 5 1 13 12
M  V30 6 1 14 4
M  V30 7 1 14 9
M  V30 8 1 14 13
M  V30 9 2 15 3
M  V30 10 1 16 3
M  V30 11 1 17 2
M  V30 12 2 18 11
M  V30 13 1 18 12
M  V30 14 1 19 1
M  V30 15 2 19 7
M  V30 16 1 20 7
M  V30 17 1 20 18
M  V30 18 2 21 5
M  V30 19 1 21 13
M  V30 20 1 22 1
M  V30 21 2 22 2
M  V30 22 1 22 15
M  V30 23 1 23 3
M  V30 24 2 23 17
M  V30 25 2 24 1
M  V30 26 1 24 6
M  V30 27 1 25 14
M  V30 28 1 26 2
M  V30 29 1 27 4
M  V30 30 1 28 5
M  V30 31 1 29 8
M  V30 32 1 30 9
M  V30 33 1 31 9
M  V30 34 1 32 9
M  V30 35 1 33 10
M  V30 36 1 34 12
M  V30 37 1 13 35 CFG=1
M  V30 38 1 36 15
M  V30 39 1 37 16
M  V30 40 1 38 17
M  V30 41 1 39 19
M  V30 42 1 40 20
M  V30 43 1 41 20
M  V30 44 1 42 21
M  V30 45 1 43 23
M  V30 46 1 44 24
M  V30 47 1 45 25
M  V30 48 1 46 25
M  V30 49 1 47 25
M  V30 END BOND
M  V30 END CTAB
M  END
>  <i_epik_Tot_Q>  (1) 
0

>  <i_epik_Tot_abs_Q>  (1) 
0

>  <i_i_glide_confnum>  (1) 
49

>  <i_i_glide_lignum>  (1) 
107

>  <i_i_glide_posenum>  (1) 
48

>  <i_i_glide_rotatable_bonds>  (1) 
6

>  <i_lp_mmshare_version>  (1) 
72125

>  <i_m_source_file_index>  (1) 
48

>  <i_f3d_flags>  (1) 
0

>  <num_sample>  (1) 
50

>  <b_lp_Chiralities_Consistent>  (1) 
1

>  <r_epik_Charging_Adjusted_Penalty>  (1) 
0.0032589894025149397

>  <r_epik_Ionization_Penalty>  (1) 
0.0038156857198904941

>  <r_epik_Ionization_Penalty_Charging>  (1) 
0

>  <r_epik_Ionization_Penalty_Neutral>  (1) 
0.0038156857198904941

>  <r_epik_State_Penalty>  (1) 
0.0032589894025149397

>  <r_glide_ring_energy>  (1) 
0.21997361475074056

>  <r_i_docking_score>  (1) 
-7.9141839205899851

>  <r_i_glide_ecoul>  (1) 
-11.231167512321107

>  <r_i_glide_eff_state_penalty>  (1) 
0.0032589894025149397

>  <r_i_glide_einternal>  (1) 
2.2948857659558684

>  <r_i_glide_emodel>  (1) 
-55.908240191242889

>  <r_i_glide_emodel_strain>  (1) 
0.15872331260119665

>  <r_i_glide_energy>  (1) 
-36.617644830930317

>  <r_i_glide_erotb>  (1) 
0.84319913175930694

>  <r_i_glide_esite>  (1) 
-0.015984333118524964

>  <r_i_glide_evdw>  (1) 
-25.386477318609209

>  <r_i_glide_gscore>  (1) 
-7.9174429099925003

>  <r_i_glide_gscore_strain>  (1) 
0

>  <r_i_glide_hbond>  (1) 
-0.36528796667221147

>  <r_i_glide_ligand_efficiency>  (1) 
-0.31656735682359938

>  <r_i_glide_ligand_efficiency_ln>  (1) 
-1.8758987581335667

>  <r_i_glide_ligand_efficiency_sa>  (1) 
-0.92564856669136653

>  <r_i_glide_lipo>  (1) 
-3.3975379512624646

>  <r_i_glide_metal>  (1) 
-0

>  <r_i_glide_rewards>  (1) 
-2.0278327979199795

>  <r_lp_Energy>  (1) 
34.006616000000001

>  <r_lp_tautomer_probability>  (1) 
0.99999999999736477

>  <s_epik_cmdline>  (1) 
J2VwaWtfcHl0aG9uJywgJy1waHQnLCAnMS4wJywgJy1waCcsICc3LjQnLCAnLXRuJywgJzgnLCAnLW1hJywgJzUwMCcsICctaW1hZScsICc8aW5maWxlLm1hZT4nLCAnLW9tYWUnLCAnPG91dGZpbGUubWFlPic=

>  <s_epik_input>  (1) 
W09IXWMxW2NIXWMoW2NIXVtjSF1bY0hdMSktYzJbY0hdYyhbY0hdbltjSF0yKVtDSDJdQyg9TylbTkhdW0NAQEhdM1tDSF09W0NIXVtDSF09W0NIXUMzKFtDSDNdKVtDSDNd

>  <s_glide_docking_method>  (1) 
confgen

>  <s_i_glide_gridfile>  (1) 
gpcr_5ht2c_6bqh_protein_autoprepared_prepared

>  <s_lp_Force_Field>  (1) 
S-OPLS

>  <s_lp_Variant>  (1) 
DiffSBDD_47_num_sample_50-1

>  <s_m_source_file>  (1) 
generated__ligand_DiffSBDD_2026-05-06_prepared.sdf

>  <GenAI_Model>  (1) 
DiffSBDD

>  <Protein>  (1) 
GPCR_5HT2C

$$$$
DiffSBDD_28_num_sample_50
     RDKit          3D

  0  0  0  0  0  0  0  0  0  0999 V3000
M  V30 BEGIN CTAB
M  V30 COUNTS 93 98 0 0 1
M  V30 BEGIN ATOM
M  V30 1 C 40.564080 29.587696 51.231449 0
M  V30 2 C 38.406712 28.400082 58.474891 0
M  V30 3 O 42.039494 30.040834 66.494984 0
M  V30 4 C 39.602367 34.442291 61.827830 0 CFG=1
M  V30 5 C 38.289783 29.114234 59.825230 0 CFG=2
M  V30 6 C 39.952997 36.873151 62.684127 0
M  V30 7 C 38.588031 27.881679 53.619100 0
M  V30 8 O 42.076148 34.127813 65.405218 0
M  V30 9 C 40.028316 29.541286 49.819970 0
M  V30 10 C 41.906564 29.364297 65.258149 0 CFG=1
M  V30 11 C 39.437162 27.125704 54.480119 0
M  V30 12 N 38.347741 31.725174 59.490621 0
M  V30 13 C 43.837402 29.485584 64.024834 0
M  V30 14 C 34.966891 32.956626 60.248819 0
M  V30 15 C 43.603920 27.996620 64.316152 0
M  V30 16 C 38.229106 29.763047 57.778712 0 CFG=1
M  V30 17 C 38.314846 29.056115 54.274078 0
M  V30 18 O 36.964945 31.676135 59.923977 0
M  V30 19 O 42.267273 35.570259 65.355413 0
M  V30 20 O 40.472324 28.576145 60.775767 0
M  V30 21 C 38.092209 27.470891 52.262219 0
M  V30 22 C 39.779038 35.938423 61.478326 0
M  V30 23 C 38.778699 33.705755 60.743463 0 CFG=2
M  V30 24 C 41.187903 32.207956 64.269331 0
M  V30 25 O 41.665697 34.340841 63.079885 0
M  V30 26 N 38.981953 29.050007 55.489155 0
M  V30 27 C 39.669089 27.859220 55.603826 0
M  V30 28 C 38.740607 30.378956 59.089443 0 CFG=2
M  V30 29 C 37.251447 33.853916 60.942236 0
M  V30 30 C 41.062526 28.129094 65.116619 0
M  V30 31 C 39.083139 28.614725 61.037503 0
M  V30 32 C 36.461773 33.011266 59.910574 0 CFG=2
M  V30 33 O 36.563323 33.628710 58.654104 0
M  V30 34 O 39.272409 32.496290 56.159066 0
M  V30 35 N 42.509534 30.088193 64.135048 0
M  V30 36 C 38.540748 31.520422 56.000650 0
M  V30 37 C 38.974978 30.126838 56.483314 0 CFG=1
M  V30 38 C 42.546785 28.004971 65.383157 0 CFG=2
M  V30 39 C 39.097886 32.203586 60.639295 0
M  V30 40 C 41.257034 33.748170 64.309791 0 CFG=2
M  V30 41 C 39.173375 29.066624 50.966855 0
M  V30 42 C 42.575991 31.548859 64.200955 0
M  V30 43 O 40.862509 33.780831 61.937127 0
M  V30 44 O 39.041871 27.681855 51.215379 0
M  V30 45 H 40.652677 30.559003 51.715750 0
M  V30 46 H 41.353143 28.874086 51.454203 0
M  V30 47 H 39.397180 27.965819 58.355256 0
M  V30 48 H 37.622495 27.676767 58.253312 0
M  V30 49 H 41.186066 30.109636 66.893194 0
M  V30 50 H 39.066461 34.345111 62.768187 0
M  V30 51 H 37.229979 29.221399 60.054305 0
M  V30 52 H 39.952949 37.913683 62.360872 0
M  V30 53 H 39.140585 36.754712 63.401113 0
M  V30 54 H 40.890780 36.702452 63.208566 0
M  V30 55 H 40.450546 28.821256 49.132135 0
M  V30 56 H 39.763275 30.496738 49.373594 0
M  V30 57 H 39.847536 26.144838 54.286200 0
M  V30 58 H 44.296884 29.662174 63.053500 0
M  V30 59 H 44.493815 29.901310 64.792549 0
M  V30 60 H 34.416324 32.357943 59.521690 0
M  V30 61 H 34.798381 32.520440 61.233146 0
M  V30 62 H 34.525241 33.954838 60.250262 0
M  V30 63 H 43.230670 27.475759 63.432937 0
M  V30 64 H 44.506971 27.493028 64.660531 0
M  V30 65 H 37.157503 29.955007 57.678934 0
M  V30 66 H 37.711919 29.902387 53.978776 0
M  V30 67 H 41.525267 35.882519 65.849117 0
M  V30 68 H 40.643072 27.905688 60.130898 0
M  V30 69 H 37.866557 26.421569 52.337778 0
M  V30 70 H 37.144770 27.972874 52.052605 0
M  V30 71 H 40.611818 36.056576 60.783690 0
M  V30 72 H 38.898105 36.286226 60.937975 0
M  V30 73 H 39.047272 34.145103 59.780409 0
M  V30 74 H 40.665496 31.876424 65.165632 0
M  V30 75 H 40.574921 31.867364 63.435879 0
M  V30 76 H 40.267090 27.645397 56.475320 0
M  V30 77 H 39.828507 30.386456 59.032370 0
M  V30 78 H 36.987445 33.508924 61.941048 0
M  V30 79 H 36.947652 34.899351 60.891812 0
M  V30 80 H 40.704670 27.876861 64.120225 0
M  V30 81 H 40.375367 27.892949 65.927545 0
M  V30 82 H 38.928606 29.268652 61.895720 0
M  V30 83 H 38.747854 27.621430 61.337543 0
M  V30 84 H 36.186227 33.031446 58.008906 0
M  V30 85 H 37.561795 31.571652 55.519349 0
M  V30 86 H 40.024523 30.254040 56.743252 0
M  V30 87 H 42.865540 27.688918 66.376953 0
M  V30 88 H 40.161523 32.050000 60.461637 0
M  V30 89 H 38.826888 31.659089 61.545102 0
M  V30 90 H 40.267433 34.130625 64.533784 0
M  V30 91 H 38.274289 29.621372 51.172343 0
M  V30 92 H 43.067271 31.906412 63.297673 0
M  V30 93 H 43.192469 31.857991 65.046739 0
M  V30 END ATOM
M  V30 BEGIN BOND
M  V30 1 1 5 2
M  V30 2 1 9 1
M  V30 3 1 10 3 CFG=1
M  V30 4 1 11 7
M  V30 5 1 15 13
M  V30 6 1 16 2
M  V30 7 2 17 7
M  V30 8 1 18 12
M  V30 9 1 19 8
M  V30 10 1 21 7
M  V30 11 1 22 4
M  V30 12 1 22 6
M  V30 13 1 23 4
M  V30 14 1 26 17
M  V30 15 2 27 11
M  V30 16 1 27 26
M  V30 17 1 28 5
M  V30 18 1 28 12
M  V30 19 1 28 16
M  V30 20 1 29 23
M  V30 21 1 30 10
M  V30 22 1 31 5
M  V30 23 1 31 20
M  V30 24 1 32 14
M  V30 25 1 32 18
M  V30 26 1 32 29
M  V30 27 1 32 33 CFG=3
M  V30 28 1 35 10
M  V30 29 1 35 13
M  V30 30 2 36 34
M  V30 31 1 37 16
M  V30 32 1 37 26
M  V30 33 1 37 36
M  V30 34 1 38 10
M  V30 35 1 38 15
M  V30 36 1 38 30
M  V30 37 1 39 12
M  V30 38 1 39 23
M  V30 39 1 40 8
M  V30 40 1 40 24
M  V30 41 1 40 25
M  V30 42 1 41 1
M  V30 43 1 41 9
M  V30 44 1 42 24
M  V30 45 1 42 35
M  V30 46 1 43 4
M  V30 47 1 43 25
M  V30 48 1 44 21
M  V30 49 1 44 41
M  V30 50 1 45 1
M  V30 51 1 46 1
M  V30 52 1 47 2
M  V30 53 1 48 2
M  V30 54 1 49 3
M  V30 55 1 4 50 CFG=1
M  V30 56 1 5 51 CFG=1
M  V30 57 1 52 6
M  V30 58 1 53 6
M  V30 59 1 54 6
M  V30 60 1 55 9
M  V30 61 1 56 9
M  V30 62 1 57 11
M  V30 63 1 58 13
M  V30 64 1 59 13
M  V30 65 1 60 14
M  V30 66 1 61 14
M  V30 67 1 62 14
M  V30 68 1 63 15
M  V30 69 1 64 15
M  V30 70 1 16 65 CFG=3
M  V30 71 1 66 17
M  V30 72 1 67 19
M  V30 73 1 68 20
M  V30 74 1 69 21
M  V30 75 1 70 21
M  V30 76 1 71 22
M  V30 77 1 72 22
M  V30 78 1 23 73 CFG=3
M  V30 79 1 74 24
M  V30 80 1 75 24
M  V30 81 1 76 27
M  V30 82 1 28 77 CFG=3
M  V30 83 1 78 29
M  V30 84 1 79 29
M  V30 85 1 80 30
M  V30 86 1 81 30
M  V30 87 1 82 31
M  V30 88 1 83 31
M  V30 89 1 84 33
M  V30 90 1 85 36
M  V30 91 1 37 86 CFG=1
M  V30 92 1 38 87 CFG=1
M  V30 93 1 88 39
M  V30 94 1 89 39
M  V30 95 1 40 90 CFG=1
M  V30 96 1 91 41
M  V30 97 1 92 42
M  V30 98 1 93 42
M  V30 END BOND
M  V30 END CTAB
M  END
>  <i_epik_Tot_Q>  (1) 
0

>  <i_epik_Tot_abs_Q>  (1) 
0

>  <i_i_glide_confnum>  (1) 
1621

>  <i_i_glide_lignum>  (1) 
71

>  <i_i_glide_posenum>  (1) 
148

>  <i_i_glide_rotatable_bonds>  (1) 
21

>  <i_lp_mmshare_version>  (1) 
72125

>  <i_m_source_file_index>  (1) 
29

>  <i_f3d_flags>  (1) 
2

>  <num_sample>  (1) 
50

>  <b_lp_Chiralities_Consistent>  (1) 
0

>  <r_epik_Charging_Adjusted_Penalty>  (1) 
0.25482057645041689

>  <r_epik_Ionization_Penalty>  (1) 
0.26872052639311422

>  <r_epik_Ionization_Penalty_Charging>  (1) 
0

>  <r_epik_Ionization_Penalty_Neutral>  (1) 
0.26872052639311422

>  <r_epik_State_Penalty>  (1) 
0.25482057645041689

>  <r_glide_ring_energy>  (1) 
0

>  <r_i_docking_score>  (1) 
-7.9133848441698635

>  <r_i_glide_ecoul>  (1) 
-4.5382555793365293

>  <r_i_glide_eff_state_penalty>  (1) 
0.25482057645041689

>  <r_i_glide_einternal>  (1) 
23.994763981819048

>  <r_i_glide_emodel>  (1) 
-72.642550048938261

>  <r_i_glide_emodel_strain>  (1) 
3.1620739318632047

>  <r_i_glide_energy>  (1) 
-59.960942094286821

>  <r_i_glide_erotb>  (1) 
0.67974203347384798

>  <r_i_glide_esite>  (1) 
-0.21426423708153433

>  <r_i_glide_evdw>  (1) 
-55.422686514950293

>  <r_i_glide_gscore>  (1) 
-8.1682054206202803

>  <r_i_glide_gscore_strain>  (1) 
0

>  <r_i_glide_hbond>  (1) 
-0.16

>  <r_i_glide_ligand_efficiency>  (1) 
-0.17984965554931509

>  <r_i_glide_ligand_efficiency_ln>  (1) 
-1.6540700619529549

>  <r_i_glide_ligand_efficiency_sa>  (1) 
-0.63493193207749044

>  <r_i_glide_lipo>  (1) 
-4.0344110993475066

>  <r_i_glide_metal>  (1) 
-0

>  <r_i_glide_rewards>  (1) 
-0.98739945501709314

>  <r_lp_Energy>  (1) 
27.722360999999999

>  <s_epik_Chemistry_Notes>  (1) 
This compound contains an acetal/aminal-like group ( X-CH(R)-Y where X, Y are N, S, or O) that may be acid/base labile, releasing an aldehyde. This compound has a N-S or N-O group and may undergo hydrolysis at high or low pH.

>  <s_epik_cmdline>  (1) 
J2VwaWtfcHl0aG9uJywgJy1waHQnLCAnMS4wJywgJy1waCcsICc3LjQnLCAnLXRuJywgJzgnLCAnLW1hJywgJzUwMCcsICctaW1hZScsICc8aW5maWxlLm1hZT4nLCAnLW9tYWUnLCAnPG91dGZpbGUubWFlPic=

>  <s_epik_input>  (1) 
W0NIMl0xW0NIMl1bQ0hdMU9bQ0gyXWMyW2NIXVtjSF1uKFtjSF0yKVtDQEBIXShbQ0hdPU8pW0NAQEhdKFtDSDJdW0NASF0zW0NIMl1bT0hdKVtDQEhdM04oT1tDQF00KFtDSDNdKVtPSF0pW0NIMl1bQ0BASF0oW0NIMl00KVtDQEhdKFtDSDJdW0NIM10pT09bQ0BIXShPW09IXSlbQ0gyXVtDSDJdTjVbQ0gyXVtDSDJdW0NASF0oW0NIMl02KVtDQEBdNTZbT0hd

>  <s_glide_docking_method>  (1) 
confgen

>  <s_i_glide_gridfile>  (1) 
gpcr_5ht2c_6bqh_protein_autoprepared_prepared

>  <s_lp_Force_Field>  (1) 
S-OPLS

>  <s_lp_Variant>  (1) 
DiffSBDD_28_num_sample_50-1

>  <s_m_source_file>  (1) 
generated__ligand_DiffSBDD_2026-05-06_prepared.sdf

>  <GenAI_Model>  (1) 
DiffSBDD

>  <Protein>  (1) 
GPCR_5HT2C

$$$$
DiffSBDD_37_num_sample_50
     RDKit          3D

  0  0  0  0  0  0  0  0  0  0999 V3000
M  V30 BEGIN CTAB
M  V30 COUNTS 62 64 0 0 1
M  V30 BEGIN ATOM
M  V30 1 C 38.880579 27.611059 54.232212 0
M  V30 2 F 39.693747 28.603974 50.253547 0
M  V30 3 C 37.718143 33.075023 60.298968 0
M  V30 4 C 38.223074 26.843172 57.008356 0
M  V30 5 C 38.604628 26.159495 54.571636 0
M  V30 6 N 39.583954 29.617825 51.178343 0
M  V30 7 C 37.032540 36.722731 60.712093 0 CFG=1
M  V30 8 C 37.958332 29.256178 57.570183 0
M  V30 9 C 37.015738 38.033962 61.472515 0
M  V30 10 C 39.266142 29.945680 54.878249 0
M  V30 11 C 38.973366 28.609771 55.248331 0
M  V30 12 C 38.802689 28.248838 56.743693 0 CFG=2
M  V30 13 S 39.207228 25.621421 56.175848 0
M  V30 14 O 38.100421 38.834533 61.053480 0
M  V30 15 C 39.368212 29.290006 52.523450 0
M  V30 16 C 39.111027 35.580539 61.926788 0
M  V30 17 C 39.463506 30.281927 53.523107 0
M  V30 18 C 37.986527 35.547279 60.904435 0 CFG=1
M  V30 19 C 36.191203 30.280373 59.635861 0
M  V30 20 C 40.139558 28.982804 60.759661 0
M  V30 21 C 37.700327 30.592286 59.672236 0 CFG=2
M  V30 22 C 39.075286 28.512900 59.751446 0
M  V30 23 C 39.067412 27.964241 52.880414 0
M  V30 24 F 40.100305 30.853550 50.867601 0
M  V30 25 C 38.011317 32.026174 59.219324 0
M  V30 26 O 36.667406 35.569483 61.467770 0
M  V30 27 N 38.539740 29.622886 58.903355 0 CFG=1 CHG=1
M  V30 28 O 36.435582 36.821420 59.438363 0
M  V30 29 C 38.190947 34.461931 59.853485 0
M  V30 30 H 38.218869 32.801042 61.227804 0
M  V30 31 H 36.649138 33.097844 60.513418 0
M  V30 32 H 38.191188 26.584282 58.064559 0
M  V30 33 H 37.194215 26.766703 56.656674 0
M  V30 34 H 37.553684 25.908622 54.425667 0
M  V30 35 H 39.199044 25.621424 53.853492 0
M  V30 36 H 36.958683 28.839642 57.687905 0
M  V30 37 H 37.793696 30.185253 57.027209 0
M  V30 38 H 37.098831 37.842626 62.542442 0
M  V30 39 H 36.070103 38.552315 61.306860 0
M  V30 40 H 39.353808 30.711886 55.634777 0
M  V30 41 H 39.833657 28.273907 57.096027 0
M  V30 42 H 37.984545 39.001155 60.129451 0
M  V30 43 H 40.059403 35.804767 61.436808 0
M  V30 44 H 38.931195 36.345651 62.681374 0
M  V30 45 H 39.196924 34.621595 62.437979 0
M  V30 46 H 39.694664 31.301873 53.252018 0
M  V30 47 H 35.647298 30.879274 60.366239 0
M  V30 48 H 35.750348 30.489035 58.661336 0
M  V30 49 H 35.996816 29.232085 59.853480 0
M  V30 50 H 40.580313 28.123407 61.267049 0
M  V30 51 H 40.950564 29.510005 60.256685 0
M  V30 52 H 39.743048 29.633119 61.538450 0
M  V30 53 H 37.986528 30.532605 60.719735 0
M  V30 54 H 38.267399 27.988122 60.253582 0
M  V30 55 H 39.595886 27.766460 59.160115 0
M  V30 56 H 38.998292 27.204355 52.114112 0
M  V30 57 H 37.466068 32.263837 58.303211 0
M  V30 58 H 39.067378 32.100888 58.965750 0
M  V30 59 H 36.580024 36.018442 58.959452 0
M  V30 60 H 37.668342 34.717605 58.933353 0
M  V30 61 H 39.250937 34.421395 59.599905 0
M  V30 62 H 39.370013 30.144278 58.663682 0
M  V30 END ATOM
M  V30 BEGIN BOND
M  V30 1 1 5 1
M  V30 2 1 6 2
M  V30 3 1 9 7
M  V30 4 2 11 1
M  V30 5 1 11 10
M  V30 6 1 12 4
M  V30 7 1 12 8
M  V30 8 1 12 11
M  V30 9 1 13 4
M  V30 10 1 13 5
M  V30 11 1 14 9
M  V30 12 1 15 6
M  V30 13 2 17 10
M  V30 14 1 17 15
M  V30 15 1 18 7
M  V30 16 1 18 16 CFG=1
M  V30 17 1 21 19
M  V30 18 1 22 20
M  V30 19 1 23 1
M  V30 20 2 23 15
M  V30 21 1 24 6
M  V30 22 1 25 3
M  V30 23 1 25 21
M  V30 24 1 26 7
M  V30 25 1 26 18
M  V30 26 1 27 8
M  V30 27 1 27 21
M  V30 28 1 27 22
M  V30 29 1 7 28 CFG=3
M  V30 30 1 29 3
M  V30 31 1 29 18
M  V30 32 1 30 3
M  V30 33 1 31 3
M  V30 34 1 32 4
M  V30 35 1 33 4
M  V30 36 1 34 5
M  V30 37 1 35 5
M  V30 38 1 36 8
M  V30 39 1 37 8
M  V30 40 1 38 9
M  V30 41 1 39 9
M  V30 42 1 40 10
M  V30 43 1 12 41 CFG=1
M  V30 44 1 42 14
M  V30 45 1 43 16
M  V30 46 1 44 16
M  V30 47 1 45 16
M  V30 48 1 46 17
M  V30 49 1 47 19
M  V30 50 1 48 19
M  V30 51 1 49 19
M  V30 52 1 50 20
M  V30 53 1 51 20
M  V30 54 1 52 20
M  V30 55 1 21 53 CFG=1
M  V30 56 1 54 22
M  V30 57 1 55 22
M  V30 58 1 56 23
M  V30 59 1 57 25
M  V30 60 1 58 25
M  V30 61 1 59 28
M  V30 62 1 60 29
M  V30 63 1 61 29
M  V30 64 1 27 62 CFG=3
M  V30 END BOND
M  V30 END CTAB
M  END
>  <i_epik_Tot_Q>  (1) 
1

>  <i_epik_Tot_abs_Q>  (1) 
1

>  <i_i_glide_confnum>  (1) 
523

>  <i_i_glide_lignum>  (1) 
92

>  <i_i_glide_posenum>  (1) 
357

>  <i_i_glide_rotatable_bonds>  (1) 
12

>  <i_lp_mmshare_version>  (1) 
72125

>  <i_m_source_file_index>  (1) 
38

>  <i_f3d_flags>  (1) 
0

>  <num_sample>  (1) 
50

>  <b_lp_Chiralities_Consistent>  (1) 
1

>  <r_epik_Charging_Adjusted_Penalty>  (1) 
0.031037112904587178

>  <r_epik_Ionization_Penalty>  (1) 
0.015538636701717824

>  <r_epik_Ionization_Penalty_Charging>  (1) 
0.015518556452293627

>  <r_epik_Ionization_Penalty_Neutral>  (1) 
2.0080249424197063e-05

>  <r_epik_State_Penalty>  (1) 
0.015518556452293551

>  <r_glide_ring_energy>  (1) 
0

>  <r_i_docking_score>  (1) 
-7.8964753421142202

>  <r_i_glide_ecoul>  (1) 
-2.556452543365467

>  <r_i_glide_eff_state_penalty>  (1) 
0.015518556452293551

>  <r_i_glide_einternal>  (1) 
15.018995426747072

>  <r_i_glide_emodel>  (1) 
-63.277453646307052

>  <r_i_glide_emodel_strain>  (1) 
0.90650863260466963

>  <r_i_glide_energy>  (1) 
-44.594183267800702

>  <r_i_glide_erotb>  (1) 
0.85436837262661747

>  <r_i_glide_esite>  (1) 
0

>  <r_i_glide_evdw>  (1) 
-42.037730724435235

>  <r_i_glide_gscore>  (1) 
-7.9119938985665135

>  <r_i_glide_gscore_strain>  (1) 
0

>  <r_i_glide_hbond>  (1) 
0

>  <r_i_glide_ligand_efficiency>  (1) 
-0.27229225317635242

>  <r_i_glide_ligand_efficiency_ln>  (1) 
-1.8080926160064306

>  <r_i_glide_ligand_efficiency_sa>  (1) 
-0.83656807093761831

>  <r_i_glide_lipo>  (1) 
-3.4514284810329063

>  <r_i_glide_metal>  (1) 
-0

>  <r_i_glide_rewards>  (1) 
-2.829579372433642

>  <r_lp_Energy>  (1) 
38.592610000000001

>  <s_epik_cmdline>  (1) 
J2VwaWtfcHl0aG9uJywgJy1waHQnLCAnMS4wJywgJy1waCcsICc3LjQnLCAnLXRuJywgJzgnLCAnLW1hJywgJzUwMCcsICctaW1hZScsICc8aW5maWxlLm1hZT4nLCAnLW9tYWUnLCAnPG91dGZpbGUubWFlPic=

>  <s_epik_input>  (1) 
Rk4oRiljKFtjSF0xKVtjSF1bY0hdYyhjMTIpW0NASF0oW0NIMl1TW0NIMl0yKVtDSDJdTihbQ0gyXVtDSDNdKVtDQEhdKFtDSDNdKVtDSDJdW0NIMl1bQ0gyXVtDQEBdKE8zKShbQ0gzXSlDMyhbT0hdKVtDSDJdW09IXQ==

>  <s_glide_docking_method>  (1) 
confgen

>  <s_i_glide_gridfile>  (1) 
gpcr_5ht2c_6bqh_protein_autoprepared_prepared

>  <s_lp_Force_Field>  (1) 
S-OPLS

>  <s_lp_Variant>  (1) 
DiffSBDD_37_num_sample_50-2

>  <s_m_source_file>  (1) 
generated__ligand_DiffSBDD_2026-05-06_prepared.sdf

>  <GenAI_Model>  (1) 
DiffSBDD

>  <Protein>  (1) 
GPCR_5HT2C

$$$$
DiffSBDD_6_num_sample_50
     RDKit          3D

  0  0  0  0  0  0  0  0  0  0999 V3000
M  V30 BEGIN CTAB
M  V30 COUNTS 65 68 0 0 1
M  V30 BEGIN ATOM
M  V30 1 N 39.964858 33.530361 62.243210 0
M  V30 2 N 38.219291 33.777966 60.195004 0
M  V30 3 C 37.666637 34.021378 59.064072 0
M  V30 4 C 42.172910 33.565393 65.347567 0
M  V30 5 C 39.558206 26.380579 55.441555 0
M  V30 6 N 38.667465 30.921622 58.139339 0
M  V30 7 N 37.466033 33.012297 58.203347 0
M  V30 8 N 39.900852 28.984922 58.433447 0
M  V30 9 C 40.472531 31.227765 62.854805 0
M  V30 10 C 37.243313 24.800878 55.693389 0
M  V30 11 N 39.094466 31.692056 60.818036 0 CHG=1
M  V30 12 O 40.267295 25.611224 57.649235 0
M  V30 13 C 38.840228 30.964671 55.852037 0
M  V30 14 C 39.640636 29.722362 52.206522 0
M  V30 15 F 36.129684 24.039076 55.804901 0
M  V30 16 C 37.690761 31.756335 58.793533 0 CFG=2
M  V30 17 C 39.347330 25.613967 56.620788 0
M  V30 18 C 40.814410 35.440208 63.494528 0
M  V30 19 C 39.617908 30.618335 53.453525 0
M  V30 20 F 40.667569 27.128409 55.298389 0
M  V30 21 C 38.609849 26.353142 54.407974 0
M  V30 22 C 39.259928 30.233497 60.479581 0
M  V30 23 C 40.705977 33.938015 63.297487 0
M  V30 24 C 37.458507 25.564836 54.532001 0
M  V30 25 C 41.226285 31.667889 63.955238 0
M  V30 26 C 38.700131 30.115445 54.582353 0
M  V30 27 C 38.854041 29.785053 59.032187 0 CFG=1
M  V30 28 C 41.353103 33.047110 64.178931 0
M  V30 29 O 38.087810 30.404263 56.924088 0
M  V30 30 F 37.977076 24.085729 57.852530 0
M  V30 31 C 39.902111 27.622202 58.924674 0
M  V30 32 C 38.185738 24.824548 56.736403 0
M  V30 33 C 38.358336 32.419970 60.000189 0
M  V30 34 C 40.890148 26.819739 58.071136 0
M  V30 35 C 39.857895 32.194938 62.011163 0
M  V30 36 H 37.338428 35.012069 58.742692 0
M  V30 37 H 36.894657 33.049043 57.361249 0
M  V30 38 H 42.660987 32.745027 65.875292 0
M  V30 39 H 41.535557 34.094736 66.056275 0
M  V30 40 H 42.949952 34.248186 65.003096 0
M  V30 41 H 39.720889 28.964746 57.437339 0
M  V30 42 H 40.372417 30.172360 62.665758 0
M  V30 43 H 38.511511 31.988494 55.666653 0
M  V30 44 H 39.900141 31.013353 56.106869 0
M  V30 45 H 40.294687 30.144428 51.442847 0
M  V30 46 H 38.654270 29.615654 51.765560 0
M  V30 47 H 39.994746 28.717184 52.420167 0
M  V30 48 H 41.848537 35.767443 63.387359 0
M  V30 49 H 40.465458 35.726283 64.486515 0
M  V30 50 H 40.216756 35.981439 62.760910 0
M  V30 51 H 40.637894 30.717473 53.829394 0
M  V30 52 H 39.306336 31.621510 53.164806 0
M  V30 53 H 38.771109 26.933565 53.511500 0
M  V30 54 H 38.720683 29.659366 61.234232 0
M  V30 55 H 40.324938 30.025778 60.590036 0
M  V30 56 H 36.735414 25.540424 53.729019 0
M  V30 57 H 41.706111 30.956394 64.612287 0
M  V30 58 H 37.660662 30.101699 54.253118 0
M  V30 59 H 38.964490 29.088207 54.821317 0
M  V30 60 H 37.919721 29.220903 59.064619 0
M  V30 61 H 40.180592 27.588001 59.978229 0
M  V30 62 H 38.899372 27.201579 58.840422 0
M  V30 63 H 41.768207 26.558376 58.653458 0
M  V30 64 H 41.344764 27.417106 57.290610 0
M  V30 65 H 36.757214 31.254573 59.057201 0
M  V30 END ATOM
M  V30 BEGIN BOND
M  V30 1 2 3 2
M  V30 2 1 7 3
M  V30 3 1 15 10
M  V30 4 1 16 6
M  V30 5 1 16 7
M  V30 6 2 17 5
M  V30 7 1 17 12
M  V30 8 1 19 14
M  V30 9 1 20 5
M  V30 10 1 21 5
M  V30 11 1 22 11
M  V30 12 1 23 1
M  V30 13 1 23 18
M  V30 14 1 24 10
M  V30 15 2 24 21
M  V30 16 2 25 9
M  V30 17 1 26 13
M  V30 18 1 26 19
M  V30 19 1 27 6
M  V30 20 1 27 8
M  V30 21 1 27 22
M  V30 22 1 28 4
M  V30 23 2 28 23
M  V30 24 1 28 25
M  V30 25 1 29 6
M  V30 26 1 29 13
M  V30 27 1 31 8
M  V30 28 2 32 10
M  V30 29 1 32 17
M  V30 30 1 32 30
M  V30 31 1 33 2
M  V30 32 2 33 11
M  V30 33 1 33 16
M  V30 34 1 34 12
M  V30 35 1 34 31
M  V30 36 2 35 1
M  V30 37 1 35 9
M  V30 38 1 35 11
M  V30 39 1 36 3
M  V30 40 1 37 7
M  V30 41 1 38 4
M  V30 42 1 39 4
M  V30 43 1 40 4
M  V30 44 1 41 8
M  V30 45 1 42 9
M  V30 46 1 43 13
M  V30 47 1 44 13
M  V30 48 1 45 14
M  V30 49 1 46 14
M  V30 50 1 47 14
M  V30 51 1 48 18
M  V30 52 1 49 18
M  V30 53 1 50 18
M  V30 54 1 51 19
M  V30 55 1 52 19
M  V30 56 1 53 21
M  V30 57 1 54 22
M  V30 58 1 55 22
M  V30 59 1 56 24
M  V30 60 1 57 25
M  V30 61 1 58 26
M  V30 62 1 59 26
M  V30 63 1 27 60 CFG=1
M  V30 64 1 61 31
M  V30 65 1 62 31
M  V30 66 1 63 34
M  V30 67 1 64 34
M  V30 68 1 16 65 CFG=1
M  V30 END BOND
M  V30 END CTAB
M  END
>  <i_epik_Tot_Q>  (1) 
1

>  <i_epik_Tot_abs_Q>  (1) 
1

>  <i_i_glide_confnum>  (1) 
1

>  <i_i_glide_lignum>  (1) 
22

>  <i_i_glide_posenum>  (1) 
297

>  <i_i_glide_rotatable_bonds>  (1) 
10

>  <i_lp_mmshare_version>  (1) 
72125

>  <i_m_source_file_index>  (1) 
7

>  <i_f3d_flags>  (1) 
0

>  <num_sample>  (1) 
50

>  <b_lp_Chiralities_Consistent>  (1) 
1

>  <r_epik_Charging_Adjusted_Penalty>  (1) 
0.81638474559902796

>  <r_epik_Ionization_Penalty>  (1) 
6.3086919552564762

>  <r_epik_Ionization_Penalty_Charging>  (1) 
0

>  <r_epik_Ionization_Penalty_Neutral>  (1) 
6.3086919552564762

>  <r_epik_State_Penalty>  (1) 
0.81638474559902796

>  <r_glide_ring_energy>  (1) 
0

>  <r_i_docking_score>  (1) 
-7.828021654171633

>  <r_i_glide_ecoul>  (1) 
-5.442536376889838

>  <r_i_glide_eff_state_penalty>  (1) 
0.81638474559902796

>  <r_i_glide_einternal>  (1) 
7.4728303857850449

>  <r_i_glide_emodel>  (1) 
-76.722106559966264

>  <r_i_glide_emodel_strain>  (1) 
2.4707524440152326

>  <r_i_glide_energy>  (1) 
-51.340251917346684

>  <r_i_glide_erotb>  (1) 
0.67408029721787976

>  <r_i_glide_esite>  (1) 
-0.32736134984638315

>  <r_i_glide_evdw>  (1) 
-45.897715540456844

>  <r_i_glide_gscore>  (1) 
-8.6444063997706611

>  <r_i_glide_gscore_strain>  (1) 
0

>  <r_i_glide_hbond>  (1) 
-0.094466010966172131

>  <r_i_glide_ligand_efficiency>  (1) 
-0.22365776154776093

>  <r_i_glide_ligand_efficiency_ln>  (1) 
-1.7184244866707703

>  <r_i_glide_ligand_efficiency_sa>  (1) 
-0.7315993688110739

>  <r_i_glide_lipo>  (1) 
-4.2144862469019762

>  <r_i_glide_metal>  (1) 
-0

>  <r_i_glide_rewards>  (1) 
-1.5709068557176922

>  <r_lp_Energy>  (1) 
45.017523999999995

>  <r_lp_tautomer_probability>  (1) 
0.23620936778007409

>  <s_epik_Chemistry_Notes>  (1) 
This compound has an imine and may undergo hydrolysis. This compound contains an acetal/aminal-like group ( X-CH(R)-Y where X, Y are N, S, or O) that may be acid/base labile, releasing an aldehyde. This compound has a N-S or N-O group and may undergo hydrolysis at high or low pH.

>  <s_epik_cmdline>  (1) 
J2VwaWtfcHl0aG9uJywgJy1waHQnLCAnMS4wJywgJy1waCcsICc3LjQnLCAnLXRuJywgJzgnLCAnLW1hJywgJzUwMCcsICctaW1hZScsICc8aW5maWxlLm1hZT4nLCAnLW9tYWUnLCAnPG91dGZpbGUubWFlPic=

>  <s_epik_input>  (1) 
W0NIM11jMVtjSF1bY0hdYyhuYzFbQ0gzXSlOKEMoQzIzKT1OW0NIMl1OPTMpW0NIMl1bQ0BASF0oTjJPW0NIMl1bQ0gyXVtDSDJdW0NIM10pW05IXVtDSDJdW0NIMl1PYyhjNEYpYyhGKWMoRilbY0hdW2NIXTQ=

>  <s_glide_docking_method>  (1) 
confgen

>  <s_i_glide_gridfile>  (1) 
gpcr_5ht2c_6bqh_protein_autoprepared_prepared

>  <s_lp_Force_Field>  (1) 
S-OPLS

>  <s_lp_Variant>  (1) 
DiffSBDD_6_num_sample_50-3

>  <s_m_source_file>  (1) 
generated__ligand_DiffSBDD_2026-05-06_prepared.sdf

>  <GenAI_Model>  (1) 
DiffSBDD

>  <Protein>  (1) 
GPCR_5HT2C

$$$$
DiffSBDD_37_num_sample_50
     RDKit          3D

  0  0  0  0  0  0  0  0  0  0999 V3000
M  V30 BEGIN CTAB
M  V30 COUNTS 62 64 0 0 1
M  V30 BEGIN ATOM
M  V30 1 C 38.461520 27.242597 54.409673 0
M  V30 2 F 39.872048 29.793130 50.556875 0
M  V30 3 C 37.556651 33.328789 59.441121 0
M  V30 4 C 38.150288 26.907755 57.366376 0
M  V30 5 C 37.908969 25.937166 54.977050 0
M  V30 6 N 39.186288 28.712682 51.067149 0
M  V30 7 C 38.977375 35.721684 62.078883 0 CFG=1
M  V30 8 C 38.228908 29.440640 57.455067 0
M  V30 9 C 38.749230 36.826832 63.085630 0
M  V30 10 C 39.383358 29.502158 54.688382 0
M  V30 11 C 38.882949 28.305953 55.265216 0
M  V30 12 C 38.828190 28.169465 56.804781 0 CFG=2
M  V30 13 S 38.719888 25.444959 56.506339 0
M  V30 14 O 39.867404 37.679814 63.053355 0
M  V30 15 C 39.067426 28.585485 52.453613 0
M  V30 16 C 36.429852 35.020751 61.772434 0
M  V30 17 C 39.467345 29.639376 53.293722 0
M  V30 18 C 37.904860 34.845008 61.453793 0 CFG=1
M  V30 19 C 35.983037 30.526070 59.399173 0
M  V30 20 C 39.655417 29.216322 61.079210 0
M  V30 21 C 37.508593 30.720016 59.446319 0 CFG=2
M  V30 22 C 39.578164 29.274561 59.542412 0
M  V30 23 C 38.558864 27.394556 53.011424 0
M  V30 24 F 39.067414 27.585439 50.294370 0
M  V30 25 C 37.969025 32.027316 58.743602 0
M  V30 26 O 38.494304 35.952119 60.754499 0
M  V30 27 N 38.219430 29.495339 58.950188 0 CFG=2 CHG=1
M  V30 28 O 40.237634 35.093974 62.190976 0
M  V30 29 C 38.193914 33.492549 60.828807 0
M  V30 30 H 36.472122 33.401977 59.501673 0
M  V30 31 H 37.867290 34.162923 58.810103 0
M  V30 32 H 38.364737 26.783467 58.427665 0
M  V30 33 H 37.067395 26.971589 57.273951 0
M  V30 34 H 36.837284 26.040015 55.147269 0
M  V30 35 H 38.034282 25.132093 54.254584 0
M  V30 36 H 37.221106 29.584106 57.063960 0
M  V30 37 H 38.808077 30.296314 57.127376 0
M  V30 38 H 38.621918 36.419653 64.088815 0
M  V30 39 H 37.854278 37.393486 62.830456 0
M  V30 40 H 39.715442 30.312405 55.315296 0
M  V30 41 H 39.884394 28.104911 57.066471 0
M  V30 42 H 40.427287 37.511754 63.802563 0
M  V30 43 H 36.022569 34.129624 62.251301 0
M  V30 44 H 36.267388 35.862193 62.443026 0
M  V30 45 H 35.876151 35.205836 60.852342 0
M  V30 46 H 39.857150 30.553127 52.867888 0
M  V30 47 H 35.441396 31.467785 59.462965 0
M  V30 48 H 35.633174 30.021506 58.498718 0
M  V30 49 H 35.662531 29.945620 60.253352 0
M  V30 50 H 40.667545 28.953825 61.387615 0
M  V30 51 H 39.433461 30.167797 61.560613 0
M  V30 52 H 39.004636 28.449475 61.493008 0
M  V30 53 H 37.720856 30.821768 60.503947 0
M  V30 54 H 39.970435 28.318232 59.203923 0
M  V30 55 H 40.268003 30.021428 59.167419 0
M  V30 56 H 38.247049 26.590351 52.364117 0
M  V30 57 H 37.569993 32.063608 57.728652 0
M  V30 58 H 39.054421 32.040012 58.645920 0
M  V30 59 H 40.885349 35.776106 62.089506 0
M  V30 60 H 39.269490 33.349756 60.732860 0
M  V30 61 H 37.843451 32.728984 61.521705 0
M  V30 62 H 37.658331 28.717163 59.263952 0
M  V30 END ATOM
M  V30 BEGIN BOND
M  V30 1 1 5 1
M  V30 2 1 6 2
M  V30 3 1 9 7
M  V30 4 2 11 1
M  V30 5 1 11 10
M  V30 6 1 12 4
M  V30 7 1 12 8
M  V30 8 1 12 11
M  V30 9 1 13 4
M  V30 10 1 13 5
M  V30 11 1 14 9
M  V30 12 1 15 6
M  V30 13 2 17 10
M  V30 14 1 17 15
M  V30 15 1 18 7
M  V30 16 1 18 16 CFG=1
M  V30 17 1 21 19
M  V30 18 1 22 20
M  V30 19 1 23 1
M  V30 20 2 23 15
M  V30 21 1 24 6
M  V30 22 1 25 3
M  V30 23 1 25 21
M  V30 24 1 26 7
M  V30 25 1 26 18
M  V30 26 1 27 8
M  V30 27 1 27 21
M  V30 28 1 27 22
M  V30 29 1 7 28 CFG=3
M  V30 30 1 29 3
M  V30 31 1 29 18
M  V30 32 1 30 3
M  V30 33 1 31 3
M  V30 34 1 32 4
M  V30 35 1 33 4
M  V30 36 1 34 5
M  V30 37 1 35 5
M  V30 38 1 36 8
M  V30 39 1 37 8
M  V30 40 1 38 9
M  V30 41 1 39 9
M  V30 42 1 40 10
M  V30 43 1 12 41 CFG=1
M  V30 44 1 42 14
M  V30 45 1 43 16
M  V30 46 1 44 16
M  V30 47 1 45 16
M  V30 48 1 46 17
M  V30 49 1 47 19
M  V30 50 1 48 19
M  V30 51 1 49 19
M  V30 52 1 50 20
M  V30 53 1 51 20
M  V30 54 1 52 20
M  V30 55 1 21 53 CFG=1
M  V30 56 1 54 22
M  V30 57 1 55 22
M  V30 58 1 56 23
M  V30 59 1 57 25
M  V30 60 1 58 25
M  V30 61 1 59 28
M  V30 62 1 60 29
M  V30 63 1 61 29
M  V30 64 1 27 62 CFG=1
M  V30 END BOND
M  V30 END CTAB
M  END
>  <i_epik_Tot_Q>  (1) 
1

>  <i_epik_Tot_abs_Q>  (1) 
1

>  <i_i_glide_confnum>  (1) 
1127

>  <i_i_glide_lignum>  (1) 
91

>  <i_i_glide_posenum>  (1) 
120

>  <i_i_glide_rotatable_bonds>  (1) 
12

>  <i_lp_mmshare_version>  (1) 
72125

>  <i_m_source_file_index>  (1) 
38

>  <i_f3d_flags>  (1) 
0

>  <num_sample>  (1) 
50

>  <b_lp_Chiralities_Consistent>  (1) 
1

>  <r_epik_Charging_Adjusted_Penalty>  (1) 
0.031037112904587178

>  <r_epik_Ionization_Penalty>  (1) 
0.015538636701717824

>  <r_epik_Ionization_Penalty_Charging>  (1) 
0.015518556452293627

>  <r_epik_Ionization_Penalty_Neutral>  (1) 
2.0080249424197063e-05

>  <r_epik_State_Penalty>  (1) 
0.015518556452293551

>  <r_glide_ring_energy>  (1) 
0

>  <r_i_docking_score>  (1) 
-7.8166028494171895

>  <r_i_glide_ecoul>  (1) 
-3.2953036065936785

>  <r_i_glide_eff_state_penalty>  (1) 
0.015518556452293551

>  <r_i_glide_einternal>  (1) 
8.248273693435582

>  <r_i_glide_emodel>  (1) 
-60.529086239467752

>  <r_i_glide_emodel_strain>  (1) 
3.0521775476017794

>  <r_i_glide_energy>  (1) 
-42.771657884600856

>  <r_i_glide_erotb>  (1) 
0.85436837262661747

>  <r_i_glide_esite>  (1) 
0

>  <r_i_glide_evdw>  (1) 
-39.476354278007179

>  <r_i_glide_gscore>  (1) 
-7.8321214058694828

>  <r_i_glide_gscore_strain>  (1) 
0

>  <r_i_glide_hbond>  (1) 
-0.24121683889545512

>  <r_i_glide_ligand_efficiency>  (1) 
-0.26953802929024789

>  <r_i_glide_ligand_efficiency_ln>  (1) 
-1.7898038405704697

>  <r_i_glide_ligand_efficiency_sa>  (1) 
-0.82810622255063349

>  <r_i_glide_lipo>  (1) 
-3.2666378017681694

>  <r_i_glide_metal>  (1) 
-0

>  <r_i_glide_rewards>  (1) 
-2.7105218829430653

>  <r_lp_Energy>  (1) 
43.254267999999996

>  <s_epik_cmdline>  (1) 
J2VwaWtfcHl0aG9uJywgJy1waHQnLCAnMS4wJywgJy1waCcsICc3LjQnLCAnLXRuJywgJzgnLCAnLW1hJywgJzUwMCcsICctaW1hZScsICc8aW5maWxlLm1hZT4nLCAnLW9tYWUnLCAnPG91dGZpbGUubWFlPic=

>  <s_epik_input>  (1) 
Rk4oRiljKFtjSF0xKVtjSF1bY0hdYyhjMTIpW0NASF0oW0NIMl1TW0NIMl0yKVtDSDJdTihbQ0gyXVtDSDNdKVtDQEhdKFtDSDNdKVtDSDJdW0NIMl1bQ0gyXVtDQEBdKE8zKShbQ0gzXSlDMyhbT0hdKVtDSDJdW09IXQ==

>  <s_glide_docking_method>  (1) 
confgen

>  <s_i_glide_gridfile>  (1) 
gpcr_5ht2c_6bqh_protein_autoprepared_prepared

>  <s_lp_Force_Field>  (1) 
S-OPLS

>  <s_lp_Variant>  (1) 
DiffSBDD_37_num_sample_50-1

>  <s_m_source_file>  (1) 
generated__ligand_DiffSBDD_2026-05-06_prepared.sdf

>  <GenAI_Model>  (1) 
DiffSBDD

>  <Protein>  (1) 
GPCR_5HT2C

$$$$
DiffSBDD_29_num_sample_50
     RDKit          3D

  0  0  0  0  0  0  0  0  0  0999 V3000
M  V30 BEGIN CTAB
M  V30 COUNTS 79 81 0 0 1
M  V30 BEGIN ATOM
M  V30 1 C 42.543077 32.585976 65.853651 0
M  V30 2 C 39.133303 31.692788 56.844925 0
M  V30 3 C 42.024375 34.024861 65.857683 0
M  V30 4 C 39.370243 27.342905 55.331791 0
M  V30 5 C 36.662182 35.118234 60.218844 0
M  V30 6 C 38.891347 26.206431 57.578355 0
M  V30 7 C 39.903116 35.686069 61.581533 0 CFG=2
M  V30 8 N 37.469013 32.053588 58.640545 0 CHG=1
M  V30 9 C 37.887663 34.409637 60.675922 0 CFG=1
M  V30 10 N 38.773983 27.336409 58.145530 0
M  V30 11 C 38.614880 34.962553 61.921846 0
M  V30 12 C 37.824184 31.870662 60.081198 0 CFG=2
M  V30 13 O 36.667437 29.221449 58.258319 0
M  V30 14 O 41.064388 34.856662 61.459932 0
M  V30 15 C 35.558638 34.421450 60.196385 0
M  V30 16 C 37.871052 25.287636 55.478773 0
M  V30 17 C 36.771130 36.573152 59.775159 0
M  V30 18 C 41.054354 35.273368 63.893191 0
M  V30 19 C 37.182639 32.981658 60.920009 0 CFG=2
M  V30 20 C 38.515287 28.460108 55.905537 0
M  V30 21 C 41.622231 31.503385 65.269871 0
M  V30 22 F 40.489704 31.447769 65.967364 0
M  V30 23 O 37.867427 33.543261 55.965004 0
M  V30 24 O 40.194941 25.221978 55.850170 0
M  V30 25 C 36.917995 37.566814 60.944732 0
M  V30 26 C 37.955976 31.078737 57.629725 0 CFG=2
M  V30 27 F 41.333546 31.773891 63.995329 0
M  V30 28 C 35.610432 33.028674 60.663591 0
M  V30 29 C 38.646336 32.433339 55.586328 0
M  V30 30 C 38.019705 29.629073 58.171180 0 CFG=2
M  V30 31 C 42.064756 34.592846 64.454586 0
M  V30 32 F 42.213277 30.308856 65.323434 0
M  V30 33 C 38.860102 28.593426 57.404612 0 CFG=1
M  V30 34 O 43.656404 32.309944 66.301247 0
M  V30 35 C 41.075745 35.830380 62.519386 0 CFG=2
M  V30 36 C 39.081133 26.026623 56.077735 0 CFG=1
M  V30 37 C 39.344300 31.799669 60.357285 0
M  V30 38 H 39.866729 30.946252 56.549848 0
M  V30 39 H 39.666133 32.417126 57.453559 0
M  V30 40 H 42.653039 34.631032 66.510324 0
M  V30 41 H 41.009152 34.057298 66.254708 0
M  V30 42 H 40.418078 27.625377 55.453896 0
M  V30 43 H 39.208068 27.232778 54.259174 0
M  V30 44 H 38.857914 25.274876 58.149876 0
M  V30 45 H 39.814081 36.421364 60.792108 0
M  V30 46 H 37.748008 32.973919 58.328580 0
M  V30 47 H 38.564394 34.388210 59.822776 0
M  V30 48 H 37.969552 35.621437 62.502878 0
M  V30 49 H 38.882706 34.139998 62.584438 0
M  V30 50 H 37.363338 30.946699 60.431790 0
M  V30 51 H 36.246513 29.355261 57.421403 0
M  V30 52 H 34.627654 34.821468 59.853589 0
M  V30 53 H 36.946470 25.848297 55.622561 0
M  V30 54 H 37.993454 25.129511 54.407154 0
M  V30 55 H 37.735236 24.306504 55.937632 0
M  V30 56 H 37.589436 36.690765 59.066291 0
M  V30 57 H 35.867516 36.821583 59.219094 0
M  V30 58 H 40.154042 35.440674 64.462634 0
M  V30 59 H 37.309015 32.706378 61.968033 0
M  V30 60 H 37.467379 28.228634 55.757342 0
M  V30 61 H 38.708603 29.382377 55.361340 0
M  V30 62 H 36.946028 33.364941 55.753366 0
M  V30 63 H 40.960536 25.608077 56.254765 0
M  V30 64 H 36.667397 38.583734 60.653479 0
M  V30 65 H 36.267334 37.307985 61.778931 0
M  V30 66 H 37.936124 37.606464 61.322914 0
M  V30 67 H 37.187569 30.999973 56.865560 0
M  V30 68 H 35.230051 32.335144 59.912936 0
M  V30 69 H 35.033479 32.919362 61.582306 0
M  V30 70 H 38.073104 31.785822 54.921373 0
M  V30 71 H 39.484775 32.807179 55.013468 0
M  V30 72 H 38.411941 29.575325 59.179703 0
M  V30 73 H 42.971102 34.425273 63.892303 0
M  V30 74 H 39.898864 28.919207 57.470756 0
M  V30 75 H 41.757741 36.664710 62.374148 0
M  V30 76 H 39.540228 31.780418 61.429910 0
M  V30 77 H 39.822020 30.912039 59.949826 0
M  V30 78 H 39.867465 32.663962 59.954229 0
M  V30 79 H 36.458476 32.021253 58.540672 0
M  V30 END ATOM
M  V30 BEGIN BOND
M  V30 1 1 3 1
M  V30 2 1 9 5
M  V30 3 2 10 6
M  V30 4 1 11 7
M  V30 5 1 11 9
M  V30 6 1 12 8
M  V30 7 1 14 7
M  V30 8 2 15 5
M  V30 9 1 17 5
M  V30 10 1 19 9
M  V30 11 1 19 12
M  V30 12 1 20 4
M  V30 13 1 21 1
M  V30 14 1 22 21
M  V30 15 1 25 17
M  V30 16 1 26 2
M  V30 17 1 26 8
M  V30 18 1 27 21
M  V30 19 1 28 15
M  V30 20 1 28 19
M  V30 21 1 29 2
M  V30 22 1 29 23
M  V30 23 1 30 13
M  V30 24 1 30 26
M  V30 25 1 31 3
M  V30 26 2 31 18
M  V30 27 1 32 21
M  V30 28 1 33 10
M  V30 29 1 33 20
M  V30 30 1 33 30
M  V30 31 2 34 1
M  V30 32 1 35 7
M  V30 33 1 35 14
M  V30 34 1 35 18
M  V30 35 1 36 4
M  V30 36 1 36 6
M  V30 37 1 36 16
M  V30 38 1 36 24 CFG=1
M  V30 39 1 37 12
M  V30 40 1 38 2
M  V30 41 1 39 2
M  V30 42 1 40 3
M  V30 43 1 41 3
M  V30 44 1 42 4
M  V30 45 1 43 4
M  V30 46 1 44 6
M  V30 47 1 7 45 CFG=3
M  V30 48 1 46 8
M  V30 49 1 9 47 CFG=3
M  V30 50 1 48 11
M  V30 51 1 49 11
M  V30 52 1 12 50 CFG=1
M  V30 53 1 51 13
M  V30 54 1 52 15
M  V30 55 1 53 16
M  V30 56 1 54 16
M  V30 57 1 55 16
M  V30 58 1 56 17
M  V30 59 1 57 17
M  V30 60 1 58 18
M  V30 61 1 19 59 CFG=1
M  V30 62 1 60 20
M  V30 63 1 61 20
M  V30 64 1 62 23
M  V30 65 1 63 24
M  V30 66 1 64 25
M  V30 67 1 65 25
M  V30 68 1 66 25
M  V30 69 1 26 67 CFG=3
M  V30 70 1 68 28
M  V30 71 1 69 28
M  V30 72 1 70 29
M  V30 73 1 71 29
M  V30 74 1 30 72 CFG=1
M  V30 75 1 73 31
M  V30 76 1 33 74 CFG=3
M  V30 77 1 35 75 CFG=1
M  V30 78 1 76 37
M  V30 79 1 77 37
M  V30 80 1 78 37
M  V30 81 1 79 8
M  V30 END BOND
M  V30 END CTAB
M  END
>  <i_epik_Tot_Q>  (1) 
1

>  <i_epik_Tot_abs_Q>  (1) 
1

>  <i_i_glide_confnum>  (1) 
5374

>  <i_i_glide_lignum>  (1) 
75

>  <i_i_glide_posenum>  (1) 
151

>  <i_i_glide_rotatable_bonds>  (1) 
17

>  <i_lp_mmshare_version>  (1) 
72125

>  <i_m_source_file_index>  (1) 
30

>  <i_f3d_flags>  (1) 
0

>  <num_sample>  (1) 
50

>  <b_lp_Chiralities_Consistent>  (1) 
1

>  <r_epik_Charging_Adjusted_Penalty>  (1) 
0.073066720001252791

>  <r_epik_Ionization_Penalty>  (1) 
0.041882768558209021

>  <r_epik_Ionization_Penalty_Charging>  (1) 
0.011280877963412759

>  <r_epik_Ionization_Penalty_Neutral>  (1) 
0.030601890594796264

>  <r_epik_State_Penalty>  (1) 
0.061785842037840037

>  <r_glide_ring_energy>  (1) 
0

>  <r_i_docking_score>  (1) 
-7.8053310413998771

>  <r_i_glide_ecoul>  (1) 
-8.5552177519314281

>  <r_i_glide_eff_state_penalty>  (1) 
0.061785842037840037

>  <r_i_glide_einternal>  (1) 
19.646985349836431

>  <r_i_glide_emodel>  (1) 
-55.644502814005037

>  <r_i_glide_emodel_strain>  (1) 
4.6980308800215624

>  <r_i_glide_energy>  (1) 
-44.298886505228886

>  <r_i_glide_erotb>  (1) 
0.87550365807384167

>  <r_i_glide_esite>  (1) 
-0.096094769709540784

>  <r_i_glide_evdw>  (1) 
-35.743668753297456

>  <r_i_glide_gscore>  (1) 
-7.867116883437717

>  <r_i_glide_gscore_strain>  (1) 
0.17450772000539061

>  <r_i_glide_hbond>  (1) 
-0.44825215037446337

>  <r_i_glide_ligand_efficiency>  (1) 
-0.2109548930108075

>  <r_i_glide_ligand_efficiency_ln>  (1) 
-1.6927933199582277

>  <r_i_glide_ligand_efficiency_sa>  (1) 
-0.70294850420224697

>  <r_i_glide_lipo>  (1) 
-3.4336305426520064

>  <r_i_glide_metal>  (1) 
-0

>  <r_i_glide_rewards>  (1) 
-1.8686846983263505

>  <r_lp_Energy>  (1) 
33.860624000000001

>  <s_epik_Chemistry_Notes>  (1) 
This compound has an imine and may undergo hydrolysis.

>  <s_epik_cmdline>  (1) 
J2VwaWtfcHl0aG9uJywgJy1waHQnLCAnMS4wJywgJy1waCcsICc3LjQnLCAnLXRuJywgJzgnLCAnLW1hJywgJzUwMCcsICctaW1hZScsICc8aW5maWxlLm1hZT4nLCAnLW9tYWUnLCAnPG91dGZpbGUubWFlPic=

>  <s_epik_input>  (1) 
RkMoRikoRilDKD1PKVtDSDJdXFtDSF09W0NIXVxbQ0BIXTFPW0NASF0xW0NIMl1bQ0BIXTJbQ0BIXShbQ0gyXVtDSF09QzJbQ0gyXVtDSDNdKVtDQEhdKFtDSDNdKVtOSF1bQ0BASF0oW0NIMl1bQ0gyXVtPSF0pW0NAQEhdKFtPSF0pW0NAQEhdKE49W0NIXTMpW0NIMl1bQ0gyXVtDQEBdMyhbQ0gzXSlbT0hd

>  <s_glide_docking_method>  (1) 
confgen

>  <s_i_glide_gridfile>  (1) 
gpcr_5ht2c_6bqh_protein_autoprepared_prepared

>  <s_lp_Force_Field>  (1) 
S-OPLS

>  <s_lp_Variant>  (1) 
DiffSBDD_29_num_sample_50-3

>  <s_m_source_file>  (1) 
generated__ligand_DiffSBDD_2026-05-06_prepared.sdf

>  <GenAI_Model>  (1) 
DiffSBDD

>  <Protein>  (1) 
GPCR_5HT2C

$$$$
DiffSBDD_26_num_sample_50
     RDKit          3D

  0  0  0  0  0  0  0  0  0  0999 V3000
M  V30 BEGIN CTAB
M  V30 COUNTS 96 102 0 0 1
M  V30 BEGIN ATOM
M  V30 1 C 42.460129 28.479212 66.280518 0
M  V30 2 N 43.577575 27.297375 64.342470 0
M  V30 3 C 37.931404 25.261300 55.685636 0
M  V30 4 C 38.122309 34.462716 60.010533 0
M  V30 5 N 42.783384 25.299858 64.435179 0 CHG=1
M  V30 6 N 41.041952 30.816824 61.853718 0
M  V30 7 C 41.988060 33.070155 64.049819 0
M  V30 8 C 42.173483 30.937245 65.245441 0
M  V30 9 C 38.125171 25.608366 58.072075 0
M  V30 10 C 42.726638 27.275985 65.428701 0
M  V30 11 C 41.172840 29.173854 59.867687 0
M  V30 12 C 40.783125 28.954113 64.354930 0
M  V30 13 O 36.909273 37.221180 59.932588 0
M  V30 14 C 41.078404 32.064122 61.075386 0
M  V30 15 N 40.404740 28.608806 58.728744 0 CFG=2 CHG=1
M  V30 16 C 43.581583 26.103469 63.753652 0
M  V30 17 S 40.520539 35.221102 61.053459 0
M  V30 18 C 39.104470 36.168282 61.596770 0
M  V30 19 C 40.620017 31.137438 63.258939 0 CFG=1
M  V30 20 N 44.267662 25.766497 62.653456 0
M  V30 21 C 37.592584 24.903310 56.991547 0
M  V30 22 C 40.404874 28.127361 56.344571 0
M  V30 23 C 42.229778 25.981368 65.485006 0
M  V30 24 C 39.232299 26.699452 54.026234 0
M  V30 25 C 39.387167 27.026930 56.555470 0
M  V30 26 C 43.403325 28.787300 67.434364 0
M  V30 27 C 39.677698 32.568732 60.619726 0
M  V30 28 C 36.667343 36.278575 60.961092 0
M  V30 29 C 37.859278 35.376119 61.211593 0 CFG=1
M  V30 30 C 42.065263 28.181331 67.724280 0
M  V30 31 C 40.369851 29.714504 61.089677 0
M  V30 32 C 38.841200 26.322406 55.451668 0
M  V30 33 O 43.073742 31.370772 65.963084 0
M  V30 34 C 39.522463 27.474107 59.077462 0
M  V30 35 C 40.972706 34.195893 64.016604 0
M  V30 36 O 37.389945 24.577615 54.653498 0
M  V30 37 C 39.820741 30.021416 63.875091 0
M  V30 38 C 41.768957 33.970779 65.262567 0
M  V30 39 C 39.585312 34.005862 60.061517 0 CFG=1
M  V30 40 C 44.370410 28.432803 63.851283 0
M  V30 41 C 41.580163 29.524302 65.525068 0 CFG=1
M  V30 42 N 41.622281 31.688469 64.232366 0
M  V30 43 C 41.276243 28.201031 57.601920 0
M  V30 44 C 38.996179 26.682247 57.868912 0
M  V30 45 H 37.867348 34.970638 59.080657 0
M  V30 46 H 37.439740 33.612174 60.023252 0
M  V30 47 H 42.816068 33.263480 63.381558 0
M  V30 48 H 37.867383 25.323971 59.053519 0
M  V30 49 H 41.867479 28.415727 60.220703 0
M  V30 50 H 41.771419 29.967257 59.438564 0
M  V30 51 H 41.434474 28.650693 63.539470 0
M  V30 52 H 40.267329 28.054204 64.681292 0
M  V30 53 H 36.184958 37.830399 59.893792 0
M  V30 54 H 41.573559 32.832658 61.652722 0
M  V30 55 H 41.763453 31.925284 60.253669 0
M  V30 56 H 39.150327 36.343291 62.673074 0
M  V30 57 H 39.130020 37.139344 61.110747 0
M  V30 58 H 39.851989 31.896216 63.189110 0
M  V30 59 H 44.842866 26.433675 62.149778 0
M  V30 60 H 44.225006 24.842878 62.250049 0
M  V30 61 H 36.913236 24.082377 57.167227 0
M  V30 62 H 41.043688 27.883599 55.500819 0
M  V30 63 H 39.906292 29.075264 56.135072 0
M  V30 64 H 41.534470 25.517655 66.172073 0
M  V30 65 H 40.187706 26.246722 53.761391 0
M  V30 66 H 38.489633 26.389949 53.292781 0
M  V30 67 H 39.323993 27.781023 53.923978 0
M  V30 68 H 44.273117 28.145424 67.550851 0
M  V30 69 H 43.545780 29.808148 67.773850 0
M  V30 70 H 39.289159 31.903612 59.849017 0
M  V30 71 H 38.961383 32.490867 61.432704 0
M  V30 72 H 35.867446 35.620547 60.643182 0
M  V30 73 H 36.372717 36.796438 61.874433 0
M  V30 74 H 37.636046 34.717101 62.044688 0
M  V30 75 H 41.330138 28.816940 68.214416 0
M  V30 76 H 42.054371 27.146005 68.059639 0
M  V30 77 H 39.353125 29.992599 60.808874 0
M  V30 78 H 40.245303 28.829648 61.708977 0
M  V30 79 H 38.664843 27.850444 59.636146 0
M  V30 80 H 40.065830 26.821419 59.743674 0
M  V30 81 H 41.227297 35.149451 63.569295 0
M  V30 82 H 39.935178 33.898712 63.877453 0
M  V30 83 H 36.784273 23.903345 54.919933 0
M  V30 84 H 39.244908 30.410975 64.717997 0
M  V30 85 H 39.069459 29.667443 63.171582 0
M  V30 86 H 41.237380 33.575241 66.125793 0
M  V30 87 H 42.549998 34.692483 65.495075 0
M  V30 88 H 39.967858 34.021395 59.043932 0
M  V30 89 H 43.798238 28.963749 63.091689 0
M  V30 90 H 44.594070 29.110902 64.674233 0
M  V30 91 H 45.313702 28.082881 63.432003 0
M  V30 92 H 40.813795 29.785194 66.255012 0
M  V30 93 H 41.716314 27.223810 57.815869 0
M  V30 94 H 42.148919 28.821433 57.466739 0
M  V30 95 H 42.606160 24.330222 64.207839 0
M  V30 96 H 39.813760 29.345061 58.371913 0
M  V30 END ATOM
M  V30 BEGIN BOND
M  V30 1 1 10 1
M  V30 2 1 10 2
M  V30 3 1 14 6
M  V30 4 1 15 11
M  V30 5 1 16 2
M  V30 6 2 16 5
M  V30 7 1 18 17
M  V30 8 1 19 6
M  V30 9 1 20 16
M  V30 10 1 21 3
M  V30 11 2 21 9
M  V30 12 1 23 5
M  V30 13 2 23 10
M  V30 14 1 25 22
M  V30 15 1 26 1
M  V30 16 1 27 14
M  V30 17 1 28 13
M  V30 18 1 29 4
M  V30 19 1 29 18
M  V30 20 1 29 28
M  V30 21 1 30 1
M  V30 22 1 30 26
M  V30 23 1 31 6
M  V30 24 1 31 11
M  V30 25 2 32 3
M  V30 26 1 32 24
M  V30 27 1 32 25
M  V30 28 2 33 8
M  V30 29 1 34 15
M  V30 30 1 35 7
M  V30 31 1 36 3
M  V30 32 1 37 12
M  V30 33 1 37 19
M  V30 34 1 38 7
M  V30 35 1 38 35
M  V30 36 1 39 4
M  V30 37 1 39 17
M  V30 38 1 39 27
M  V30 39 1 40 2
M  V30 40 1 41 1
M  V30 41 1 41 8
M  V30 42 1 41 12
M  V30 43 1 42 7
M  V30 44 1 42 8
M  V30 45 1 42 19
M  V30 46 1 43 15
M  V30 47 1 43 22
M  V30 48 1 44 9
M  V30 49 2 44 25
M  V30 50 1 44 34
M  V30 51 1 45 4
M  V30 52 1 46 4
M  V30 53 1 47 7
M  V30 54 1 48 9
M  V30 55 1 49 11
M  V30 56 1 50 11
M  V30 57 1 51 12
M  V30 58 1 52 12
M  V30 59 1 53 13
M  V30 60 1 54 14
M  V30 61 1 55 14
M  V30 62 1 56 18
M  V30 63 1 57 18
M  V30 64 1 19 58 CFG=3
M  V30 65 1 59 20
M  V30 66 1 60 20
M  V30 67 1 61 21
M  V30 68 1 62 22
M  V30 69 1 63 22
M  V30 70 1 64 23
M  V30 71 1 65 24
M  V30 72 1 66 24
M  V30 73 1 67 24
M  V30 74 1 68 26
M  V30 75 1 69 26
M  V30 76 1 70 27
M  V30 77 1 71 27
M  V30 78 1 72 28
M  V30 79 1 73 28
M  V30 80 1 29 74 CFG=1
M  V30 81 1 75 30
M  V30 82 1 76 30
M  V30 83 1 77 31
M  V30 84 1 78 31
M  V30 85 1 79 34
M  V30 86 1 80 34
M  V30 87 1 81 35
M  V30 88 1 82 35
M  V30 89 1 83 36
M  V30 90 1 84 37
M  V30 91 1 85 37
M  V30 92 1 86 38
M  V30 93 1 87 38
M  V30 94 1 39 88 CFG=3
M  V30 95 1 89 40
M  V30 96 1 90 40
M  V30 97 1 91 40
M  V30 98 1 41 92 CFG=1
M  V30 99 1 93 43
M  V30 100 1 94 43
M  V30 101 1 95 5
M  V30 102 1 15 96 CFG=3
M  V30 END BOND
M  V30 END CTAB
M  END
>  <i_epik_Tot_Q>  (1) 
2

>  <i_epik_Tot_abs_Q>  (1) 
2

>  <i_i_glide_confnum>  (1) 
8987

>  <i_i_glide_lignum>  (1) 
68

>  <i_i_glide_posenum>  (1) 
362

>  <i_i_glide_rotatable_bonds>  (1) 
13

>  <i_lp_mmshare_version>  (1) 
72125

>  <i_m_source_file_index>  (1) 
27

>  <i_f3d_flags>  (1) 
0

>  <num_sample>  (1) 
50

>  <b_lp_Chiralities_Consistent>  (1) 
1

>  <r_epik_Charging_Adjusted_Penalty>  (1) 
0.023035094209541071

>  <r_epik_Ionization_Penalty>  (1) 
0.04084289902745275

>  <r_epik_Ionization_Penalty_Charging>  (1) 
0.023035094209541071

>  <r_epik_Ionization_Penalty_Neutral>  (1) 
0.017807804817911676

>  <r_epik_State_Penalty>  (1) 
-0

>  <r_glide_ring_energy>  (1) 
0

>  <r_i_docking_score>  (1) 
-7.7855193244573577

>  <r_i_glide_ecoul>  (1) 
-1.6634999404303201

>  <r_i_glide_eff_state_penalty>  (1) 
-0

>  <r_i_glide_einternal>  (1) 
21.191810954615676

>  <r_i_glide_emodel>  (1) 
-39.833720060197933

>  <r_i_glide_emodel_strain>  (1) 
3.2209869397281778

>  <r_i_glide_energy>  (1) 
-31.323874664618209

>  <r_i_glide_erotb>  (1) 
0.45984128746928787

>  <r_i_glide_esite>  (1) 
-0.034370605557908697

>  <r_i_glide_evdw>  (1) 
-29.660374724187889

>  <r_i_glide_gscore>  (1) 
-7.7855193244573577

>  <r_i_glide_gscore_strain>  (1) 
0

>  <r_i_glide_hbond>  (1) 
-0.48879532053500113

>  <r_i_glide_ligand_efficiency>  (1) 
-0.17694362101039449

>  <r_i_glide_ligand_efficiency_ln>  (1) 
-1.6273433789623846

>  <r_i_glide_ligand_efficiency_sa>  (1) 
-0.62467261788061212

>  <r_i_glide_lipo>  (1) 
-4.9955172998139847

>  <r_i_glide_metal>  (1) 
-0

>  <r_i_glide_rewards>  (1) 
-0.99413365874580961

>  <r_lp_Energy>  (1) 
49.558928999999999

>  <r_lp_tautomer_probability>  (1) 
1

>  <s_epik_Chemistry_Notes>  (1) 
This compound contains an acetal/aminal-like group ( X-CH(R)-Y where X, Y are N, S, or O) that may be acid/base labile, releasing an aldehyde.

>  <s_epik_cmdline>  (1) 
J2VwaWtfcHl0aG9uJywgJy1waHQnLCAnMS4wJywgJy1waCcsICc3LjQnLCAnLXRuJywgJzgnLCAnLW1hJywgJzUwMCcsICctaW1hZScsICc8aW5maWxlLm1hZT4nLCAnLW9tYWUnLCAnPG91dGZpbGUubWFlPic=

>  <s_epik_input>  (1) 
W05IMl1jMW5bY0hdYyhuMVtDSDNdKUMyKFtDSDJdW0NIMl0yKVtDQEBIXShDMz1PKVtDSDJdW0NIMl1bQ0BASF0oTjNbQ0hdNFtDSDJdW0NIMl00KU4oW0NIMl1bQ0gyXVtDQEhdKFNbQ0gyXTUpW0NIMl1bQ0BASF01W0NIMl1bT0hdKVtDSDJdW0NIMl1OKFtDSDJdW0NIMl02KVtDSDJdYyhjNjcpW2NIXVtjSF1jKFtPSF0pYzdbQ0gzXQ==

>  <s_glide_docking_method>  (1) 
confgen

>  <s_i_glide_gridfile>  (1) 
gpcr_5ht2c_6bqh_protein_autoprepared_prepared

>  <s_lp_Force_Field>  (1) 
S-OPLS

>  <s_lp_Variant>  (1) 
DiffSBDD_26_num_sample_50-1

>  <s_m_source_file>  (1) 
generated__ligand_DiffSBDD_2026-05-06_prepared.sdf

>  <GenAI_Model>  (1) 
DiffSBDD

>  <Protein>  (1) 
GPCR_5HT2C

$$$$
DiffSBDD_47_num_sample_50
     RDKit          3D

  0  0  0  0  0  0  0  0  0  0999 V3000
M  V30 BEGIN CTAB
M  V30 COUNTS 47 49 0 0 1
M  V30 BEGIN ATOM
M  V30 1 C 38.745917 32.979976 60.931959 0
M  V30 2 C 38.985409 35.342631 61.853525 0
M  V30 3 C 37.145165 36.335506 59.973778 0
M  V30 4 C 38.835636 29.360934 53.140116 0
M  V30 5 C 38.219836 27.159214 53.954293 0
M  V30 6 N 40.098520 31.149293 61.847788 0
M  V30 7 C 38.442509 30.699596 60.140329 0
M  V30 8 C 39.446446 30.295870 61.035368 0
M  V30 9 C 37.611623 30.901441 54.645014 0
M  V30 10 C 38.530849 28.077234 52.892141 0
M  V30 11 O 39.721980 28.678146 58.358021 0
M  V30 12 N 38.136326 29.324828 56.876558 0
M  V30 13 C 38.853166 28.881518 55.680432 0 CFG=2
M  V30 14 C 38.851189 29.977303 54.545672 0
M  V30 15 C 37.467404 34.965397 59.979754 0
M  V30 16 O 36.267404 36.821430 59.053502 0
M  V30 17 C 38.647147 36.709176 61.844414 0
M  V30 18 C 38.625481 29.184721 58.117716 0
M  V30 19 C 38.089170 32.055656 60.081334 0
M  V30 20 C 37.740319 29.683892 59.256486 0
M  V30 21 C 38.349559 27.512325 55.238408 0
M  V30 22 C 38.397494 34.440622 60.921702 0
M  V30 23 C 37.729088 37.203388 60.907318 0
M  V30 24 C 39.747017 32.455913 61.798819 0
M  V30 25 C 40.098070 30.867124 54.699704 0
M  V30 26 H 39.691655 34.987774 62.582994 0
M  V30 27 H 39.067415 30.021428 52.317960 0
M  V30 28 H 37.879701 26.163148 53.710410 0
M  V30 29 H 39.734168 29.256713 61.102560 0
M  V30 30 H 37.579900 31.466620 55.577669 0
M  V30 31 H 37.611203 31.647725 53.853501 0
M  V30 32 H 36.681107 30.337352 54.570037 0
M  V30 33 H 38.517612 27.725536 51.870361 0
M  V30 34 H 37.231211 29.759131 56.749710 0
M  V30 35 H 39.898099 28.685095 55.927825 0
M  V30 36 H 37.005705 34.319305 59.254086 0
M  V30 37 H 36.107844 36.232132 58.324629 0
M  V30 38 H 39.098836 37.379644 62.560717 0
M  V30 39 H 37.318932 32.376522 59.401648 0
M  V30 40 H 37.467403 28.821430 59.853502 0
M  V30 41 H 36.810826 30.103469 58.866443 0
M  V30 42 H 38.113737 26.802576 56.018084 0
M  V30 43 H 37.476194 38.253762 60.900201 0
M  V30 44 H 40.286447 33.101711 62.468809 0
M  V30 45 H 40.090600 31.390303 55.656524 0
M  V30 46 H 41.023696 30.296008 54.653439 0
M  V30 47 H 40.137845 31.621422 53.915310 0
M  V30 END ATOM
M  V30 BEGIN BOND
M  V30 1 2 8 6
M  V30 2 1 8 7
M  V30 3 2 10 4
M  V30 4 1 10 5
M  V30 5 1 13 12
M  V30 6 1 14 4
M  V30 7 1 14 9
M  V30 8 1 14 13
M  V30 9 2 15 3
M  V30 10 1 16 3
M  V30 11 1 17 2
M  V30 12 2 18 11
M  V30 13 1 18 12
M  V30 14 1 19 1
M  V30 15 2 19 7
M  V30 16 1 20 7
M  V30 17 1 20 18
M  V30 18 2 21 5
M  V30 19 1 21 13
M  V30 20 1 22 1
M  V30 21 2 22 2
M  V30 22 1 22 15
M  V30 23 1 23 3
M  V30 24 2 23 17
M  V30 25 2 24 1
M  V30 26 1 24 6
M  V30 27 1 25 14
M  V30 28 1 26 2
M  V30 29 1 27 4
M  V30 30 1 28 5
M  V30 31 1 29 8
M  V30 32 1 30 9
M  V30 33 1 31 9
M  V30 34 1 32 9
M  V30 35 1 33 10
M  V30 36 1 34 12
M  V30 37 1 13 35 CFG=1
M  V30 38 1 36 15
M  V30 39 1 37 16
M  V30 40 1 38 17
M  V30 41 1 39 19
M  V30 42 1 40 20
M  V30 43 1 41 20
M  V30 44 1 42 21
M  V30 45 1 43 23
M  V30 46 1 44 24
M  V30 47 1 45 25
M  V30 48 1 46 25
M  V30 49 1 47 25
M  V30 END BOND
M  V30 END CTAB
M  END
>  <i_epik_Tot_Q>  (1) 
0

>  <i_epik_Tot_abs_Q>  (1) 
0

>  <i_i_glide_confnum>  (1) 
67

>  <i_i_glide_lignum>  (1) 
108

>  <i_i_glide_posenum>  (1) 
131

>  <i_i_glide_rotatable_bonds>  (1) 
6

>  <i_lp_mmshare_version>  (1) 
72125

>  <i_m_source_file_index>  (1) 
48

>  <i_f3d_flags>  (1) 
0

>  <num_sample>  (1) 
50

>  <b_lp_Chiralities_Consistent>  (1) 
1

>  <r_epik_Charging_Adjusted_Penalty>  (1) 
0.0032589894025149397

>  <r_epik_Ionization_Penalty>  (1) 
0.0038156857198904941

>  <r_epik_Ionization_Penalty_Charging>  (1) 
0

>  <r_epik_Ionization_Penalty_Neutral>  (1) 
0.0038156857198904941

>  <r_epik_State_Penalty>  (1) 
0.0032589894025149397

>  <r_glide_ring_energy>  (1) 
0.22159941248723586

>  <r_i_docking_score>  (1) 
-7.7702665211099058

>  <r_i_glide_ecoul>  (1) 
-6.3340708401664649

>  <r_i_glide_eff_state_penalty>  (1) 
0.0032589894025149397

>  <r_i_glide_einternal>  (1) 
1.3500319850101317

>  <r_i_glide_emodel>  (1) 
-67.372001286021955

>  <r_i_glide_emodel_strain>  (1) 
0.089712748605847992

>  <r_i_glide_energy>  (1) 
-45.072891709345484

>  <r_i_glide_erotb>  (1) 
0.84319913175930694

>  <r_i_glide_esite>  (1) 
-0.026675319187258136

>  <r_i_glide_evdw>  (1) 
-38.738820869179015

>  <r_i_glide_gscore>  (1) 
-7.773525510512421

>  <r_i_glide_gscore_strain>  (1) 
0

>  <r_i_glide_hbond>  (1) 
-0.34653931256858256

>  <r_i_glide_ligand_efficiency>  (1) 
-0.31081066084439624

>  <r_i_glide_ligand_efficiency_ln>  (1) 
-1.8417860216003517

>  <r_i_glide_ligand_efficiency_sa>  (1) 
-0.90881588553467774

>  <r_i_glide_lipo>  (1) 
-3.42649040960683

>  <r_i_glide_metal>  (1) 
-0

>  <r_i_glide_rewards>  (1) 
-1.9299679314251366

>  <r_lp_Energy>  (1) 
36.557407999999995

>  <r_lp_tautomer_probability>  (1) 
0.99999999999736477

>  <s_epik_cmdline>  (1) 
J2VwaWtfcHl0aG9uJywgJy1waHQnLCAnMS4wJywgJy1waCcsICc3LjQnLCAnLXRuJywgJzgnLCAnLW1hJywgJzUwMCcsICctaW1hZScsICc8aW5maWxlLm1hZT4nLCAnLW9tYWUnLCAnPG91dGZpbGUubWFlPic=

>  <s_epik_input>  (1) 
W09IXWMxW2NIXWMoW2NIXVtjSF1bY0hdMSktYzJbY0hdYyhbY0hdbltjSF0yKVtDSDJdQyg9TylbTkhdW0NAQEhdM1tDSF09W0NIXVtDSF09W0NIXUMzKFtDSDNdKVtDSDNd

>  <s_glide_docking_method>  (1) 
confgen

>  <s_i_glide_gridfile>  (1) 
gpcr_5ht2c_6bqh_protein_autoprepared_prepared

>  <s_lp_Force_Field>  (1) 
S-OPLS

>  <s_lp_Variant>  (1) 
DiffSBDD_47_num_sample_50-2

>  <s_m_source_file>  (1) 
generated__ligand_DiffSBDD_2026-05-06_prepared.sdf

>  <GenAI_Model>  (1) 
DiffSBDD

>  <Protein>  (1) 
GPCR_5HT2C

$$$$
DiffSBDD_19_num_sample_50
     RDKit          3D

  0  0  0  0  0  0  0  0  0  0999 V3000
M  V30 BEGIN CTAB
M  V30 COUNTS 46 49 0 0 1
M  V30 BEGIN ATOM
M  V30 1 N 38.460790 34.853604 61.047008 0
M  V30 2 C 37.513182 31.209456 59.053629 0
M  V30 3 C 39.927998 34.925318 61.030768 0
M  V30 4 C 39.428183 30.368479 60.554379 0
M  V30 5 N 39.486151 29.261455 59.757097 0
M  V30 6 C 37.154002 29.765241 58.787624 0
M  V30 7 C 38.195971 31.295566 60.424387 0 CFG=1
M  V30 8 F 40.243876 34.472510 63.304918 0
M  V30 9 O 36.538012 33.495878 60.961999 0
M  V30 10 O 40.320262 30.647643 61.359825 0
M  V30 11 N 39.649321 36.664145 62.808828 0
M  V30 12 N 40.433811 27.137716 56.253499 0
M  V30 13 C 39.060661 28.829462 57.370252 0 CFG=1
M  V30 14 O 38.629754 32.632756 60.672851 0
M  V30 15 C 38.281042 28.224948 56.195257 0
M  V30 16 O 39.867402 36.821618 64.231218 0
M  V30 17 C 38.190616 36.627621 62.663065 0
M  V30 18 C 38.418838 28.897966 58.773536 0 CFG=1
M  V30 19 C 40.656270 28.355376 59.822943 0
M  V30 20 C 40.384478 35.449722 62.406873 0 CFG=2
M  V30 21 C 40.203591 27.858052 57.403526 0
M  V30 22 C 40.923409 27.638823 58.508383 0
M  V30 23 C 37.755438 36.103582 61.287067 0
M  V30 24 C 37.759915 33.642743 60.901504 0
M  V30 25 C 39.370149 27.354709 55.610342 0
M  V30 26 H 36.602543 31.807318 59.030396 0
M  V30 27 H 38.162424 31.598171 58.267779 0
M  V30 28 H 40.461776 34.002821 60.809493 0
M  V30 29 H 40.225757 35.627598 60.253496 0
M  V30 30 H 36.598495 29.677140 57.853245 0
M  V30 31 H 36.476871 29.418313 59.568829 0
M  V30 32 H 37.494740 30.995451 61.205699 0
M  V30 33 H 37.916629 28.966897 55.484280 0
M  V30 34 H 40.568565 37.466478 64.267882 0
M  V30 35 H 37.754524 36.021432 63.449980 0
M  V30 36 H 37.784677 37.621874 62.821315 0
M  V30 37 H 38.108092 27.884933 59.027135 0
M  V30 38 H 41.564155 28.890352 60.081643 0
M  V30 39 H 40.484317 27.621427 60.609506 0
M  V30 40 H 41.451621 35.674476 62.387158 0
M  V30 41 H 41.722907 26.911336 58.498704 0
M  V30 42 H 36.670662 35.995777 61.248235 0
M  V30 43 H 38.025170 36.817148 60.507806 0
M  V30 44 H 39.177934 26.937164 54.618385 0
M  V30 45 H 39.458975 29.805775 57.087151 0
M  V30 46 H 37.467408 27.587165 56.533980 0
M  V30 END ATOM
M  V30 BEGIN BOND
M  V30 1 1 3 1
M  V30 2 1 5 4
M  V30 3 1 6 2
M  V30 4 1 7 2
M  V30 5 1 7 4
M  V30 6 2 10 4
M  V30 7 1 14 7
M  V30 8 1 15 13
M  V30 9 1 16 11
M  V30 10 1 17 11
M  V30 11 1 18 5
M  V30 12 1 18 6
M  V30 13 1 18 13
M  V30 14 1 19 5
M  V30 15 1 20 3
M  V30 16 1 20 8
M  V30 17 1 20 11
M  V30 18 1 21 12
M  V30 19 1 21 13
M  V30 20 1 22 19
M  V30 21 2 22 21
M  V30 22 1 23 1
M  V30 23 1 23 17
M  V30 24 1 24 1
M  V30 25 2 24 9
M  V30 26 1 24 14
M  V30 27 2 25 12
M  V30 28 1 25 15
M  V30 29 1 26 2
M  V30 30 1 27 2
M  V30 31 1 28 3
M  V30 32 1 29 3
M  V30 33 1 30 6
M  V30 34 1 31 6
M  V30 35 1 7 32 CFG=1
M  V30 36 1 33 15
M  V30 37 1 34 16
M  V30 38 1 35 17
M  V30 39 1 36 17
M  V30 40 1 18 37 CFG=1
M  V30 41 1 38 19
M  V30 42 1 39 19
M  V30 43 1 20 40 CFG=3
M  V30 44 1 41 22
M  V30 45 1 42 23
M  V30 46 1 43 23
M  V30 47 1 44 25
M  V30 48 1 13 45 CFG=3
M  V30 49 1 46 15
M  V30 END BOND
M  V30 END CTAB
M  END
>  <i_epik_Tot_Q>  (1) 
0

>  <i_epik_Tot_abs_Q>  (1) 
0

>  <i_i_glide_confnum>  (1) 
7

>  <i_i_glide_lignum>  (1) 
54

>  <i_i_glide_posenum>  (1) 
161

>  <i_i_glide_rotatable_bonds>  (1) 
4

>  <i_lp_mmshare_version>  (1) 
72125

>  <i_m_source_file_index>  (1) 
20

>  <i_f3d_flags>  (1) 
0

>  <num_sample>  (1) 
50

>  <b_lp_Chiralities_Consistent>  (1) 
1

>  <r_epik_Charging_Adjusted_Penalty>  (1) 
0

>  <r_epik_Ionization_Penalty>  (1) 
0.00023690808741792311

>  <r_epik_Ionization_Penalty_Charging>  (1) 
0

>  <r_epik_Ionization_Penalty_Neutral>  (1) 
0.00023690808741792311

>  <r_epik_State_Penalty>  (1) 
-0

>  <r_glide_ring_energy>  (1) 
0.27322882293605699

>  <r_i_docking_score>  (1) 
-7.7639549235161756

>  <r_i_glide_ecoul>  (1) 
-4.7525138063536652

>  <r_i_glide_eff_state_penalty>  (1) 
-0

>  <r_i_glide_einternal>  (1) 
3.867730611520567

>  <r_i_glide_emodel>  (1) 
-61.768405579884693

>  <r_i_glide_emodel_strain>  (1) 
0.11102335837490784

>  <r_i_glide_energy>  (1) 
-43.709306695790005

>  <r_i_glide_erotb>  (1) 
0.46110279215177946

>  <r_i_glide_esite>  (1) 
-0.041121011950362864

>  <r_i_glide_evdw>  (1) 
-38.956792889436336

>  <r_i_glide_gscore>  (1) 
-7.7639549235161756

>  <r_i_glide_gscore_strain>  (1) 
0

>  <r_i_glide_hbond>  (1) 
-0.32000000000000001

>  <r_i_glide_ligand_efficiency>  (1) 
-0.31055819694064701

>  <r_i_glide_ligand_efficiency_ln>  (1) 
-1.8402899838273206

>  <r_i_glide_ligand_efficiency_sa>  (1) 
-0.90807767660185656

>  <r_i_glide_lipo>  (1) 
-1.9958825381454952

>  <r_i_glide_metal>  (1) 
-0

>  <r_i_glide_rewards>  (1) 
-3.2073374501472292

>  <r_lp_Energy>  (1) 
38.905223999999997

>  <r_lp_tautomer_probability>  (1) 
1

>  <s_epik_Chemistry_Notes>  (1) 
This compound has an ester and may undergo hydrolysis at high or low pH. This compound has an imine and may undergo hydrolysis. This compound has a N-S or N-O group and may undergo hydrolysis at high or low pH.

>  <s_epik_cmdline>  (1) 
J2VwaWtfcHl0aG9uJywgJy1waHQnLCAnMS4wJywgJy1waCcsICc3LjQnLCAnLXRuJywgJzgnLCAnLW1hJywgJzUwMCcsICctaW1hZScsICc8aW5maWxlLm1hZT4nLCAnLW9tYWUnLCAnPG91dGZpbGUubWFlPic=

>  <s_epik_input>  (1) 
W0NIMl0xW0NIMl1OKFtPSF0pW0NAQEhdKEYpW0NIMl1OMUMoPU8pT1tDQEhdKEMyPU8pW0NIMl1bQ0gyXVtDQEBIXShOMjMpQz00QyhbQ0gyXVtDSDJdMyk9TltDSDJdW0NIXTQ=

>  <s_glide_docking_method>  (1) 
confgen

>  <s_i_glide_gridfile>  (1) 
gpcr_5ht2c_6bqh_protein_autoprepared_prepared

>  <s_lp_Force_Field>  (1) 
S-OPLS

>  <s_lp_Variant>  (1) 
DiffSBDD_19_num_sample_50-3

>  <s_m_source_file>  (1) 
generated__ligand_DiffSBDD_2026-05-06_prepared.sdf

>  <GenAI_Model>  (1) 
DiffSBDD

>  <Protein>  (1) 
GPCR_5HT2C

$$$$
DiffSBDD_8_num_sample_50
     RDKit          3D

  0  0  0  0  0  0  0  0  0  0999 V3000
M  V30 BEGIN CTAB
M  V30 COUNTS 69 73 0 0 1
M  V30 BEGIN ATOM
M  V30 1 C 36.119244 31.585720 59.454871 0
M  V30 2 N 39.335131 28.566385 58.006044 0
M  V30 3 C 38.625427 28.571422 54.277409 0
M  V30 4 C 38.784926 28.620852 51.737356 0
M  V30 5 C 41.268002 27.435553 56.946606 0
M  V30 6 C 37.001665 24.435883 56.143485 0
M  V30 7 C 39.067167 29.219062 53.101209 0
M  V30 8 C 38.085346 24.641916 55.283949 0
M  V30 9 C 38.130689 30.597897 58.735273 0
M  V30 10 C 39.265971 25.230536 55.767607 0
M  V30 11 N 36.858407 30.328497 59.416208 0
M  V30 12 N 40.466042 27.641681 58.142358 0
M  V30 13 C 38.601376 33.389616 60.908626 0
M  V30 14 C 35.807556 34.605677 59.879139 0
M  V30 15 N 38.271131 34.400430 59.983852 0
M  V30 16 C 39.283286 31.361176 62.654713 0
M  V30 17 C 39.772276 30.430778 53.196564 0
M  V30 18 O 39.950567 29.605647 59.930248 0
M  V30 19 C 38.438165 28.454275 56.807037 0
M  V30 20 C 38.902399 29.143082 55.539656 0
M  V30 21 O 37.186871 36.479353 59.753256 0
M  V30 22 C 37.117792 35.199446 60.337494 0 CFG=1
M  V30 23 N 37.997535 31.433113 62.251594 0
M  V30 24 O 38.667409 27.221432 51.726626 0
M  V30 25 C 37.094232 24.821430 57.489905 0
M  V30 26 C 40.582727 26.277695 57.630130 0 CFG=1
M  V30 27 C 35.347210 33.553789 60.872153 0
M  V30 28 C 39.925378 33.304051 61.375227 0
M  V30 29 C 40.036823 30.990803 54.456410 0
M  V30 30 C 39.212885 29.537755 58.944482 0
M  V30 31 C 39.360484 25.619989 57.120123 0
M  V30 32 F 35.867976 23.867434 55.675638 0
M  V30 33 C 39.607832 30.352183 55.618084 0
M  V30 34 C 37.660171 32.404608 61.369970 0
M  V30 35 C 36.221618 32.305619 60.821134 0 CFG=2
M  V30 36 C 40.272193 32.273282 62.256525 0
M  V30 37 C 38.267923 25.403997 57.976190 0
M  V30 38 H 36.451838 32.243548 58.653558 0
M  V30 39 H 35.071955 31.364422 59.246417 0
M  V30 40 H 38.080444 27.640995 54.213021 0
M  V30 41 H 37.867405 29.054043 51.358544 0
M  V30 42 H 39.581084 28.899574 51.046031 0
M  V30 43 H 40.902878 27.700782 55.960570 0
M  V30 44 H 42.345418 27.520400 57.069352 0
M  V30 45 H 38.012190 24.348822 54.253507 0
M  V30 46 H 37.941379 30.839776 57.692307 0
M  V30 47 H 38.584694 31.508627 59.113893 0
M  V30 48 H 40.098193 25.394844 55.099368 0
M  V30 49 H 36.311208 29.670050 58.880787 0
M  V30 50 H 35.857813 34.253429 58.849661 0
M  V30 51 H 35.067498 35.387890 59.849539 0
M  V30 52 H 39.055519 34.956326 59.676103 0
M  V30 53 H 39.526580 30.555486 63.331822 0
M  V30 54 H 40.110824 30.933041 52.301515 0
M  V30 55 H 38.083108 27.478223 56.541191 0
M  V30 56 H 37.467392 28.886933 57.036397 0
M  V30 57 H 36.812008 36.421448 58.885149 0
M  V30 58 H 37.109289 35.359336 61.417106 0
M  V30 59 H 37.757088 26.987147 51.854294 0
M  V30 60 H 36.267404 24.674632 58.154452 0
M  V30 61 H 41.159773 25.600795 58.253497 0
M  V30 62 H 35.319736 33.960455 61.884236 0
M  V30 63 H 34.319072 33.278275 60.632154 0
M  V30 64 H 40.667920 34.016536 61.050606 0
M  V30 65 H 40.572320 31.911825 54.535385 0
M  V30 66 H 39.825508 30.794248 56.575788 0
M  V30 67 H 35.718178 31.627914 61.512220 0
M  V30 68 H 41.283922 32.179262 62.620400 0
M  V30 69 H 38.329473 25.704399 59.011792 0
M  V30 END ATOM
M  V30 BEGIN BOND
M  V30 1 2 7 3
M  V30 2 1 7 4
M  V30 3 1 8 6
M  V30 4 2 10 8
M  V30 5 1 11 1
M  V30 6 1 11 9
M  V30 7 1 12 2
M  V30 8 1 12 5
M  V30 9 1 15 13
M  V30 10 1 17 7
M  V30 11 1 19 2
M  V30 12 1 20 3
M  V30 13 1 20 19
M  V30 14 1 22 14
M  V30 15 1 22 15
M  V30 16 1 22 21
M  V30 17 1 23 16
M  V30 18 1 24 4
M  V30 19 2 25 6
M  V30 20 1 26 5
M  V30 21 1 26 12
M  V30 22 1 27 14
M  V30 23 2 28 13
M  V30 24 2 29 17
M  V30 25 1 30 2
M  V30 26 1 30 9
M  V30 27 2 30 18
M  V30 28 1 31 10
M  V30 29 1 31 26
M  V30 30 1 32 6
M  V30 31 2 33 20
M  V30 32 1 33 29
M  V30 33 1 34 13
M  V30 34 2 34 23
M  V30 35 1 35 1
M  V30 36 1 35 27
M  V30 37 1 35 34
M  V30 38 2 36 16
M  V30 39 1 36 28
M  V30 40 1 37 25
M  V30 41 2 37 31
M  V30 42 1 38 1
M  V30 43 1 39 1
M  V30 44 1 40 3
M  V30 45 1 41 4
M  V30 46 1 42 4
M  V30 47 1 43 5
M  V30 48 1 44 5
M  V30 49 1 45 8
M  V30 50 1 46 9
M  V30 51 1 47 9
M  V30 52 1 48 10
M  V30 53 1 49 11
M  V30 54 1 50 14
M  V30 55 1 51 14
M  V30 56 1 52 15
M  V30 57 1 53 16
M  V30 58 1 54 17
M  V30 59 1 55 19
M  V30 60 1 56 19
M  V30 61 1 57 21
M  V30 62 1 22 58 CFG=1
M  V30 63 1 59 24
M  V30 64 1 60 25
M  V30 65 1 26 61 CFG=1
M  V30 66 1 62 27
M  V30 67 1 63 27
M  V30 68 1 64 28
M  V30 69 1 65 29
M  V30 70 1 66 33
M  V30 71 1 35 67 CFG=1
M  V30 72 1 68 36
M  V30 73 1 69 37
M  V30 END BOND
M  V30 END CTAB
M  END
>  <i_epik_Tot_Q>  (1) 
0

>  <i_epik_Tot_abs_Q>  (1) 
0

>  <i_i_glide_confnum>  (1) 
2445

>  <i_i_glide_lignum>  (1) 
30

>  <i_i_glide_posenum>  (1) 
214

>  <i_i_glide_rotatable_bonds>  (1) 
12

>  <i_lp_mmshare_version>  (1) 
72125

>  <i_m_source_file_index>  (1) 
9

>  <i_f3d_flags>  (1) 
0

>  <num_sample>  (1) 
50

>  <b_lp_Chiralities_Consistent>  (1) 
1

>  <r_epik_Charging_Adjusted_Penalty>  (1) 
1.1060706723907541

>  <r_epik_Ionization_Penalty>  (1) 
1.1273273106042034

>  <r_epik_Ionization_Penalty_Charging>  (1) 
0

>  <r_epik_Ionization_Penalty_Neutral>  (1) 
1.1273273106042034

>  <r_epik_State_Penalty>  (1) 
1.1060706723907541

>  <r_glide_ring_energy>  (1) 
0

>  <r_i_docking_score>  (1) 
-7.7627005504524753

>  <r_i_glide_ecoul>  (1) 
-6.1056995615266221

>  <r_i_glide_eff_state_penalty>  (1) 
1.1060706723907541

>  <r_i_glide_einternal>  (1) 
12.924577711696379

>  <r_i_glide_emodel>  (1) 
-74.988689297581629

>  <r_i_glide_emodel_strain>  (1) 
1.9494353883278848

>  <r_i_glide_energy>  (1) 
-53.930173269664742

>  <r_i_glide_erotb>  (1) 
0.80016093564374513

>  <r_i_glide_esite>  (1) 
0

>  <r_i_glide_evdw>  (1) 
-47.824473708138122

>  <r_i_glide_gscore>  (1) 
-8.8687712228432289

>  <r_i_glide_gscore_strain>  (1) 
0

>  <r_i_glide_hbond>  (1) 
-0.32073792358404296

>  <r_i_glide_ligand_efficiency>  (1) 
-0.20980271757979663

>  <r_i_glide_ligand_efficiency_ln>  (1) 
-1.68354776587224

>  <r_i_glide_ligand_efficiency_sa>  (1) 
-0.69910920005410304

>  <r_i_glide_lipo>  (1) 
-4.8710946305295497

>  <r_i_glide_metal>  (1) 
-0

>  <r_i_glide_rewards>  (1) 
-1.1700209847374845

>  <r_lp_Energy>  (1) 
58.402149999999999

>  <r_lp_tautomer_probability>  (1) 
0.99999999999999911

>  <s_epik_Chemistry_Notes>  (1) 
This compound contains an acetal/aminal-like group ( X-CH(R)-Y where X, Y are N, S, or O) that may be acid/base labile, releasing an aldehyde.

>  <s_epik_cmdline>  (1) 
J2VwaWtfcHl0aG9uJywgJy1waHQnLCAnMS4wJywgJy1waCcsICc3LjQnLCAnLXRuJywgJzgnLCAnLW1hJywgJzUwMCcsICctaW1hZScsICc8aW5maWxlLm1hZT4nLCAnLW9tYWUnLCAnPG91dGZpbGUubWFlPic=

>  <s_epik_input>  (1) 
W2NIXTFbY0hdW2NIXW5jKGMxMilbQ0BASF0oW0NIMl1bQ0gyXVtDQEBIXShbTkhdMilbT0hdKVtDSDJdW05IXVtDSDJdQyg9TylOKFtDSDJdYyhbY0hdW2NIXVtjSF0zKVtjSF1jM1tDSDJdW09IXSlONFtDSDJdW0NAQEhdNGMoW2NIXVtjSF01KVtjSF1bY0hdYzVG

>  <s_glide_docking_method>  (1) 
confgen

>  <s_i_glide_gridfile>  (1) 
gpcr_5ht2c_6bqh_protein_autoprepared_prepared

>  <s_lp_Force_Field>  (1) 
S-OPLS

>  <s_lp_Variant>  (1) 
DiffSBDD_8_num_sample_50-2

>  <s_m_source_file>  (1) 
generated__ligand_DiffSBDD_2026-05-06_prepared.sdf

>  <GenAI_Model>  (1) 
DiffSBDD

>  <Protein>  (1) 
GPCR_5HT2C

$$$$
DiffSBDD_28_num_sample_50
     RDKit          3D

  0  0  0  0  0  0  0  0  0  0999 V3000
M  V30 BEGIN CTAB
M  V30 COUNTS 93 98 0 0 1
M  V30 BEGIN ATOM
M  V30 1 C 39.901592 29.191912 49.835245 0
M  V30 2 C 40.614788 26.641988 57.799315 0
M  V30 3 O 43.593926 31.837944 68.363140 0
M  V30 4 C 40.633659 30.804885 62.996564 0 CFG=1
M  V30 5 C 41.436790 27.747208 58.466015 0 CFG=2
M  V30 6 C 40.770997 33.397708 62.989448 0
M  V30 7 C 38.905146 29.794603 54.514116 0
M  V30 8 O 43.688682 28.155027 64.278073 0
M  V30 9 C 40.001663 30.670442 50.134649 0
M  V30 10 C 42.443424 31.114616 67.965922 0 CFG=1
M  V30 11 C 37.922262 30.500936 55.269215 0
M  V30 12 N 39.842301 29.621422 59.454923 0
M  V30 13 C 42.462710 28.920342 68.693298 0
M  V30 14 C 36.524006 31.175395 60.031844 0
M  V30 15 C 41.256217 29.595468 69.354096 0
M  V30 16 C 39.312875 27.364373 58.177707 0 CFG=1
M  V30 17 C 39.073614 28.580822 55.136768 0
M  V30 18 O 38.390785 29.751705 59.482028 0
M  V30 19 O 45.067418 28.021420 63.853522 0
M  V30 20 O 43.696573 27.221430 57.853469 0
M  V30 21 C 39.621406 30.288203 53.287230 0
M  V30 22 C 41.510512 32.069662 63.208830 0
M  V30 23 C 40.069187 30.722145 61.552882 0 CFG=2
M  V30 24 C 44.196838 30.184020 65.564283 0
M  V30 25 O 42.012321 29.741560 64.611290 0
M  V30 26 N 38.240012 28.532068 56.241132 0
M  V30 27 C 37.536504 29.713686 56.311927 0
M  V30 28 C 40.170951 28.623377 58.426250 0 CFG=2
M  V30 29 C 38.582509 31.108839 61.484166 0
M  V30 30 C 41.106945 31.781406 67.819723 0
M  V30 31 C 42.698005 28.214462 57.758654 0
M  V30 32 C 38.051833 31.030697 60.034466 0 CFG=2
M  V30 33 O 38.546999 32.125334 59.289359 0
M  V30 34 O 38.587728 25.415146 55.924263 0
M  V30 35 N 42.738641 29.752837 67.526768 0
M  V30 36 C 37.767876 26.052431 56.585578 0
M  V30 37 C 38.125468 27.421788 57.187934 0 CFG=1
M  V30 38 C 41.467413 31.064230 69.107554 0 CFG=2
M  V30 39 C 40.252563 29.368463 60.830812 0
M  V30 40 C 43.396316 29.534955 64.413905 0 CFG=2
M  V30 41 C 40.424030 29.650951 51.166227 0
M  V30 42 C 44.041638 29.482231 66.926570 0
M  V30 43 O 41.355889 29.612904 63.272317 0
M  V30 44 O 39.490722 29.388630 52.200511 0
M  V30 45 H 40.599135 28.821431 49.089416 0
M  V30 46 H 38.931268 28.703484 49.853503 0
M  V30 47 H 40.787649 26.598792 56.723404 0
M  V30 48 H 40.722293 25.656482 58.252632 0
M  V30 49 H 43.659858 32.609459 67.822272 0
M  V30 50 H 39.812336 30.827051 63.714746 0
M  V30 51 H 41.656189 27.476116 59.492649 0
M  V30 52 H 41.401906 34.242429 63.267661 0
M  V30 53 H 40.482301 33.537882 61.947674 0
M  V30 54 H 39.867703 33.445286 63.596717 0
M  V30 55 H 39.067416 31.209337 50.253722 0
M  V30 56 H 40.791850 31.221510 49.629429 0
M  V30 57 H 37.539845 31.492009 55.068719 0
M  V30 58 H 42.263214 27.884101 68.418240 0
M  V30 59 H 43.316472 28.941937 69.372614 0
M  V30 60 H 36.109478 31.076581 59.031635 0
M  V30 61 H 36.049263 30.421429 60.653490 0
M  V30 62 H 36.219459 32.148584 60.418823 0
M  V30 63 H 40.335040 29.269169 68.870798 0
M  V30 64 H 41.186171 29.376833 70.419340 0
M  V30 65 H 38.982858 26.975624 59.142144 0
M  V30 66 H 39.718603 27.747539 54.898578 0
M  V30 67 H 45.505229 27.928817 64.685934 0
M  V30 68 H 43.360457 26.401011 57.502267 0
M  V30 69 H 39.240197 31.271698 53.009861 0
M  V30 70 H 40.667400 30.421302 53.556587 0
M  V30 71 H 41.892818 32.093650 64.228836 0
M  V30 72 H 42.386212 32.030497 62.560431 0
M  V30 73 H 40.626053 31.446897 60.956945 0
M  V30 74 H 45.255133 30.175709 65.303878 0
M  V30 75 H 43.937033 31.239810 65.639921 0
M  V30 76 H 36.822938 29.887126 57.104424 0
M  V30 77 H 40.236392 29.208635 57.509979 0
M  V30 78 H 38.015671 30.421833 62.114001 0
M  V30 79 H 38.418664 32.104926 61.895147 0
M  V30 80 H 40.377152 31.309611 67.164252 0
M  V30 81 H 41.079647 32.868748 67.836780 0
M  V30 82 H 42.499684 28.421429 56.707185 0
M  V30 83 H 43.069628 29.134795 58.209025 0
M  V30 84 H 38.127957 32.106129 58.440463 0
M  V30 85 H 36.754917 25.703285 56.784455 0
M  V30 86 H 37.246586 27.663965 57.786591 0
M  V30 87 H 41.684729 31.671606 69.984657 0
M  V30 88 H 41.301854 29.081763 60.858352 0
M  V30 89 H 39.669047 28.563989 61.280352 0
M  V30 90 H 43.675829 30.040218 63.486634 0
M  V30 91 H 41.467305 29.457546 51.399495 0
M  V30 92 H 44.155414 28.405908 66.794326 0
M  V30 93 H 44.837196 29.788509 67.606702 0
M  V30 END ATOM
M  V30 BEGIN BOND
M  V30 1 1 5 2
M  V30 2 1 9 1
M  V30 3 1 10 3 CFG=1
M  V30 4 1 11 7
M  V30 5 1 15 13
M  V30 6 1 16 2
M  V30 7 2 17 7
M  V30 8 1 18 12
M  V30 9 1 19 8
M  V30 10 1 21 7
M  V30 11 1 22 4
M  V30 12 1 22 6
M  V30 13 1 23 4
M  V30 14 1 26 17
M  V30 15 2 27 11
M  V30 16 1 27 26
M  V30 17 1 28 5
M  V30 18 1 28 12
M  V30 19 1 28 16
M  V30 20 1 29 23
M  V30 21 1 30 10
M  V30 22 1 31 5
M  V30 23 1 31 20
M  V30 24 1 32 14
M  V30 25 1 32 18
M  V30 26 1 32 29
M  V30 27 1 32 33 CFG=3
M  V30 28 1 35 10
M  V30 29 1 35 13
M  V30 30 2 36 34
M  V30 31 1 37 16
M  V30 32 1 37 26
M  V30 33 1 37 36
M  V30 34 1 38 10
M  V30 35 1 38 15
M  V30 36 1 38 30
M  V30 37 1 39 12
M  V30 38 1 39 23
M  V30 39 1 40 8
M  V30 40 1 40 24
M  V30 41 1 40 25
M  V30 42 1 41 1
M  V30 43 1 41 9
M  V30 44 1 42 24
M  V30 45 1 42 35
M  V30 46 1 43 4
M  V30 47 1 43 25
M  V30 48 1 44 21
M  V30 49 1 44 41
M  V30 50 1 45 1
M  V30 51 1 46 1
M  V30 52 1 47 2
M  V30 53 1 48 2
M  V30 54 1 49 3
M  V30 55 1 4 50 CFG=1
M  V30 56 1 5 51 CFG=1
M  V30 57 1 52 6
M  V30 58 1 53 6
M  V30 59 1 54 6
M  V30 60 1 55 9
M  V30 61 1 56 9
M  V30 62 1 57 11
M  V30 63 1 58 13
M  V30 64 1 59 13
M  V30 65 1 60 14
M  V30 66 1 61 14
M  V30 67 1 62 14
M  V30 68 1 63 15
M  V30 69 1 64 15
M  V30 70 1 16 65 CFG=1
M  V30 71 1 66 17
M  V30 72 1 67 19
M  V30 73 1 68 20
M  V30 74 1 69 21
M  V30 75 1 70 21
M  V30 76 1 71 22
M  V30 77 1 72 22
M  V30 78 1 23 73 CFG=3
M  V30 79 1 74 24
M  V30 80 1 75 24
M  V30 81 1 76 27
M  V30 82 1 28 77 CFG=3
M  V30 83 1 78 29
M  V30 84 1 79 29
M  V30 85 1 80 30
M  V30 86 1 81 30
M  V30 87 1 82 31
M  V30 88 1 83 31
M  V30 89 1 84 33
M  V30 90 1 85 36
M  V30 91 1 37 86 CFG=1
M  V30 92 1 38 87 CFG=1
M  V30 93 1 88 39
M  V30 94 1 89 39
M  V30 95 1 40 90 CFG=3
M  V30 96 1 91 41
M  V30 97 1 92 42
M  V30 98 1 93 42
M  V30 END BOND
M  V30 END CTAB
M  END
>  <i_epik_Tot_Q>  (1) 
0

>  <i_epik_Tot_abs_Q>  (1) 
0

>  <i_i_glide_confnum>  (1) 
5194

>  <i_i_glide_lignum>  (1) 
71

>  <i_i_glide_posenum>  (1) 
196

>  <i_i_glide_rotatable_bonds>  (1) 
21

>  <i_lp_mmshare_version>  (1) 
72125

>  <i_m_source_file_index>  (1) 
29

>  <i_f3d_flags>  (1) 
2

>  <num_sample>  (1) 
50

>  <b_lp_Chiralities_Consistent>  (1) 
0

>  <r_epik_Charging_Adjusted_Penalty>  (1) 
0.25482057645041689

>  <r_epik_Ionization_Penalty>  (1) 
0.26872052639311422

>  <r_epik_Ionization_Penalty_Charging>  (1) 
0

>  <r_epik_Ionization_Penalty_Neutral>  (1) 
0.26872052639311422

>  <r_epik_State_Penalty>  (1) 
0.25482057645041689

>  <r_glide_ring_energy>  (1) 
0

>  <r_i_docking_score>  (1) 
-7.7620876085096242

>  <r_i_glide_ecoul>  (1) 
-3.0989930192026423

>  <r_i_glide_eff_state_penalty>  (1) 
0.25482057645041689

>  <r_i_glide_einternal>  (1) 
28.821044516200921

>  <r_i_glide_emodel>  (1) 
-72.735224214272904

>  <r_i_glide_emodel_strain>  (1) 
0

>  <r_i_glide_energy>  (1) 
-59.820374327169922

>  <r_i_glide_erotb>  (1) 
0.67974203347384798

>  <r_i_glide_esite>  (1) 
-0.031173060905993366

>  <r_i_glide_evdw>  (1) 
-56.721381307967278

>  <r_i_glide_gscore>  (1) 
-8.016908184960041

>  <r_i_glide_gscore_strain>  (1) 
0

>  <r_i_glide_hbond>  (1) 
-0.32000000000000001

>  <r_i_glide_ligand_efficiency>  (1) 
-0.17641108201158237

>  <r_i_glide_ligand_efficiency_ln>  (1) 
-1.6224456391692939

>  <r_i_glide_ligand_efficiency_sa>  (1) 
-0.62279256971265951

>  <r_i_glide_lipo>  (1) 
-3.9548194862966093

>  <r_i_glide_metal>  (1) 
-0

>  <r_i_glide_rewards>  (1) 
-1.0897396529525238

>  <r_lp_Energy>  (1) 
27.722360999999999

>  <s_epik_Chemistry_Notes>  (1) 
This compound contains an acetal/aminal-like group ( X-CH(R)-Y where X, Y are N, S, or O) that may be acid/base labile, releasing an aldehyde. This compound has a N-S or N-O group and may undergo hydrolysis at high or low pH.

>  <s_epik_cmdline>  (1) 
J2VwaWtfcHl0aG9uJywgJy1waHQnLCAnMS4wJywgJy1waCcsICc3LjQnLCAnLXRuJywgJzgnLCAnLW1hJywgJzUwMCcsICctaW1hZScsICc8aW5maWxlLm1hZT4nLCAnLW9tYWUnLCAnPG91dGZpbGUubWFlPic=

>  <s_epik_input>  (1) 
W0NIMl0xW0NIMl1bQ0hdMU9bQ0gyXWMyW2NIXVtjSF1uKFtjSF0yKVtDQEBIXShbQ0hdPU8pW0NAQEhdKFtDSDJdW0NASF0zW0NIMl1bT0hdKVtDQEhdM04oT1tDQF00KFtDSDNdKVtPSF0pW0NIMl1bQ0BASF0oW0NIMl00KVtDQEhdKFtDSDJdW0NIM10pT09bQ0BIXShPW09IXSlbQ0gyXVtDSDJdTjVbQ0gyXVtDSDJdW0NASF0oW0NIMl02KVtDQEBdNTZbT0hd

>  <s_glide_docking_method>  (1) 
confgen

>  <s_i_glide_gridfile>  (1) 
gpcr_5ht2c_6bqh_protein_autoprepared_prepared

>  <s_lp_Force_Field>  (1) 
S-OPLS

>  <s_lp_Variant>  (1) 
DiffSBDD_28_num_sample_50-1

>  <s_m_source_file>  (1) 
generated__ligand_DiffSBDD_2026-05-06_prepared.sdf

>  <GenAI_Model>  (1) 
DiffSBDD

>  <Protein>  (1) 
GPCR_5HT2C

$$$$
DiffSBDD_44_num_sample_50
     RDKit          3D

  0  0  0  0  0  0  0  0  0  0999 V3000
M  V30 BEGIN CTAB
M  V30 COUNTS 65 67 0 0 1
M  V30 BEGIN ATOM
M  V30 1 C 42.859297 31.175462 65.363221 0
M  V30 2 C 39.672831 30.080074 54.547420 0
M  V30 3 C 39.808462 33.352731 62.477110 0
M  V30 4 O 37.867407 33.795909 57.506123 0
M  V30 5 O 42.708751 29.251706 63.909181 0
M  V30 6 C 39.002581 32.237646 61.846270 0
M  V30 7 F 40.172022 37.024202 62.405837 0
M  V30 8 C 38.791732 28.981583 52.538808 0
M  V30 9 C 38.753661 29.159707 56.901135 0 CFG=2
M  V30 10 O 36.684580 28.021425 52.653579 0
M  V30 11 C 41.344009 31.405221 65.174719 0
M  V30 12 C 40.371571 35.728252 62.745999 0
M  V30 13 C 43.413512 29.940451 64.644795 0
M  V30 14 C 39.600581 29.904801 53.092178 0
M  V30 15 O 40.267403 31.011912 55.075683 0
M  V30 16 O 40.974860 31.712905 63.828695 0
M  V30 17 O 37.067985 35.469414 59.493476 0
M  V30 18 C 37.709959 28.468131 54.656945 0
M  V30 19 C 38.091784 33.525421 56.128235 0
M  V30 20 C 44.880977 29.600968 64.879657 0
M  V30 21 O 39.978459 29.066778 57.605670 0
M  V30 22 C 41.332217 35.399384 63.713255 0
M  V30 23 C 38.981663 28.971022 55.379587 0 CFG=1
M  V30 24 C 38.076731 33.359699 59.832532 0 CFG=2
M  V30 25 C 39.611228 34.717983 62.130259 0
M  V30 26 C 38.627847 31.491053 58.067080 0
M  V30 27 C 40.777325 33.031879 63.469086 0
M  V30 28 C 39.776394 29.919823 50.869892 0
M  V30 29 C 37.878113 30.357423 57.340944 0
M  V30 30 O 38.855279 28.932560 51.182035 0
M  V30 31 N 37.931102 28.148287 53.249449 0
M  V30 32 O 36.987057 34.203993 60.213917 0
M  V30 33 C 41.535385 34.060953 64.078234 0
M  V30 34 C 37.749059 32.719702 58.446160 0 CFG=2
M  V30 35 N 38.204596 32.320422 60.843078 0
M  V30 36 C 40.244208 30.542218 52.004037 0
M  V30 37 H 43.433069 32.045466 65.052495 0
M  V30 38 H 43.063005 31.046010 66.427865 0
M  V30 39 H 39.132863 31.260403 62.316513 0
M  V30 40 H 38.207993 28.271561 57.220869 0
M  V30 41 H 36.687211 27.184735 52.191056 0
M  V30 42 H 40.992282 32.170538 65.866928 0
M  V30 43 H 40.804857 30.503258 65.461276 0
M  V30 44 H 36.757383 35.208817 58.633948 0
M  V30 45 H 37.363635 27.554359 55.138890 0
M  V30 46 H 36.914368 29.209109 54.746750 0
M  V30 47 H 37.467404 32.732226 55.735299 0
M  V30 48 H 37.885101 34.416281 55.543461 0
M  V30 49 H 39.132233 33.274091 55.935020 0
M  V30 50 H 45.509375 30.472918 64.701147 0
M  V30 51 H 45.037655 29.271028 65.907478 0
M  V30 52 H 45.199518 28.802455 64.208506 0
M  V30 53 H 40.413941 28.262156 57.367098 0
M  V30 54 H 41.913477 36.178734 64.181581 0
M  V30 55 H 39.684078 28.139161 55.303258 0
M  V30 56 H 39.017625 33.898311 59.708477 0
M  V30 57 H 38.873898 34.999219 61.410536 0
M  V30 58 H 39.467641 31.809859 57.467052 0
M  V30 59 H 39.066190 31.038457 58.951833 0
M  V30 60 H 39.968760 30.047224 49.814420 0
M  V30 61 H 37.102850 29.988449 58.015587 0
M  V30 62 H 37.341286 30.736497 56.476093 0
M  V30 63 H 42.273658 33.822886 64.827197 0
M  V30 64 H 36.710755 32.397622 58.488330 0
M  V30 65 H 40.963750 31.344213 52.037377 0
M  V30 END ATOM
M  V30 BEGIN BOND
M  V30 1 1 6 3
M  V30 2 1 11 1
M  V30 3 1 12 7
M  V30 4 1 13 1
M  V30 5 2 13 5
M  V30 6 1 14 2
M  V30 7 2 14 8
M  V30 8 2 15 2
M  V30 9 1 16 11
M  V30 10 1 19 4
M  V30 11 1 20 13
M  V30 12 1 21 9
M  V30 13 1 22 12
M  V30 14 1 23 2
M  V30 15 1 23 9
M  V30 16 1 23 18
M  V30 17 1 25 3
M  V30 18 2 25 12
M  V30 19 2 27 3
M  V30 20 1 27 16
M  V30 21 1 29 9
M  V30 22 1 29 26
M  V30 23 1 30 8
M  V30 24 1 30 28
M  V30 25 1 31 8
M  V30 26 1 31 10
M  V30 27 1 31 18
M  V30 28 1 32 17
M  V30 29 1 32 24
M  V30 30 2 33 22
M  V30 31 1 33 27
M  V30 32 1 34 4
M  V30 33 1 34 24
M  V30 34 1 34 26
M  V30 35 2 35 6
M  V30 36 1 35 24
M  V30 37 1 36 14
M  V30 38 2 36 28
M  V30 39 1 37 1
M  V30 40 1 38 1
M  V30 41 1 39 6
M  V30 42 1 9 40 CFG=1
M  V30 43 1 41 10
M  V30 44 1 42 11
M  V30 45 1 43 11
M  V30 46 1 44 17
M  V30 47 1 45 18
M  V30 48 1 46 18
M  V30 49 1 47 19
M  V30 50 1 48 19
M  V30 51 1 49 19
M  V30 52 1 50 20
M  V30 53 1 51 20
M  V30 54 1 52 20
M  V30 55 1 53 21
M  V30 56 1 54 22
M  V30 57 1 23 55 CFG=1
M  V30 58 1 24 56 CFG=3
M  V30 59 1 57 25
M  V30 60 1 58 26
M  V30 61 1 59 26
M  V30 62 1 60 28
M  V30 63 1 61 29
M  V30 64 1 62 29
M  V30 65 1 63 33
M  V30 66 1 34 64 CFG=1
M  V30 67 1 65 36
M  V30 END BOND
M  V30 END CTAB
M  END
>  <i_epik_Tot_Q>  (1) 
0

>  <i_epik_Tot_abs_Q>  (1) 
0

>  <i_i_glide_confnum>  (1) 
896

>  <i_i_glide_lignum>  (1) 
103

>  <i_i_glide_posenum>  (1) 
174

>  <i_i_glide_rotatable_bonds>  (1) 
16

>  <i_lp_mmshare_version>  (1) 
72125

>  <i_m_source_file_index>  (1) 
45

>  <i_f3d_flags>  (1) 
0

>  <num_sample>  (1) 
50

>  <b_lp_Chiralities_Consistent>  (1) 
1

>  <r_epik_Charging_Adjusted_Penalty>  (1) 
0

>  <r_epik_Ionization_Penalty>  (1) 
0.00046426775496228489

>  <r_epik_Ionization_Penalty_Charging>  (1) 
0

>  <r_epik_Ionization_Penalty_Neutral>  (1) 
0.00046426775496228489

>  <r_epik_State_Penalty>  (1) 
-0

>  <r_glide_ring_energy>  (1) 
0

>  <r_i_docking_score>  (1) 
-7.7493266754766816

>  <r_i_glide_ecoul>  (1) 
-7.3254061614344046

>  <r_i_glide_eff_state_penalty>  (1) 
-0

>  <r_i_glide_einternal>  (1) 
18.430338399792522

>  <r_i_glide_emodel>  (1) 
-66.347914670286883

>  <r_i_glide_emodel_strain>  (1) 
3.0467964841053146

>  <r_i_glide_energy>  (1) 
-50.814992411144246

>  <r_i_glide_erotb>  (1) 
0.87096195952989475

>  <r_i_glide_esite>  (1) 
0

>  <r_i_glide_evdw>  (1) 
-43.489586249709845

>  <r_i_glide_gscore>  (1) 
-7.7493266754766816

>  <r_i_glide_gscore_strain>  (1) 
0

>  <r_i_glide_hbond>  (1) 
-0.31565086579420254

>  <r_i_glide_ligand_efficiency>  (1) 
-0.21525907431879671

>  <r_i_glide_ligand_efficiency_ln>  (1) 
-1.6906937179770718

>  <r_i_glide_ligand_efficiency_sa>  (1) 
-0.71076980306506854

>  <r_i_glide_lipo>  (1) 
-3.0914026962449177

>  <r_i_glide_metal>  (1) 
-0

>  <r_i_glide_rewards>  (1) 
-1.9399448362668041

>  <r_lp_Energy>  (1) 
33.654626

>  <r_lp_tautomer_probability>  (1) 
1

>  <s_epik_Chemistry_Notes>  (1) 
This compound has an imine and may undergo hydrolysis. This compound contains an acetal/aminal-like group ( X-CH(R)-Y where X, Y are N, S, or O) that may be acid/base labile, releasing an aldehyde. This compound has a N-S or N-O group and may undergo hydrolysis at high or low pH.

>  <s_epik_cmdline>  (1) 
J2VwaWtfcHl0aG9uJywgJy1waHQnLCAnMS4wJywgJy1waCcsICc3LjQnLCAnLXRuJywgJzgnLCAnLW1hJywgJzUwMCcsICctaW1hZScsICc8aW5maWxlLm1hZT4nLCAnLW9tYWUnLCAnPG91dGZpbGUubWFlPic=

>  <s_epik_input>  (1) 
Tz1DKFtDSDNdKVtDSDJdW0NIMl1PYzFbY0hdW2NIXWMoRilbY0hdYzEvW0NIXT1OXFtDQEhdKE9bT0hdKVtDQEBIXShPW0NIM10pW0NIMl1bQ0gyXVtDQEhdKFtPSF0pW0NAQEhdKFtDSDJdTjJbT0hdKUMoPU8pYyhjMjMpW2NIXVtjSF1vMw==

>  <s_glide_docking_method>  (1) 
confgen

>  <s_i_glide_gridfile>  (1) 
gpcr_5ht2c_6bqh_protein_autoprepared_prepared

>  <s_lp_Force_Field>  (1) 
S-OPLS

>  <s_lp_Variant>  (1) 
DiffSBDD_44_num_sample_50-2

>  <s_m_source_file>  (1) 
generated__ligand_DiffSBDD_2026-05-06_prepared.sdf

>  <GenAI_Model>  (1) 
DiffSBDD

>  <Protein>  (1) 
GPCR_5HT2C

$$$$
DiffSBDD_23_num_sample_50
     RDKit          3D

  0  0  0  0  0  0  0  0  0  0999 V3000
M  V30 BEGIN CTAB
M  V30 COUNTS 61 65 0 0 1
M  V30 BEGIN ATOM
M  V30 1 C 42.222457 30.484344 63.894841 0
M  V30 2 C 38.994590 28.784811 51.242038 0 CFG=2
M  V30 3 C 39.027876 30.631793 60.318190 0
M  V30 4 C 38.373434 27.161230 57.847228 0 CFG=1
M  V30 5 S 37.467403 29.530224 55.031181 0
M  V30 6 C 39.649413 29.954922 61.382312 0
M  V30 7 C 40.862978 29.913695 63.577177 0
M  V30 8 N 39.175200 31.400162 54.561776 0
M  V30 9 C 38.391752 29.476035 53.548917 0
M  V30 10 C 40.135392 30.826636 52.313858 0
M  V30 11 S 38.765141 26.095168 55.400115 0
M  V30 12 O 39.467403 24.821448 55.569394 0
M  V30 13 C 39.492215 32.764375 61.392446 0
M  V30 14 C 38.225335 28.394002 52.532385 0 CFG=2
M  V30 15 N 39.241891 27.175467 56.657527 0
M  V30 16 C 38.946323 32.029354 60.325482 0
M  V30 17 C 40.205385 30.677625 62.462619 0
M  V30 18 C 41.031581 28.185987 58.078600 0
M  V30 19 C 42.041320 31.495981 65.001034 0
M  V30 20 O 42.493627 31.264608 66.120680 0
M  V30 21 Cl 38.267403 25.435009 58.253501 0
M  V30 22 C 40.692558 32.988114 63.588754 0
M  V30 23 S 38.349328 29.724219 58.953705 0
M  V30 24 N 39.456314 26.885856 54.077309 0
M  V30 25 O 37.303555 26.152274 55.256856 0
M  V30 26 N 41.365247 32.646383 64.633274 0
M  V30 27 C 40.687054 27.252433 56.920627 0
M  V30 28 C 39.237796 30.543299 53.453895 0
M  V30 29 C 38.280275 31.000865 55.453193 0
M  V30 30 O 40.293367 27.809583 59.221708 0
M  V30 31 C 40.133983 32.112512 62.475361 0
M  V30 32 N 38.636520 27.067937 52.975225 0
M  V30 33 N 39.166058 27.626790 50.362926 0 CHG=1
M  V30 34 C 38.896050 27.989036 59.050526 0 CFG=2
M  V30 35 C 40.308508 29.576655 51.424288 0
M  V30 36 H 42.736949 30.905423 63.030804 0
M  V30 37 H 42.863562 29.688008 64.276240 0
M  V30 38 H 38.347717 29.462620 50.700370 0
M  V30 39 H 37.366259 27.476297 57.571884 0
M  V30 40 H 39.706307 28.878231 61.376833 0
M  V30 41 H 40.987405 28.873874 63.272137 0
M  V30 42 H 40.195307 29.883903 64.441644 0
M  V30 43 H 39.701462 31.621436 51.708757 0
M  V30 44 H 41.067403 31.221430 52.680648 0
M  V30 45 H 39.422463 33.842292 61.382746 0
M  V30 46 H 37.166555 28.316855 52.279910 0
M  V30 47 H 38.465287 32.545312 59.506900 0
M  V30 48 H 40.832153 29.221432 57.813206 0
M  V30 49 H 42.095816 28.120309 58.305906 0
M  V30 50 H 40.472526 34.051284 63.461645 0
M  V30 51 H 40.318636 26.418517 53.801105 0
M  V30 52 H 41.194723 27.590421 56.020977 0
M  V30 53 H 41.058120 26.254464 57.148103 0
M  V30 54 H 38.099696 31.573042 56.352723 0
M  V30 55 H 37.821114 26.457789 53.049447 0
M  V30 56 H 39.831070 26.987237 50.770835 0
M  V30 57 H 38.282809 27.147489 50.263476 0
M  V30 58 H 38.422991 27.607785 59.954191 0
M  V30 59 H 40.714035 29.880127 50.458240 0
M  V30 60 H 41.055521 28.912797 51.853501 0
M  V30 61 H 39.487042 27.930410 49.455297 0
M  V30 END ATOM
M  V30 BEGIN BOND
M  V30 1 2 6 3
M  V30 2 1 7 1
M  V30 3 1 9 5
M  V30 4 2 12 11
M  V30 5 1 14 2
M  V30 6 1 14 9
M  V30 7 1 15 4
M  V30 8 1 15 11
M  V30 9 1 16 3
M  V30 10 2 16 13
M  V30 11 1 17 6
M  V30 12 1 17 7
M  V30 13 1 19 1
M  V30 14 2 20 19
M  V30 15 1 21 4
M  V30 16 1 23 3
M  V30 17 1 24 11
M  V30 18 2 25 11
M  V30 19 1 26 19
M  V30 20 2 26 22
M  V30 21 1 27 15
M  V30 22 1 27 18
M  V30 23 1 28 8
M  V30 24 2 28 9
M  V30 25 1 28 10
M  V30 26 1 29 5
M  V30 27 2 29 8
M  V30 28 1 30 18
M  V30 29 1 31 13
M  V30 30 2 31 17
M  V30 31 1 31 22
M  V30 32 1 32 14
M  V30 33 1 32 24
M  V30 34 1 33 2
M  V30 35 1 34 4
M  V30 36 1 34 23
M  V30 37 1 34 30
M  V30 38 1 35 2
M  V30 39 1 35 10
M  V30 40 1 36 1
M  V30 41 1 37 1
M  V30 42 1 2 38 CFG=3
M  V30 43 1 4 39 CFG=3
M  V30 44 1 40 6
M  V30 45 1 41 7
M  V30 46 1 42 7
M  V30 47 1 43 10
M  V30 48 1 44 10
M  V30 49 1 45 13
M  V30 50 1 14 46 CFG=3
M  V30 51 1 47 16
M  V30 52 1 48 18
M  V30 53 1 49 18
M  V30 54 1 50 22
M  V30 55 1 51 24
M  V30 56 1 52 27
M  V30 57 1 53 27
M  V30 58 1 54 29
M  V30 59 1 55 32
M  V30 60 1 56 33
M  V30 61 1 57 33
M  V30 62 1 34 58 CFG=1
M  V30 63 1 59 35
M  V30 64 1 60 35
M  V30 65 1 61 33
M  V30 END BOND
M  V30 END CTAB
M  END
>  <i_epik_Tot_Q>  (1) 
1

>  <i_epik_Tot_abs_Q>  (1) 
1

>  <i_i_glide_confnum>  (1) 
158

>  <i_i_glide_lignum>  (1) 
63

>  <i_i_glide_posenum>  (1) 
55

>  <i_i_glide_rotatable_bonds>  (1) 
6

>  <i_lp_mmshare_version>  (1) 
72125

>  <i_m_source_file_index>  (1) 
24

>  <i_f3d_flags>  (1) 
0

>  <num_sample>  (1) 
50

>  <b_lp_Chiralities_Consistent>  (1) 
1

>  <r_epik_Charging_Adjusted_Penalty>  (1) 
0.20786405117440027

>  <r_epik_Ionization_Penalty>  (1) 
0.17784020352230567

>  <r_epik_Ionization_Penalty_Charging>  (1) 
0.046839863378715332

>  <r_epik_Ionization_Penalty_Neutral>  (1) 
0.13100034014359035

>  <r_epik_State_Penalty>  (1) 
0.16102418779568495

>  <r_glide_ring_energy>  (1) 
0.36391509760431284

>  <r_i_docking_score>  (1) 
-7.7361139128607981

>  <r_i_glide_ecoul>  (1) 
-2.7455713488921036

>  <r_i_glide_eff_state_penalty>  (1) 
0.16102418779568495

>  <r_i_glide_einternal>  (1) 
12.138365669014224

>  <r_i_glide_emodel>  (1) 
-80.574869486234036

>  <r_i_glide_emodel_strain>  (1) 
0.80767953107000068

>  <r_i_glide_energy>  (1) 
-56.016241539312716

>  <r_i_glide_erotb>  (1) 
0.32266353053763186

>  <r_i_glide_esite>  (1) 
0

>  <r_i_glide_evdw>  (1) 
-53.27067019042061

>  <r_i_glide_gscore>  (1) 
-7.8971381006564831

>  <r_i_glide_gscore_strain>  (1) 
0

>  <r_i_glide_hbond>  (1) 
0

>  <r_i_glide_ligand_efficiency>  (1) 
-0.22103182608173708

>  <r_i_glide_ligand_efficiency_ln>  (1) 
-1.6982486976706241

>  <r_i_glide_ligand_efficiency_sa>  (1) 
-0.72300975977543391

>  <r_i_glide_lipo>  (1) 
-3.6494775011398666

>  <r_i_glide_metal>  (1) 
-0

>  <r_i_glide_rewards>  (1) 
-1.4949549181994022

>  <r_lp_Energy>  (1) 
39.045392999999997

>  <s_epik_Chemistry_Notes>  (1) 
This compound has an imine and may undergo hydrolysis. This compound contains an acetal/aminal-like group ( X-CH(R)-Y where X, Y are N, S, or O) that may be acid/base labile, releasing an aldehyde.

>  <s_epik_cmdline>  (1) 
J2VwaWtfcHl0aG9uJywgJy1waHQnLCAnMS4wJywgJy1waCcsICc3LjQnLCAnLXRuJywgJzgnLCAnLW1hJywgJzUwMCcsICctaW1hZScsICc8aW5maWxlLm1hZT4nLCAnLW9tYWUnLCAnPG91dGZpbGUubWFlPic=

>  <s_epik_input>  (1) 
W0NIMl0xW0NIMl1DKD1PKU49W0NIXWMoYzEyKVtjSF1bY0hdYyhbY0hdMilTW0NAQEhdM09bQ0gyXVtDSDJdTihbQ0BIXTNDbClTKD1PKSg9TylbTkhdW05IXVtDQEBIXTRbQ0BASF0oW05IMl0pW0NIMl1bQ0gyXWMoYzQ1KW5bY0hdczU=

>  <s_glide_docking_method>  (1) 
confgen

>  <s_i_glide_gridfile>  (1) 
gpcr_5ht2c_6bqh_protein_autoprepared_prepared

>  <s_lp_Force_Field>  (1) 
S-OPLS

>  <s_lp_Variant>  (1) 
DiffSBDD_23_num_sample_50-2

>  <s_m_source_file>  (1) 
generated__ligand_DiffSBDD_2026-05-06_prepared.sdf

>  <GenAI_Model>  (1) 
DiffSBDD

>  <Protein>  (1) 
GPCR_5HT2C

$$$$
DiffSBDD_10_num_sample_50
     RDKit          3D

  0  0  0  0  0  0  0  0  0  0999 V3000
M  V30 BEGIN CTAB
M  V30 COUNTS 65 67 0 0 1
M  V30 BEGIN ATOM
M  V30 1 C 39.214730 29.237967 56.941434 0
M  V30 2 C 39.861900 28.203110 56.028522 0
M  V30 3 C 40.135128 29.430514 50.354984 0
M  V30 4 N 38.343176 28.825023 54.183608 0
M  V30 5 O 36.652708 31.399237 60.816139 0 CHG=-1
M  V30 6 O 39.382906 32.821561 57.416944 0
M  V30 7 C 38.857107 37.046854 62.126509 0
M  V30 8 C 40.267420 30.420063 51.331850 0
M  V30 9 C 40.005308 34.486989 61.928443 0
M  V30 10 O 38.065232 32.410485 62.653479 0
M  V30 11 N 37.070587 36.403850 60.643011 0
M  V30 12 C 39.699828 30.243118 52.605219 0
M  V30 13 C 37.434245 34.054335 59.050514 0
M  V30 14 C 38.243078 36.077398 61.319217 0
M  V30 15 C 38.826739 27.690027 55.006391 0 CFG=1
M  V30 16 C 39.676976 25.286429 55.268305 0
M  V30 17 C 38.979201 29.038485 52.909922 0
M  V30 18 O 35.918767 33.621414 61.853504 0
M  V30 19 C 37.854699 30.004138 54.895476 0
M  V30 20 N 37.867400 31.229203 56.928379 0
M  V30 21 C 39.287661 26.403817 54.311156 0
M  V30 22 P 36.993573 32.712841 61.404725 0
M  V30 23 C 41.847434 35.141210 63.537542 0
M  V30 24 C 40.029356 36.746440 62.834818 0
M  V30 25 C 38.261445 32.346315 57.522519 0
M  V30 26 N 37.286223 32.877827 58.253495 0
M  V30 27 C 39.445334 28.244654 50.643446 0
M  V30 28 O 39.855285 31.221384 53.525198 0
M  V30 29 F 40.667408 29.621406 49.128366 0
M  V30 30 C 38.868021 28.047953 51.904820 0
M  V30 31 C 38.822707 34.779685 61.209706 0
M  V30 32 C 38.723770 30.422617 56.107729 0 CFG=1
M  V30 33 C 38.187442 33.682042 60.336538 0 CFG=2
M  V30 34 C 40.600520 35.467319 62.745462 0
M  V30 35 H 39.922665 29.578793 57.699529 0
M  V30 36 H 38.385165 28.777774 57.481275 0
M  V30 37 H 40.718743 28.636469 55.516469 0
M  V30 38 H 40.241672 27.411136 56.668674 0
M  V30 39 H 38.421732 38.021503 62.208103 0
M  V30 40 H 40.803733 31.326316 51.104518 0
M  V30 41 H 40.448026 33.503084 61.858844 0
M  V30 42 H 38.324609 33.259270 62.974997 0
M  V30 43 H 36.583772 37.258688 60.866389 0
M  V30 44 H 36.506263 35.666822 60.243397 0
M  V30 45 H 37.867404 34.821466 58.442139 0
M  V30 46 H 36.417488 34.382735 59.265371 0
M  V30 47 H 37.953233 27.389817 55.586759 0
M  V30 48 H 39.863542 24.421371 54.656324 0
M  V30 49 H 40.597263 25.488425 55.815047 0
M  V30 50 H 38.883706 25.052989 55.978265 0
M  V30 51 H 37.607495 30.838787 54.238045 0
M  V30 52 H 36.881326 29.693531 55.277759 0
M  V30 53 H 36.902944 30.930365 57.051903 0
M  V30 54 H 38.449209 26.016511 53.739135 0
M  V30 55 H 40.129732 26.581733 53.643125 0
M  V30 56 H 42.596689 35.928714 63.439301 0
M  V30 57 H 41.593917 35.049220 64.595139 0
M  V30 58 H 42.267395 34.189672 63.215757 0
M  V30 59 H 40.486883 37.499264 63.453519 0
M  V30 60 H 36.376662 32.422476 58.245748 0
M  V30 61 H 39.340531 27.486143 49.884916 0
M  V30 62 H 39.421507 30.999384 54.333844 0
M  V30 63 H 38.313315 27.146865 52.089874 0
M  V30 64 H 39.612430 30.979240 55.825250 0
M  V30 65 H 39.013894 33.021805 60.077170 0
M  V30 END ATOM
M  V30 BEGIN BOND
M  V30 1 1 2 1
M  V30 2 2 8 3
M  V30 3 1 12 8
M  V30 4 1 14 7
M  V30 5 1 14 11
M  V30 6 1 15 2
M  V30 7 1 15 4
M  V30 8 1 17 4
M  V30 9 2 17 12
M  V30 10 1 19 4
M  V30 11 1 21 15
M  V30 12 1 21 16
M  V30 13 1 22 5
M  V30 14 1 22 10
M  V30 15 2 22 18
M  V30 16 2 24 7
M  V30 17 2 25 6
M  V30 18 1 25 20
M  V30 19 1 26 13
M  V30 20 1 26 25
M  V30 21 1 27 3
M  V30 22 1 28 12
M  V30 23 1 29 3
M  V30 24 1 30 17
M  V30 25 2 30 27
M  V30 26 1 31 9
M  V30 27 2 31 14
M  V30 28 1 32 1
M  V30 29 1 32 19
M  V30 30 1 32 20
M  V30 31 1 33 13
M  V30 32 1 33 22
M  V30 33 1 33 31
M  V30 34 2 34 9
M  V30 35 1 34 23
M  V30 36 1 34 24
M  V30 37 1 35 1
M  V30 38 1 36 1
M  V30 39 1 37 2
M  V30 40 1 38 2
M  V30 41 1 39 7
M  V30 42 1 40 8
M  V30 43 1 41 9
M  V30 44 1 42 10
M  V30 45 1 43 11
M  V30 46 1 44 11
M  V30 47 1 45 13
M  V30 48 1 46 13
M  V30 49 1 15 47 CFG=1
M  V30 50 1 48 16
M  V30 51 1 49 16
M  V30 52 1 50 16
M  V30 53 1 51 19
M  V30 54 1 52 19
M  V30 55 1 53 20
M  V30 56 1 54 21
M  V30 57 1 55 21
M  V30 58 1 56 23
M  V30 59 1 57 23
M  V30 60 1 58 23
M  V30 61 1 59 24
M  V30 62 1 60 26
M  V30 63 1 61 27
M  V30 64 1 62 28
M  V30 65 1 63 30
M  V30 66 1 32 64 CFG=3
M  V30 67 1 33 65 CFG=3
M  V30 END BOND
M  V30 END CTAB
M  END
>  <i_epik_Tot_Q>  (1) 
-1

>  <i_epik_Tot_abs_Q>  (1) 
1

>  <i_i_glide_confnum>  (1) 
20

>  <i_i_glide_lignum>  (1) 
32

>  <i_i_glide_posenum>  (1) 
148

>  <i_i_glide_rotatable_bonds>  (1) 
11

>  <i_lp_mmshare_version>  (1) 
72125

>  <i_m_source_file_index>  (1) 
11

>  <i_f3d_flags>  (1) 
0

>  <num_sample>  (1) 
50

>  <b_lp_Chiralities_Consistent>  (1) 
1

>  <r_epik_Charging_Adjusted_Penalty>  (1) 
0.73638213407736119

>  <r_epik_Ionization_Penalty>  (1) 
0.43605758440355569

>  <r_epik_Ionization_Penalty_Charging>  (1) 
4.3620522216925192e-06

>  <r_epik_Ionization_Penalty_Neutral>  (1) 
0.43605322235133398

>  <r_epik_State_Penalty>  (1) 
0.73637777202513954

>  <r_glide_ring_energy>  (1) 
0

>  <r_i_docking_score>  (1) 
-7.7259985224686414

>  <r_i_glide_ecoul>  (1) 
-7.1896519493333511

>  <r_i_glide_eff_state_penalty>  (1) 
0.73637777202513954

>  <r_i_glide_einternal>  (1) 
7.1758864711511094

>  <r_i_glide_emodel>  (1) 
-62.387691343457078

>  <r_i_glide_emodel_strain>  (1) 
0.80186795276242151

>  <r_i_glide_energy>  (1) 
-41.492341480101146

>  <r_i_glide_erotb>  (1) 
0.66918926381983879

>  <r_i_glide_esite>  (1) 
-0.28897959727541417

>  <r_i_glide_evdw>  (1) 
-34.302689530767793

>  <r_i_glide_gscore>  (1) 
-8.4623762944937813

>  <r_i_glide_gscore_strain>  (1) 
0

>  <r_i_glide_hbond>  (1) 
-0.25438319608126903

>  <r_i_glide_ligand_efficiency>  (1) 
-0.22723525066084238

>  <r_i_glide_ligand_efficiency_ln>  (1) 
-1.7068897805315257

>  <r_i_glide_ligand_efficiency_sa>  (1) 
-0.73615399970711215

>  <r_i_glide_lipo>  (1) 
-4.6199735090598759

>  <r_i_glide_metal>  (1) 
-0

>  <r_i_glide_rewards>  (1) 
-1.1746469869586682

>  <r_lp_Energy>  (1) 
40.406531000000001

>  <r_lp_tautomer_probability>  (1) 
0.99999999999736477

>  <s_epik_cmdline>  (1) 
J2VwaWtfcHl0aG9uJywgJy1waHQnLCAnMS4wJywgJy1waCcsICc3LjQnLCAnLXRuJywgJzgnLCAnLW1hJywgJzUwMCcsICctaW1hZScsICc8aW5maWxlLm1hZT4nLCAnLW9tYWUnLCAnPG91dGZpbGUubWFlPic=

>  <s_epik_input>  (1) 
RmMxW2NIXWMoW09IXSljKFtjSF1bY0hdMSlOMltDQEBIXShbQ0gyXVtDSDNdKVtDSDJdW0NIMl1bQ0BASF0oW0NIMl0yKVtOSF1DKD1PKVtOSF1bQ0gyXVtDQEhdKFAoPU8pKFtPSF0pW09IXSljM1tjSF1jKFtDSDNdKVtjSF1bY0hdYzNbTkgyXQ==

>  <s_glide_docking_method>  (1) 
confgen

>  <s_i_glide_gridfile>  (1) 
gpcr_5ht2c_6bqh_protein_autoprepared_prepared

>  <s_lp_Force_Field>  (1) 
S-OPLS

>  <s_lp_Variant>  (1) 
DiffSBDD_10_num_sample_50-1

>  <s_m_source_file>  (1) 
generated__ligand_DiffSBDD_2026-05-06_prepared.sdf

>  <GenAI_Model>  (1) 
DiffSBDD

>  <Protein>  (1) 
GPCR_5HT2C

$$$$
DiffSBDD_47_num_sample_50
     RDKit          3D

  0  0  0  0  0  0  0  0  0  0999 V3000
M  V30 BEGIN CTAB
M  V30 COUNTS 47 49 0 0 1
M  V30 BEGIN ATOM
M  V30 1 C 40.065819 31.954648 61.684933 0
M  V30 2 C 39.461082 34.401353 61.295514 0
M  V30 3 C 41.068780 35.221825 63.454471 0
M  V30 4 C 39.067403 28.081553 53.163337 0
M  V30 5 C 39.715715 30.421428 53.254454 0
M  V30 6 N 40.699184 29.632490 62.153218 0
M  V30 7 C 39.256257 30.135016 60.276588 0
M  V30 8 C 39.966606 29.241004 61.093384 0
M  V30 9 C 39.799729 26.635375 55.075365 0
M  V30 10 C 39.361238 29.226894 52.531170 0
M  V30 11 O 40.341615 28.487466 58.116592 0
M  V30 12 N 38.950669 29.552493 56.678262 0
M  V30 13 C 39.679062 29.178414 55.452922 0 CFG=1
M  V30 14 C 39.057180 27.929622 54.688160 0
M  V30 15 C 40.974149 33.852648 63.131080 0
M  V30 16 O 41.850565 35.621430 64.501147 0
M  V30 17 C 39.562910 35.765562 61.629543 0
M  V30 18 C 39.338160 29.170368 57.910221 0
M  V30 19 C 39.298912 31.508703 60.576246 0
M  V30 20 C 38.451731 29.624477 59.083807 0
M  V30 21 C 39.856250 30.421423 54.587314 0
M  V30 22 C 40.166094 33.414260 62.041073 0
M  V30 23 C 40.364412 36.173911 62.704675 0
M  V30 24 C 40.741669 30.954745 62.439153 0
M  V30 25 C 37.584185 27.739106 55.053497 0
M  V30 26 H 38.839956 34.115566 60.465459 0
M  V30 27 H 38.805482 27.205762 52.586218 0
M  V30 28 H 39.875602 31.339755 52.707944 0
M  V30 29 H 39.950485 28.180475 60.887908 0
M  V30 30 H 39.812996 26.493936 56.156657 0
M  V30 31 H 39.326119 25.755231 54.638559 0
M  V30 32 H 40.831270 26.641797 54.735122 0
M  V30 33 H 39.329306 29.255343 51.451485 0
M  V30 34 H 38.115182 30.112976 56.577071 0
M  V30 35 H 40.706760 28.926518 55.716227 0
M  V30 36 H 41.525230 33.141456 63.719942 0
M  V30 37 H 41.867271 36.565278 64.638154 0
M  V30 38 H 39.021062 36.501004 61.053740 0
M  V30 39 H 38.760987 32.205645 59.958116 0
M  V30 40 H 37.859018 28.770667 59.407585 0
M  V30 41 H 37.746308 30.389211 58.753787 0
M  V30 42 H 40.126699 31.335181 55.097021 0
M  V30 43 H 40.438783 37.222068 62.954701 0
M  V30 44 H 41.340194 31.220507 63.292129 0
M  V30 45 H 37.467404 27.452700 56.099257 0
M  V30 46 H 37.067212 28.681002 54.882089 0
M  V30 47 H 37.101280 26.968611 54.450523 0
M  V30 END ATOM
M  V30 BEGIN BOND
M  V30 1 2 8 6
M  V30 2 1 8 7
M  V30 3 2 10 4
M  V30 4 1 10 5
M  V30 5 1 13 12
M  V30 6 1 14 4
M  V30 7 1 14 9
M  V30 8 1 14 13
M  V30 9 2 15 3
M  V30 10 1 16 3
M  V30 11 1 17 2
M  V30 12 2 18 11
M  V30 13 1 18 12
M  V30 14 1 19 1
M  V30 15 2 19 7
M  V30 16 1 20 7
M  V30 17 1 20 18
M  V30 18 2 21 5
M  V30 19 1 21 13
M  V30 20 1 22 1
M  V30 21 2 22 2
M  V30 22 1 22 15
M  V30 23 1 23 3
M  V30 24 2 23 17
M  V30 25 2 24 1
M  V30 26 1 24 6
M  V30 27 1 25 14
M  V30 28 1 26 2
M  V30 29 1 27 4
M  V30 30 1 28 5
M  V30 31 1 29 8
M  V30 32 1 30 9
M  V30 33 1 31 9
M  V30 34 1 32 9
M  V30 35 1 33 10
M  V30 36 1 34 12
M  V30 37 1 13 35 CFG=1
M  V30 38 1 36 15
M  V30 39 1 37 16
M  V30 40 1 38 17
M  V30 41 1 39 19
M  V30 42 1 40 20
M  V30 43 1 41 20
M  V30 44 1 42 21
M  V30 45 1 43 23
M  V30 46 1 44 24
M  V30 47 1 45 25
M  V30 48 1 46 25
M  V30 49 1 47 25
M  V30 END BOND
M  V30 END CTAB
M  END
>  <i_epik_Tot_Q>  (1) 
0

>  <i_epik_Tot_abs_Q>  (1) 
0

>  <i_i_glide_confnum>  (1) 
73

>  <i_i_glide_lignum>  (1) 
107

>  <i_i_glide_posenum>  (1) 
278

>  <i_i_glide_rotatable_bonds>  (1) 
6

>  <i_lp_mmshare_version>  (1) 
72125

>  <i_m_source_file_index>  (1) 
48

>  <i_f3d_flags>  (1) 
0

>  <num_sample>  (1) 
50

>  <b_lp_Chiralities_Consistent>  (1) 
1

>  <r_epik_Charging_Adjusted_Penalty>  (1) 
0.0032589894025149397

>  <r_epik_Ionization_Penalty>  (1) 
0.0038156857198904941

>  <r_epik_Ionization_Penalty_Charging>  (1) 
0

>  <r_epik_Ionization_Penalty_Neutral>  (1) 
0.0038156857198904941

>  <r_epik_State_Penalty>  (1) 
0.0032589894025149397

>  <r_glide_ring_energy>  (1) 
0.21997361475074056

>  <r_i_docking_score>  (1) 
-7.7174507888544142

>  <r_i_glide_ecoul>  (1) 
-5.9755714202914199

>  <r_i_glide_eff_state_penalty>  (1) 
0.0032589894025149397

>  <r_i_glide_einternal>  (1) 
1.7293558134279738

>  <r_i_glide_emodel>  (1) 
-62.592200299167132

>  <r_i_glide_emodel_strain>  (1) 
0

>  <r_i_glide_energy>  (1) 
-43.371906308666624

>  <r_i_glide_erotb>  (1) 
0.84319913175930694

>  <r_i_glide_esite>  (1) 
0

>  <r_i_glide_evdw>  (1) 
-37.396334888375208

>  <r_i_glide_gscore>  (1) 
-7.7207097782569294

>  <r_i_glide_gscore_strain>  (1) 
0

>  <r_i_glide_hbond>  (1) 
-0.45726444293134083

>  <r_i_glide_ligand_efficiency>  (1) 
-0.30869803155417658

>  <r_i_glide_ligand_efficiency_ln>  (1) 
-1.8292671102960254

>  <r_i_glide_ligand_efficiency_sa>  (1) 
-0.90263852001580736

>  <r_i_glide_lipo>  (1) 
-3.7047903624327705

>  <r_i_glide_metal>  (1) 
-0

>  <r_i_glide_rewards>  (1) 
-1.6357016471896519

>  <r_lp_Energy>  (1) 
34.006616000000001

>  <r_lp_tautomer_probability>  (1) 
0.99999999999736477

>  <s_epik_cmdline>  (1) 
J2VwaWtfcHl0aG9uJywgJy1waHQnLCAnMS4wJywgJy1waCcsICc3LjQnLCAnLXRuJywgJzgnLCAnLW1hJywgJzUwMCcsICctaW1hZScsICc8aW5maWxlLm1hZT4nLCAnLW9tYWUnLCAnPG91dGZpbGUubWFlPic=

>  <s_epik_input>  (1) 
W09IXWMxW2NIXWMoW2NIXVtjSF1bY0hdMSktYzJbY0hdYyhbY0hdbltjSF0yKVtDSDJdQyg9TylbTkhdW0NAQEhdM1tDSF09W0NIXVtDSF09W0NIXUMzKFtDSDNdKVtDSDNd

>  <s_glide_docking_method>  (1) 
confgen

>  <s_i_glide_gridfile>  (1) 
gpcr_5ht2c_6bqh_protein_autoprepared_prepared

>  <s_lp_Force_Field>  (1) 
S-OPLS

>  <s_lp_Variant>  (1) 
DiffSBDD_47_num_sample_50-1

>  <s_m_source_file>  (1) 
generated__ligand_DiffSBDD_2026-05-06_prepared.sdf

>  <GenAI_Model>  (1) 
DiffSBDD

>  <Protein>  (1) 
GPCR_5HT2C

$$$$
DiffSBDD_4_num_sample_50
     RDKit          3D

  0  0  0  0  0  0  0  0  0  0999 V3000
M  V30 BEGIN CTAB
M  V30 COUNTS 73 75 0 0 1
M  V30 BEGIN ATOM
M  V30 1 C 42.353859 28.132797 65.004883 0
M  V30 2 C 38.579849 29.074761 56.142798 0
M  V30 3 C 38.132962 27.028125 54.986494 0
M  V30 4 N 38.605286 28.526943 58.295548 0
M  V30 5 C 40.983357 33.704503 64.833505 0
M  V30 6 C 38.185812 27.712950 53.743589 0
M  V30 7 C 38.746438 29.581286 57.463801 0
M  V30 8 N 41.120270 30.908310 64.326961 0
M  V30 9 C 40.219032 28.833041 61.783379 0
M  V30 10 C 43.045225 30.538841 65.672919 0
M  V30 11 O 41.761737 31.544115 62.253478 0
M  V30 12 C 38.684446 28.606014 59.751581 0
M  V30 13 F 43.183647 24.677861 66.108673 0
M  V30 14 C 44.507838 27.223051 65.376118 0
M  V30 15 C 38.314322 27.173016 57.599176 0
M  V30 16 C 42.509840 25.606047 65.430020 0
M  V30 17 N 44.681831 28.682849 65.320418 0 CHG=1
M  V30 18 C 38.648745 29.816278 54.939458 0
M  V30 19 C 39.792974 30.184658 62.404420 0
M  V30 20 C 43.400331 29.263557 64.872877 0 CFG=1
M  V30 21 C 38.338591 27.759676 56.165495 0
M  V30 22 O 37.886317 25.686842 55.033103 0
M  V30 23 C 38.446611 29.116286 53.719130 0
M  V30 24 C 43.049202 27.006571 65.765845 0 CFG=2
M  V30 25 C 41.842328 32.760980 65.705295 0
M  V30 26 C 40.982348 30.944109 62.991649 0
M  V30 27 N 42.222884 31.532825 64.941565 0
M  V30 28 C 41.067387 32.412298 66.993538 0
M  V30 29 C 38.941517 31.316891 54.931864 0
M  V30 30 N 37.867402 32.123163 55.538896 0 CHG=1
M  V30 31 F 41.218024 25.518824 65.746753 0
M  V30 32 C 40.128910 28.781528 60.250205 0
M  V30 33 C 43.066602 33.602457 66.113096 0
M  V30 34 O 38.968624 30.753506 57.762494 0
M  V30 35 H 41.433648 28.442214 65.502849 0
M  V30 36 H 42.075119 27.781364 64.011864 0
M  V30 37 H 41.526323 34.018409 63.940233 0
M  V30 38 H 40.068439 33.221394 64.493599 0
M  V30 39 H 40.694865 34.607648 65.372274 0
M  V30 40 H 38.031613 27.174937 52.818502 0
M  V30 41 H 37.755606 25.300826 54.180232 0
M  V30 42 H 40.463491 30.414155 64.914513 0
M  V30 43 H 39.620675 28.029475 62.215085 0
M  V30 44 H 41.248582 28.598266 62.056390 0
M  V30 45 H 43.973988 31.030756 65.959055 0
M  V30 46 H 42.550953 30.254001 66.601835 0
M  V30 47 H 38.056591 29.428810 60.097465 0
M  V30 48 H 38.267480 27.695273 60.179579 0
M  V30 49 H 45.211758 26.763733 66.069840 0
M  V30 50 H 44.667407 26.821441 64.375310 0
M  V30 51 H 37.335346 26.766210 57.853464 0
M  V30 52 H 39.104934 26.439898 57.760214 0
M  V30 53 H 42.600907 25.366477 64.369552 0
M  V30 54 H 45.443395 28.939904 64.707811 0
M  V30 55 H 39.310570 30.820356 61.661633 0
M  V30 56 H 39.048833 30.021505 63.182671 0
M  V30 57 H 43.531490 29.514926 63.818546 0
M  V30 58 H 38.492696 29.639671 52.776250 0
M  V30 59 H 42.940769 27.188682 66.836756 0
M  V30 60 H 41.716516 31.969037 67.748595 0
M  V30 61 H 40.628611 33.301902 67.446037 0
M  V30 62 H 40.267450 31.699774 66.801676 0
M  V30 63 H 39.886005 31.513078 55.441880 0
M  V30 64 H 39.077531 31.652683 53.903319 0
M  V30 65 H 38.072024 33.107834 55.468323 0
M  V30 66 H 36.964125 31.953808 55.114446 0
M  V30 67 H 40.724279 27.941425 59.891146 0
M  V30 68 H 40.585567 29.675756 59.825301 0
M  V30 69 H 43.564835 34.021037 65.239434 0
M  V30 70 H 42.754468 34.450140 66.724028 0
M  V30 71 H 43.796095 33.048292 66.702250 0
M  V30 72 H 44.882947 29.013570 66.253713 0
M  V30 73 H 37.776909 31.879088 56.518877 0
M  V30 END ATOM
M  V30 BEGIN BOND
M  V30 1 1 6 3
M  V30 2 1 7 2
M  V30 3 1 7 4
M  V30 4 1 12 4
M  V30 5 1 15 4
M  V30 6 1 16 13
M  V30 7 1 17 14
M  V30 8 2 18 2
M  V30 9 1 19 9
M  V30 10 1 20 1
M  V30 11 1 20 10
M  V30 12 1 20 17
M  V30 13 1 21 2
M  V30 14 2 21 3
M  V30 15 1 21 15
M  V30 16 1 22 3
M  V30 17 2 23 6
M  V30 18 1 23 18
M  V30 19 1 24 1
M  V30 20 1 24 14
M  V30 21 1 24 16
M  V30 22 1 25 5
M  V30 23 1 26 8
M  V30 24 2 26 11
M  V30 25 1 26 19
M  V30 26 1 27 8
M  V30 27 1 27 10
M  V30 28 1 27 25
M  V30 29 1 28 25
M  V30 30 1 29 18
M  V30 31 1 30 29
M  V30 32 1 31 16
M  V30 33 1 32 9
M  V30 34 1 32 12
M  V30 35 1 33 25
M  V30 36 2 34 7
M  V30 37 1 35 1
M  V30 38 1 36 1
M  V30 39 1 37 5
M  V30 40 1 38 5
M  V30 41 1 39 5
M  V30 42 1 40 6
M  V30 43 1 41 22
M  V30 44 1 42 8
M  V30 45 1 43 9
M  V30 46 1 44 9
M  V30 47 1 45 10
M  V30 48 1 46 10
M  V30 49 1 47 12
M  V30 50 1 48 12
M  V30 51 1 49 14
M  V30 52 1 50 14
M  V30 53 1 51 15
M  V30 54 1 52 15
M  V30 55 1 53 16
M  V30 56 1 54 17
M  V30 57 1 55 19
M  V30 58 1 56 19
M  V30 59 1 20 57 CFG=3
M  V30 60 1 58 23
M  V30 61 1 24 59 CFG=1
M  V30 62 1 60 28
M  V30 63 1 61 28
M  V30 64 1 62 28
M  V30 65 1 63 29
M  V30 66 1 64 29
M  V30 67 1 65 30
M  V30 68 1 66 30
M  V30 69 1 67 32
M  V30 70 1 68 32
M  V30 71 1 69 33
M  V30 72 1 70 33
M  V30 73 1 71 33
M  V30 74 1 72 17
M  V30 75 1 73 30
M  V30 END BOND
M  V30 END CTAB
M  END
>  <i_epik_Tot_Q>  (1) 
2

>  <i_epik_Tot_abs_Q>  (1) 
2

>  <i_i_glide_confnum>  (1) 
673

>  <i_i_glide_lignum>  (1) 
12

>  <i_i_glide_posenum>  (1) 
54

>  <i_i_glide_rotatable_bonds>  (1) 
13

>  <i_lp_mmshare_version>  (1) 
72125

>  <i_m_source_file_index>  (1) 
5

>  <i_f3d_flags>  (1) 
0

>  <num_sample>  (1) 
50

>  <b_lp_Chiralities_Consistent>  (1) 
1

>  <r_epik_Charging_Adjusted_Penalty>  (1) 
0.15324589145217746

>  <r_epik_Ionization_Penalty>  (1) 
0.11737889030673737

>  <r_epik_Ionization_Penalty_Charging>  (1) 
0.07766807882096001

>  <r_epik_Ionization_Penalty_Neutral>  (1) 
0.039710811485777361

>  <r_epik_State_Penalty>  (1) 
0.075577812631217448

>  <r_glide_ring_energy>  (1) 
0

>  <r_i_docking_score>  (1) 
-7.7158843126221468

>  <r_i_glide_ecoul>  (1) 
-8.7551616942526529

>  <r_i_glide_eff_state_penalty>  (1) 
0.075577812631217448

>  <r_i_glide_einternal>  (1) 
14.821866854089071

>  <r_i_glide_emodel>  (1) 
-70.850288673359969

>  <r_i_glide_emodel_strain>  (1) 
0.68414956214752465

>  <r_i_glide_energy>  (1) 
-49.098426065248162

>  <r_i_glide_erotb>  (1) 
0.78126008755577614

>  <r_i_glide_esite>  (1) 
-0.10706698672996556

>  <r_i_glide_evdw>  (1) 
-40.343264370995506

>  <r_i_glide_gscore>  (1) 
-7.7914621252533642

>  <r_i_glide_gscore_strain>  (1) 
0

>  <r_i_glide_hbond>  (1) 
-0.188096725191047

>  <r_i_glide_ligand_efficiency>  (1) 
-0.22693777390065137

>  <r_i_glide_ligand_efficiency_ln>  (1) 
-1.7046552678824582

>  <r_i_glide_ligand_efficiency_sa>  (1) 
-0.7351902904841916

>  <r_i_glide_lipo>  (1) 
-3.5166684371928265

>  <r_i_glide_metal>  (1) 
-0

>  <r_i_glide_rewards>  (1) 
-1.4304525910076278

>  <r_lp_Energy>  (1) 
24.236581999999999

>  <r_lp_tautomer_probability>  (1) 
0.99999999999736477

>  <s_epik_cmdline>  (1) 
J2VwaWtfcHl0aG9uJywgJy1waHQnLCAnMS4wJywgJy1waCcsICc3LjQnLCAnLXRuJywgJzgnLCAnLW1hJywgJzUwMCcsICctaW1hZScsICc8aW5maWxlLm1hZT4nLCAnLW9tYWUnLCAnPG91dGZpbGUubWFlPic=

>  <s_epik_input>  (1) 
RltDSF0oRilbQ0BASF0oW0NIMl1bTkhdMSlbQ0gyXVtDQEhdMVtDSDJdTihDKFtDSDNdKShbQ0gzXSlbQ0gzXSlbTkhdQyg9TylbQ0gyXVtDSDJdW0NIMl1bQ0gyXU4oQzI9TylbQ0gyXUMoPUMyMylDKD1PKVtDSDJdW0NIXT1DM1tDSDJdW05IMl0=

>  <s_glide_docking_method>  (1) 
confgen

>  <s_i_glide_gridfile>  (1) 
gpcr_5ht2c_6bqh_protein_autoprepared_prepared

>  <s_lp_Force_Field>  (1) 
S-OPLS

>  <s_lp_Variant>  (1) 
DiffSBDD_4_num_sample_50-1

>  <s_m_source_file>  (1) 
generated__ligand_DiffSBDD_2026-05-06_prepared.sdf

>  <GenAI_Model>  (1) 
DiffSBDD

>  <Protein>  (1) 
GPCR_5HT2C

$$$$
DiffSBDD_13_num_sample_50
     RDKit          3D

  0  0  0  0  0  0  0  0  0  0999 V3000
M  V30 BEGIN CTAB
M  V30 COUNTS 68 71 0 0 1
M  V30 BEGIN ATOM
M  V30 1 C 37.492448 33.753568 59.803420 0
M  V30 2 C 37.907771 26.050700 56.839968 0
M  V30 3 N 42.179991 32.038460 64.120529 0
M  V30 4 C 38.145336 27.917572 54.742426 0
M  V30 5 C 41.832415 34.138002 64.606875 0
M  V30 6 N 38.939753 30.206159 54.009886 0 CFG=2 CHG=1
M  V30 7 F 38.386204 23.944984 57.548627 0
M  V30 8 C 40.605341 31.713247 62.252473 0
M  V30 9 C 40.212452 30.060290 51.824237 0 CFG=1
M  V30 10 C 37.596096 31.086554 61.438891 0
M  V30 11 C 39.674815 30.958361 52.946577 0
M  V30 12 C 41.267241 32.601154 63.318221 0
M  V30 13 C 38.427801 32.571678 59.458847 0 CFG=1
M  V30 14 N 41.880665 30.775650 64.671493 0
M  V30 15 N 39.156325 29.200257 51.357870 0
M  V30 16 O 40.925866 30.535633 62.059842 0
M  V30 17 O 36.129155 33.372847 59.874796 0
M  V30 18 C 38.270679 28.923025 53.592052 0 CFG=1
M  V30 19 C 38.360592 31.876363 57.070153 0
M  V30 20 C 37.782098 25.050817 57.953643 0
M  V30 21 C 38.692429 28.202960 56.020242 0
M  V30 22 C 40.634365 30.700050 50.508023 0
M  V30 23 C 38.570761 27.269868 57.061364 0
M  V30 24 C 37.997899 31.095276 54.748797 0
M  V30 25 N 40.952890 33.826235 63.422799 0
M  V30 26 C 40.260276 29.633831 49.473737 0
M  V30 27 C 37.484043 26.689848 54.527814 0
M  V30 28 C 37.367544 25.759869 55.574330 0
M  V30 29 O 42.602142 32.955521 65.063148 0
M  V30 30 C 38.708554 31.915968 55.805823 0
M  V30 31 C 38.794307 31.651795 60.651304 0 CFG=1
M  V30 32 O 39.641701 32.362061 61.550555 0
M  V30 33 C 38.941288 28.212546 52.389855 0
M  V30 34 C 37.878280 31.777654 58.285926 0
M  V30 35 O 39.780548 28.546955 50.253362 0
M  V30 36 H 37.578341 34.517924 59.031017 0
M  V30 37 H 37.789269 34.223387 60.741304 0
M  V30 38 H 42.531355 34.936674 64.351983 0
M  V30 39 H 41.227151 34.507814 65.436277 0
M  V30 40 H 41.035856 29.447513 52.182393 0
M  V30 41 H 36.927414 30.515607 60.796543 0
M  V30 42 H 37.937095 30.418342 62.229393 0
M  V30 43 H 37.015588 31.879289 61.910231 0
M  V30 44 H 39.068221 31.767069 52.544358 0
M  V30 45 H 40.522290 31.438335 53.426367 0
M  V30 46 H 39.367570 33.016716 59.126362 0
M  V30 47 H 41.627711 30.136861 63.917564 0
M  V30 48 H 42.710168 30.414222 65.137483 0
M  V30 49 H 35.865417 33.035896 59.026657 0
M  V30 50 H 37.255336 29.177575 53.281487 0
M  V30 51 H 38.269030 25.392626 58.866426 0
M  V30 52 H 36.738294 24.819684 58.165354 0
M  V30 53 H 39.206972 29.131211 56.204792 0
M  V30 54 H 40.085937 31.620528 50.308065 0
M  V30 55 H 41.699920 30.926143 50.488873 0
M  V30 56 H 38.989494 27.489088 58.032569 0
M  V30 57 H 37.214077 30.506638 55.233800 0
M  V30 58 H 37.466709 31.764974 54.071502 0
M  V30 59 H 41.067208 29.341942 48.811133 0
M  V30 60 H 39.467575 30.006415 48.831212 0
M  V30 61 H 37.067004 26.460527 53.558315 0
M  V30 62 H 36.860342 24.820444 55.406822 0
M  V30 63 H 39.519818 32.545331 55.469422 0
M  V30 64 H 39.351258 30.811490 60.233907 0
M  V30 65 H 38.293721 27.431098 51.987332 0
M  V30 66 H 39.867780 27.719377 52.677993 0
M  V30 67 H 37.051530 31.115937 58.498388 0
M  V30 68 H 39.646761 29.909864 54.666100 0
M  V30 END ATOM
M  V30 BEGIN BOND
M  V30 1 1 11 6
M  V30 2 1 11 9
M  V30 3 1 12 3
M  V30 4 1 12 8
M  V30 5 1 13 1
M  V30 6 1 14 3
M  V30 7 1 15 9
M  V30 8 2 16 8
M  V30 9 1 17 1
M  V30 10 1 18 4
M  V30 11 1 18 6
M  V30 12 1 20 2
M  V30 13 1 20 7
M  V30 14 1 21 4
M  V30 15 1 22 9
M  V30 16 1 23 2
M  V30 17 2 23 21
M  V30 18 1 24 6
M  V30 19 1 25 5
M  V30 20 2 25 12
M  V30 21 1 26 22
M  V30 22 2 27 4
M  V30 23 2 28 2
M  V30 24 1 28 27
M  V30 25 1 29 3
M  V30 26 1 29 5
M  V30 27 2 30 19
M  V30 28 1 30 24
M  V30 29 1 31 10
M  V30 30 1 31 13
M  V30 31 1 32 8
M  V30 32 1 32 31
M  V30 33 1 33 15
M  V30 34 1 33 18
M  V30 35 1 34 13
M  V30 36 2 34 19
M  V30 37 1 35 15
M  V30 38 1 35 26
M  V30 39 1 36 1
M  V30 40 1 37 1
M  V30 41 1 38 5
M  V30 42 1 39 5
M  V30 43 1 9 40 CFG=1
M  V30 44 1 41 10
M  V30 45 1 42 10
M  V30 46 1 43 10
M  V30 47 1 44 11
M  V30 48 1 45 11
M  V30 49 1 13 46 CFG=3
M  V30 50 1 47 14
M  V30 51 1 48 14
M  V30 52 1 49 17
M  V30 53 1 18 50 CFG=3
M  V30 54 1 51 20
M  V30 55 1 52 20
M  V30 56 1 53 21
M  V30 57 1 54 22
M  V30 58 1 55 22
M  V30 59 1 56 23
M  V30 60 1 57 24
M  V30 61 1 58 24
M  V30 62 1 59 26
M  V30 63 1 60 26
M  V30 64 1 61 27
M  V30 65 1 62 28
M  V30 66 1 63 30
M  V30 67 1 31 64 CFG=3
M  V30 68 1 65 33
M  V30 69 1 66 33
M  V30 70 1 67 34
M  V30 71 1 6 68 CFG=1
M  V30 END BOND
M  V30 END CTAB
M  END
>  <i_epik_Tot_Q>  (1) 
1

>  <i_epik_Tot_abs_Q>  (1) 
1

>  <i_i_glide_confnum>  (1) 
154

>  <i_i_glide_lignum>  (1) 
44

>  <i_i_glide_posenum>  (1) 
38

>  <i_i_glide_rotatable_bonds>  (1) 
11

>  <i_lp_mmshare_version>  (1) 
72125

>  <i_m_source_file_index>  (1) 
14

>  <i_f3d_flags>  (1) 
0

>  <num_sample>  (1) 
50

>  <b_lp_Chiralities_Consistent>  (1) 
1

>  <r_epik_Charging_Adjusted_Penalty>  (1) 
1.4651263053542571

>  <r_epik_Ionization_Penalty>  (1) 
0.72306607658712641

>  <r_epik_Ionization_Penalty_Charging>  (1) 
0.72300917426663169

>  <r_epik_Ionization_Penalty_Neutral>  (1) 
5.6902320494737884e-05

>  <r_epik_State_Penalty>  (1) 
0.74211713108762534

>  <r_glide_ring_energy>  (1) 
0

>  <r_i_docking_score>  (1) 
-7.6978154144186712

>  <r_i_glide_ecoul>  (1) 
-3.1517028213398843

>  <r_i_glide_eff_state_penalty>  (1) 
0.74211713108762534

>  <r_i_glide_einternal>  (1) 
12.862903889400314

>  <r_i_glide_emodel>  (1) 
-66.03182104079012

>  <r_i_glide_emodel_strain>  (1) 
4.1812628823168865

>  <r_i_glide_energy>  (1) 
-52.655453768517518

>  <r_i_glide_erotb>  (1) 
0.76112016271400151

>  <r_i_glide_esite>  (1) 
0

>  <r_i_glide_evdw>  (1) 
-49.503750947177636

>  <r_i_glide_gscore>  (1) 
-8.4399325455062968

>  <r_i_glide_gscore_strain>  (1) 
0.045315720579221619

>  <r_i_glide_hbond>  (1) 
-0.30537671859951493

>  <r_i_glide_ligand_efficiency>  (1) 
-0.2199375832691049

>  <r_i_glide_ligand_efficiency_ln>  (1) 
-1.6898413272732007

>  <r_i_glide_ligand_efficiency_sa>  (1) 
-0.71943041897586679

>  <r_i_glide_lipo>  (1) 
-3.5270304697469306

>  <r_i_glide_metal>  (1) 
-0

>  <r_i_glide_rewards>  (1) 
-2.4660182698932096

>  <r_lp_Energy>  (1) 
-5.3362069999999999

>  <s_epik_Chemistry_Notes>  (1) 
This compound has an ester and may undergo hydrolysis at high or low pH. This compound has an imine and may undergo hydrolysis. This compound contains an acetal/aminal-like group ( X-CH(R)-Y where X, Y are N, S, or O) that may be acid/base labile, releasing an aldehyde. This compound has a N-S or N-O group and may undergo hydrolysis at high or low pH.

>  <s_epik_cmdline>  (1) 
J2VwaWtfcHl0aG9uJywgJy1waHQnLCAnMS4wJywgJy1waCcsICc3LjQnLCAnLXRuJywgJzgnLCAnLW1hJywgJzUwMCcsICctaW1hZScsICc8aW5maWxlLm1hZT4nLCAnLW9tYWUnLCAnPG91dGZpbGUubWFlPic=

>  <s_epik_input>  (1) 
TzFbQ0gyXU49QyhOMVtOSDJdKUMoPU8pT1tDQEBIXShbQ0gzXSlbQ0BIXShbQ0gyXVtPSF0pW0NIXT1DPVtDSF1bQ0gyXU4oW0NIMl0yKVtDQEhdKGMoW2NIXVtjSF0zKVtjSF1bY0hdYzNbQ0gyXUYpW0NIMl1OKFtDQEhdMjQpT1tDSDJdW0NIMl00

>  <s_glide_docking_method>  (1) 
confgen

>  <s_i_glide_gridfile>  (1) 
gpcr_5ht2c_6bqh_protein_autoprepared_prepared

>  <s_lp_Force_Field>  (1) 
S-OPLS

>  <s_lp_Variant>  (1) 
DiffSBDD_13_num_sample_50-3

>  <s_m_source_file>  (1) 
generated__ligand_DiffSBDD_2026-05-06_prepared.sdf

>  <GenAI_Model>  (1) 
DiffSBDD

>  <Protein>  (1) 
GPCR_5HT2C

$$$$
DiffSBDD_31_num_sample_50
     RDKit          3D

  0  0  0  0  0  0  0  0  0  0999 V3000
M  V30 BEGIN CTAB
M  V30 COUNTS 35 36 0 0 1
M  V30 BEGIN ATOM
M  V30 1 C 39.461853 28.151592 51.014269 0
M  V30 2 C 39.459803 28.513794 52.372492 0
M  V30 3 C 40.267403 30.378220 50.416118 0
M  V30 4 C 38.792459 27.755694 56.025174 0
M  V30 5 C 38.302275 28.495673 57.133525 0
M  V30 6 C 39.026393 27.494167 53.450433 0
M  V30 7 C 38.460501 28.188759 54.697159 0
M  V30 8 O 37.067405 30.366701 57.984403 0
M  V30 9 O 41.136197 27.517981 57.853311 0
M  V30 10 C 40.267392 30.741712 51.764852 0
M  V30 11 C 37.617761 29.300872 54.521933 0
M  V30 12 C 39.675644 26.514392 56.263926 0 CFG=2
M  V30 13 C 39.095592 25.489618 57.263721 0
M  V30 14 C 39.867404 29.821707 52.742404 0
M  V30 15 C 39.867403 29.088930 50.040000 0
M  V30 16 F 38.608773 28.117084 58.398737 0
M  V30 17 N 41.067394 26.821434 56.584095 0
M  V30 18 C 37.157568 30.021434 55.617684 0
M  V30 19 C 37.505126 29.633949 56.922745 0
M  V30 20 H 39.155194 27.158786 50.715825 0
M  V30 21 H 40.577795 31.090366 49.665024 0
M  V30 22 H 39.912640 26.897927 53.642181 0
M  V30 23 H 38.267298 26.825213 53.043187 0
M  V30 24 H 36.417617 31.012051 57.674377 0
M  V30 25 H 40.426409 27.127815 58.343574 0
M  V30 26 H 40.579008 31.726020 52.054177 0
M  V30 27 H 37.352525 29.621443 53.526937 0
M  V30 28 H 39.716117 25.930140 55.351195 0
M  V30 29 H 38.088208 25.194593 56.968121 0
M  V30 30 H 39.702936 24.583764 57.277531 0
M  V30 31 H 39.040460 25.847235 58.290246 0
M  V30 32 H 39.885659 30.114061 53.781008 0
M  V30 33 H 39.869424 28.821431 49.006420 0
M  V30 34 H 41.660722 26.000250 56.727882 0
M  V30 35 H 36.542031 30.885691 55.453502 0
M  V30 END ATOM
M  V30 BEGIN BOND
M  V30 1 1 2 1
M  V30 2 1 5 4
M  V30 3 1 6 2
M  V30 4 2 7 4
M  V30 5 1 7 6
M  V30 6 2 10 3
M  V30 7 1 11 7
M  V30 8 1 12 4
M  V30 9 1 13 12
M  V30 10 2 14 2
M  V30 11 1 14 10
M  V30 12 2 15 1
M  V30 13 1 15 3
M  V30 14 1 16 5
M  V30 15 1 17 9
M  V30 16 1 17 12
M  V30 17 2 18 11
M  V30 18 2 19 5
M  V30 19 1 19 8
M  V30 20 1 19 18
M  V30 21 1 20 1
M  V30 22 1 21 3
M  V30 23 1 22 6
M  V30 24 1 23 6
M  V30 25 1 24 8
M  V30 26 1 25 9
M  V30 27 1 26 10
M  V30 28 1 27 11
M  V30 29 1 12 28 CFG=3
M  V30 30 1 29 13
M  V30 31 1 30 13
M  V30 32 1 31 13
M  V30 33 1 32 14
M  V30 34 1 33 15
M  V30 35 1 34 17
M  V30 36 1 35 18
M  V30 END BOND
M  V30 END CTAB
M  END
>  <i_epik_Tot_Q>  (1) 
0

>  <i_epik_Tot_abs_Q>  (1) 
0

>  <i_i_glide_confnum>  (1) 
113

>  <i_i_glide_lignum>  (1) 
83

>  <i_i_glide_posenum>  (1) 
136

>  <i_i_glide_rotatable_bonds>  (1) 
6

>  <i_lp_mmshare_version>  (1) 
72125

>  <i_m_source_file_index>  (1) 
32

>  <i_f3d_flags>  (1) 
0

>  <num_sample>  (1) 
50

>  <b_lp_Chiralities_Consistent>  (1) 
1

>  <r_epik_Charging_Adjusted_Penalty>  (1) 
0.023527113832685478

>  <r_epik_Ionization_Penalty>  (1) 
0.024468661873060751

>  <r_epik_Ionization_Penalty_Charging>  (1) 
0

>  <r_epik_Ionization_Penalty_Neutral>  (1) 
0.024468661873060751

>  <r_epik_State_Penalty>  (1) 
0.023527113832685478

>  <r_glide_ring_energy>  (1) 
0

>  <r_i_docking_score>  (1) 
-7.6935363070550924

>  <r_i_glide_ecoul>  (1) 
-10.947963970286681

>  <r_i_glide_eff_state_penalty>  (1) 
0.023527113832685478

>  <r_i_glide_einternal>  (1) 
1.4010445463571259

>  <r_i_glide_emodel>  (1) 
-47.880912571609109

>  <r_i_glide_emodel_strain>  (1) 
1.1146259359647956

>  <r_i_glide_energy>  (1) 
-30.079389397405222

>  <r_i_glide_erotb>  (1) 
1.038060136543584

>  <r_i_glide_esite>  (1) 
0

>  <r_i_glide_evdw>  (1) 
-19.131425427118543

>  <r_i_glide_gscore>  (1) 
-7.7170634208877775

>  <r_i_glide_gscore_strain>  (1) 
0

>  <r_i_glide_hbond>  (1) 
-0.45599999999999996

>  <r_i_glide_ligand_efficiency>  (1) 
-0.40492296352921536

>  <r_i_glide_ligand_efficiency_ln>  (1) 
-1.9504766958471065

>  <r_i_glide_ligand_efficiency_sa>  (1) 
-1.0804971034867346

>  <r_i_glide_lipo>  (1) 
-3.2335309563479955

>  <r_i_glide_metal>  (1) 
-0

>  <r_i_glide_rewards>  (1) 
-2.466826734184437

>  <r_lp_Energy>  (1) 
22.995338

>  <r_lp_tautomer_probability>  (1) 
0.99999999999736477

>  <s_epik_Chemistry_Notes>  (1) 
This compound has a N-S or N-O group and may undergo hydrolysis at high or low pH.

>  <s_epik_cmdline>  (1) 
J2VwaWtfcHl0aG9uJywgJy1waHQnLCAnMS4wJywgJy1waCcsICc3LjQnLCAnLXRuJywgJzgnLCAnLW1hJywgJzUwMCcsICctaW1hZScsICc8aW5maWxlLm1hZT4nLCAnLW9tYWUnLCAnPG91dGZpbGUubWFlPic=

>  <s_epik_input>  (1) 
W2NIXTFbY0hdW2NIXVtjSF1bY0hdYzFbQ0gyXWMyW2NIXVtjSF1jKFtPSF0pYyhGKWMyW0NASF0oW0NIM10pW05IXVtPSF0=

>  <s_glide_docking_method>  (1) 
confgen

>  <s_i_glide_gridfile>  (1) 
gpcr_5ht2c_6bqh_protein_autoprepared_prepared

>  <s_lp_Force_Field>  (1) 
S-OPLS

>  <s_lp_Variant>  (1) 
DiffSBDD_31_num_sample_50-1

>  <s_m_source_file>  (1) 
generated__ligand_DiffSBDD_2026-05-06_prepared.sdf

>  <GenAI_Model>  (1) 
DiffSBDD

>  <Protein>  (1) 
GPCR_5HT2C

$$$$
DiffSBDD_6_num_sample_50
     RDKit          3D

  0  0  0  0  0  0  0  0  0  0999 V3000
M  V30 BEGIN CTAB
M  V30 COUNTS 65 68 0 0 1
M  V30 BEGIN ATOM
M  V30 1 N 40.397220 32.364826 63.158257 0
M  V30 2 N 37.755309 34.304133 60.448998 0
M  V30 3 C 37.061012 34.346649 59.369348 0
M  V30 4 C 42.410388 34.968556 65.069056 0
M  V30 5 C 37.583822 25.203009 57.189673 0
M  V30 6 N 38.491666 31.361209 58.673150 0
M  V30 7 N 36.900574 33.221399 58.653536 0
M  V30 8 N 39.940127 29.565814 59.037833 0
M  V30 9 C 40.075023 34.530967 62.085895 0
M  V30 10 C 39.116297 26.003472 54.968659 0
M  V30 11 N 38.988875 32.433238 61.166592 0 CHG=1
M  V30 12 O 39.288350 26.071092 58.651885 0
M  V30 13 C 38.586498 31.329488 56.389084 0
M  V30 14 C 37.467411 29.005916 53.453802 0
M  V30 15 F 39.851048 26.386858 53.897150 0
M  V30 16 C 37.412163 32.086232 59.312499 0 CFG=2
M  V30 17 C 38.831732 25.831505 57.383511 0
M  V30 18 C 41.795173 32.067844 65.127224 0
M  V30 19 C 37.326315 30.013479 54.604233 0
M  V30 20 F 36.845676 24.821438 58.253456 0
M  V30 21 C 37.101973 24.981314 55.889692 0
M  V30 22 C 39.251089 30.956481 61.013333 0
M  V30 23 C 41.199144 32.969071 64.060671 0
M  V30 24 C 37.863124 25.385176 54.779986 0
M  V30 25 C 40.913309 35.141496 63.032628 0
M  V30 26 C 38.685174 30.350319 55.219288 0
M  V30 27 C 38.851373 30.321216 59.635923 0 CFG=1
M  V30 28 C 41.487895 34.349492 64.037374 0
M  V30 29 O 37.976988 30.693864 57.510363 0
M  V30 30 F 40.797239 26.833260 56.452932 0
M  V30 31 C 40.096719 28.201873 59.518490 0
M  V30 32 C 39.599759 26.228297 56.270211 0
M  V30 33 C 38.083001 32.967625 60.367166 0
M  V30 34 C 38.884734 27.348497 59.124568 0
M  V30 35 C 39.833589 33.125848 62.186466 0
M  V30 36 H 36.581310 35.247860 58.982311 0
M  V30 37 H 36.299925 33.087755 57.836235 0
M  V30 38 H 42.596707 36.021226 64.855306 0
M  V30 39 H 43.371288 34.453509 65.053503 0
M  V30 40 H 41.982705 34.895236 66.068914 0
M  V30 41 H 39.755807 29.531462 58.042420 0
M  V30 42 H 39.660730 35.125504 61.299397 0
M  V30 43 H 38.017649 32.218762 56.110910 0
M  V30 44 H 39.602747 31.660565 56.615999 0
M  V30 45 H 36.513039 28.782204 52.982755 0
M  V30 46 H 37.873471 28.065571 53.812588 0
M  V30 47 H 38.140768 29.375546 52.680486 0
M  V30 48 H 41.527895 32.422949 66.122551 0
M  V30 49 H 42.881766 32.041562 65.045118 0
M  V30 50 H 41.428015 31.045258 65.029959 0
M  V30 51 H 36.851617 30.929605 54.253499 0
M  V30 52 H 36.667329 29.621383 55.376537 0
M  V30 53 H 36.143839 24.505043 55.743460 0
M  V30 54 H 38.751332 30.453119 61.842410 0
M  V30 55 H 40.324197 30.822830 61.156038 0
M  V30 56 H 37.484767 25.221491 53.783772 0
M  V30 57 H 41.120745 36.201042 62.980122 0
M  V30 58 H 39.186330 29.439415 55.549012 0
M  V30 59 H 39.321564 30.787686 54.448486 0
M  V30 60 H 37.977535 29.683117 59.777466 0
M  V30 61 H 40.996627 27.795879 59.053378 0
M  V30 62 H 40.263118 28.178745 60.596355 0
M  V30 63 H 38.255711 27.867247 58.395249 0
M  V30 64 H 38.267439 27.221618 60.007920 0
M  V30 65 H 36.615730 31.467283 59.729705 0
M  V30 END ATOM
M  V30 BEGIN BOND
M  V30 1 2 3 2
M  V30 2 1 7 3
M  V30 3 1 15 10
M  V30 4 1 16 6
M  V30 5 1 16 7
M  V30 6 2 17 5
M  V30 7 1 17 12
M  V30 8 1 19 14
M  V30 9 1 20 5
M  V30 10 1 21 5
M  V30 11 1 22 11
M  V30 12 1 23 1
M  V30 13 1 23 18
M  V30 14 1 24 10
M  V30 15 2 24 21
M  V30 16 2 25 9
M  V30 17 1 26 13
M  V30 18 1 26 19
M  V30 19 1 27 6
M  V30 20 1 27 8
M  V30 21 1 27 22
M  V30 22 1 28 4
M  V30 23 2 28 23
M  V30 24 1 28 25
M  V30 25 1 29 6
M  V30 26 1 29 13
M  V30 27 1 31 8
M  V30 28 2 32 10
M  V30 29 1 32 17
M  V30 30 1 32 30
M  V30 31 1 33 2
M  V30 32 2 33 11
M  V30 33 1 33 16
M  V30 34 1 34 12
M  V30 35 1 34 31
M  V30 36 2 35 1
M  V30 37 1 35 9
M  V30 38 1 35 11
M  V30 39 1 36 3
M  V30 40 1 37 7
M  V30 41 1 38 4
M  V30 42 1 39 4
M  V30 43 1 40 4
M  V30 44 1 41 8
M  V30 45 1 42 9
M  V30 46 1 43 13
M  V30 47 1 44 13
M  V30 48 1 45 14
M  V30 49 1 46 14
M  V30 50 1 47 14
M  V30 51 1 48 18
M  V30 52 1 49 18
M  V30 53 1 50 18
M  V30 54 1 51 19
M  V30 55 1 52 19
M  V30 56 1 53 21
M  V30 57 1 54 22
M  V30 58 1 55 22
M  V30 59 1 56 24
M  V30 60 1 57 25
M  V30 61 1 58 26
M  V30 62 1 59 26
M  V30 63 1 27 60 CFG=1
M  V30 64 1 61 31
M  V30 65 1 62 31
M  V30 66 1 63 34
M  V30 67 1 64 34
M  V30 68 1 16 65 CFG=1
M  V30 END BOND
M  V30 END CTAB
M  END
>  <i_epik_Tot_Q>  (1) 
1

>  <i_epik_Tot_abs_Q>  (1) 
1

>  <i_i_glide_confnum>  (1) 
642

>  <i_i_glide_lignum>  (1) 
22

>  <i_i_glide_posenum>  (1) 
132

>  <i_i_glide_rotatable_bonds>  (1) 
10

>  <i_lp_mmshare_version>  (1) 
72125

>  <i_m_source_file_index>  (1) 
7

>  <i_f3d_flags>  (1) 
0

>  <num_sample>  (1) 
50

>  <b_lp_Chiralities_Consistent>  (1) 
1

>  <r_epik_Charging_Adjusted_Penalty>  (1) 
0.81638474559902796

>  <r_epik_Ionization_Penalty>  (1) 
6.3086919552564762

>  <r_epik_Ionization_Penalty_Charging>  (1) 
0

>  <r_epik_Ionization_Penalty_Neutral>  (1) 
6.3086919552564762

>  <r_epik_State_Penalty>  (1) 
0.81638474559902796

>  <r_glide_ring_energy>  (1) 
0

>  <r_i_docking_score>  (1) 
-7.6913800787469322

>  <r_i_glide_ecoul>  (1) 
-5.6115058842988246

>  <r_i_glide_eff_state_penalty>  (1) 
0.81638474559902796

>  <r_i_glide_einternal>  (1) 
11.98552714780077

>  <r_i_glide_emodel>  (1) 
-76.598049311021114

>  <r_i_glide_emodel_strain>  (1) 
0.34702973970040318

>  <r_i_glide_energy>  (1) 
-51.848145986530753

>  <r_i_glide_erotb>  (1) 
0.67408029721787976

>  <r_i_glide_esite>  (1) 
-0.32540386356979223

>  <r_i_glide_evdw>  (1) 
-46.236640102231931

>  <r_i_glide_gscore>  (1) 
-8.5077648243459603

>  <r_i_glide_gscore_strain>  (1) 
0

>  <r_i_glide_hbond>  (1) 
-0.14317257273099676

>  <r_i_glide_ligand_efficiency>  (1) 
-0.21975371653562664

>  <r_i_glide_ligand_efficiency_ln>  (1) 
-1.6884286282686738

>  <r_i_glide_ligand_efficiency_sa>  (1) 
-0.71882897869842155

>  <r_i_glide_lipo>  (1) 
-4.2179543380982052

>  <r_i_glide_metal>  (1) 
-0

>  <r_i_glide_rewards>  (1) 
-1.3417564594084246

>  <r_lp_Energy>  (1) 
45.017523999999995

>  <r_lp_tautomer_probability>  (1) 
0.23620936778007409

>  <s_epik_Chemistry_Notes>  (1) 
This compound has an imine and may undergo hydrolysis. This compound contains an acetal/aminal-like group ( X-CH(R)-Y where X, Y are N, S, or O) that may be acid/base labile, releasing an aldehyde. This compound has a N-S or N-O group and may undergo hydrolysis at high or low pH.

>  <s_epik_cmdline>  (1) 
J2VwaWtfcHl0aG9uJywgJy1waHQnLCAnMS4wJywgJy1waCcsICc3LjQnLCAnLXRuJywgJzgnLCAnLW1hJywgJzUwMCcsICctaW1hZScsICc8aW5maWxlLm1hZT4nLCAnLW9tYWUnLCAnPG91dGZpbGUubWFlPic=

>  <s_epik_input>  (1) 
W0NIM11jMVtjSF1bY0hdYyhuYzFbQ0gzXSlOKEMoQzIzKT1OW0NIMl1OPTMpW0NIMl1bQ0BASF0oTjJPW0NIMl1bQ0gyXVtDSDJdW0NIM10pW05IXVtDSDJdW0NIMl1PYyhjNEYpYyhGKWMoRilbY0hdW2NIXTQ=

>  <s_glide_docking_method>  (1) 
confgen

>  <s_i_glide_gridfile>  (1) 
gpcr_5ht2c_6bqh_protein_autoprepared_prepared

>  <s_lp_Force_Field>  (1) 
S-OPLS

>  <s_lp_Variant>  (1) 
DiffSBDD_6_num_sample_50-3

>  <s_m_source_file>  (1) 
generated__ligand_DiffSBDD_2026-05-06_prepared.sdf

>  <GenAI_Model>  (1) 
DiffSBDD

>  <Protein>  (1) 
GPCR_5HT2C

$$$$
DiffSBDD_23_num_sample_50
     RDKit          3D

  0  0  0  0  0  0  0  0  0  0999 V3000
M  V30 BEGIN CTAB
M  V30 COUNTS 61 65 0 0 1
M  V30 BEGIN ATOM
M  V30 1 C 42.465619 31.180656 67.009299 0
M  V30 2 C 38.526886 27.246249 55.306896 0 CFG=1
M  V30 3 C 40.491890 32.240781 62.761418 0
M  V30 4 C 38.361953 32.313117 59.061490 0 CFG=1
M  V30 5 S 39.302508 30.958788 53.853496 0
M  V30 6 C 40.566813 31.446211 63.912781 0
M  V30 7 C 41.123341 31.089087 66.330277 0
M  V30 8 N 39.661989 29.341801 51.862354 0
M  V30 9 C 38.800047 29.294537 54.009656 0
M  V30 10 C 38.808614 27.126663 52.688955 0
M  V30 11 S 37.204105 29.842656 58.871547 0
M  V30 12 O 38.402109 29.216552 59.449970 0
M  V30 13 C 41.419277 34.126144 63.985825 0
M  V30 14 C 38.186723 28.758010 55.247086 0 CFG=2
M  V30 15 N 37.163440 31.510520 59.279248 0
M  V30 16 C 40.918048 33.575647 62.793783 0
M  V30 17 C 41.066358 31.980314 65.120168 0
M  V30 18 C 36.828418 32.639561 61.453496 0
M  V30 19 C 42.349476 32.247733 68.069995 0
M  V30 20 O 42.351155 31.931889 69.258354 0
M  V30 21 Cl 37.867403 33.621428 57.969486 0
M  V30 22 C 42.044592 34.033005 66.416342 0
M  V30 23 S 39.856407 31.550047 61.269283 0
M  V30 24 N 37.457922 30.021426 57.189531 0
M  V30 25 O 35.867400 29.267171 59.053484 0
M  V30 26 N 42.260868 33.539198 67.586089 0
M  V30 27 C 36.160661 32.068690 60.195615 0
M  V30 28 C 39.067401 28.577157 52.872645 0
M  V30 29 C 39.867405 30.595576 52.245117 0
M  V30 30 O 37.921501 33.491688 61.134634 0
M  V30 31 C 41.504414 33.349257 65.168790 0
M  V30 32 N 38.534902 29.514336 56.448776 0
M  V30 33 N 37.867394 26.590928 56.451656 0 CHG=1
M  V30 34 C 38.947558 32.855252 60.379642 0 CFG=2
M  V30 35 C 38.123264 26.552989 53.967234 0
M  V30 36 H 43.292126 31.358567 66.318501 0
M  V30 37 H 42.681314 30.236722 67.512211 0
M  V30 38 H 39.602942 27.127212 55.448673 0
M  V30 39 H 39.081181 31.725406 58.504495 0
M  V30 40 H 40.234923 30.417684 63.875868 0
M  V30 41 H 40.973073 30.055487 66.014522 0
M  V30 42 H 40.283174 31.310542 66.992475 0
M  V30 43 H 38.196158 26.943983 51.804873 0
M  V30 44 H 39.754453 26.609776 52.523877 0
M  V30 45 H 41.741095 35.158424 63.999115 0
M  V30 46 H 37.109056 28.853057 55.103181 0
M  V30 47 H 40.861298 34.185180 61.905619 0
M  V30 48 H 37.155869 31.837459 62.115646 0
M  V30 49 H 36.099354 33.226992 62.008824 0
M  V30 50 H 42.266422 35.094117 66.272883 0
M  V30 51 H 36.946945 30.811347 56.768515 0
M  V30 52 H 35.420417 31.315986 60.463812 0
M  V30 53 H 35.620420 32.858361 59.671839 0
M  V30 54 H 40.333202 31.306464 51.577731 0
M  V30 55 H 39.149029 28.980807 57.061425 0
M  V30 56 H 36.864389 26.646570 56.346825 0
M  V30 57 H 38.148722 25.622505 56.500277 0
M  V30 58 H 39.680228 33.618383 60.119812 0
M  V30 59 H 37.051130 26.690777 53.838765 0
M  V30 60 H 38.267455 25.477278 54.031196 0
M  V30 61 H 38.133689 27.060886 57.305752 0
M  V30 END ATOM
M  V30 BEGIN BOND
M  V30 1 2 6 3
M  V30 2 1 7 1
M  V30 3 1 9 5
M  V30 4 2 12 11
M  V30 5 1 14 2
M  V30 6 1 14 9
M  V30 7 1 15 4
M  V30 8 1 15 11
M  V30 9 1 16 3
M  V30 10 2 16 13
M  V30 11 1 17 6
M  V30 12 1 17 7
M  V30 13 1 19 1
M  V30 14 2 20 19
M  V30 15 1 21 4
M  V30 16 1 23 3
M  V30 17 1 24 11
M  V30 18 2 25 11
M  V30 19 1 26 19
M  V30 20 2 26 22
M  V30 21 1 27 15
M  V30 22 1 27 18
M  V30 23 1 28 8
M  V30 24 2 28 9
M  V30 25 1 28 10
M  V30 26 1 29 5
M  V30 27 2 29 8
M  V30 28 1 30 18
M  V30 29 1 31 13
M  V30 30 2 31 17
M  V30 31 1 31 22
M  V30 32 1 32 14
M  V30 33 1 32 24
M  V30 34 1 33 2
M  V30 35 1 34 4
M  V30 36 1 34 23
M  V30 37 1 34 30
M  V30 38 1 35 2
M  V30 39 1 35 10
M  V30 40 1 36 1
M  V30 41 1 37 1
M  V30 42 1 2 38 CFG=1
M  V30 43 1 4 39 CFG=3
M  V30 44 1 40 6
M  V30 45 1 41 7
M  V30 46 1 42 7
M  V30 47 1 43 10
M  V30 48 1 44 10
M  V30 49 1 45 13
M  V30 50 1 14 46 CFG=3
M  V30 51 1 47 16
M  V30 52 1 48 18
M  V30 53 1 49 18
M  V30 54 1 50 22
M  V30 55 1 51 24
M  V30 56 1 52 27
M  V30 57 1 53 27
M  V30 58 1 54 29
M  V30 59 1 55 32
M  V30 60 1 56 33
M  V30 61 1 57 33
M  V30 62 1 34 58 CFG=3
M  V30 63 1 59 35
M  V30 64 1 60 35
M  V30 65 1 61 33
M  V30 END BOND
M  V30 END CTAB
M  END
>  <i_epik_Tot_Q>  (1) 
1

>  <i_epik_Tot_abs_Q>  (1) 
1

>  <i_i_glide_confnum>  (1) 
189

>  <i_i_glide_lignum>  (1) 
62

>  <i_i_glide_posenum>  (1) 
37

>  <i_i_glide_rotatable_bonds>  (1) 
6

>  <i_lp_mmshare_version>  (1) 
72125

>  <i_m_source_file_index>  (1) 
24

>  <i_f3d_flags>  (1) 
0

>  <num_sample>  (1) 
50

>  <b_lp_Chiralities_Consistent>  (1) 
1

>  <r_epik_Charging_Adjusted_Penalty>  (1) 
0.20786405117440027

>  <r_epik_Ionization_Penalty>  (1) 
0.17784020352230567

>  <r_epik_Ionization_Penalty_Charging>  (1) 
0.046839863378715332

>  <r_epik_Ionization_Penalty_Neutral>  (1) 
0.13100034014359035

>  <r_epik_State_Penalty>  (1) 
0.16102418779568495

>  <r_glide_ring_energy>  (1) 
0.36391509760430946

>  <r_i_docking_score>  (1) 
-7.6831675155454056

>  <r_i_glide_ecoul>  (1) 
-4.0132404771564278

>  <r_i_glide_eff_state_penalty>  (1) 
0.16102418779568495

>  <r_i_glide_einternal>  (1) 
6.6561275546928487

>  <r_i_glide_emodel>  (1) 
-82.167919253105467

>  <r_i_glide_emodel_strain>  (1) 
3.99243287208418

>  <r_i_glide_energy>  (1) 
-58.591129626916597

>  <r_i_glide_erotb>  (1) 
0.32266353053763186

>  <r_i_glide_esite>  (1) 
-0.29440708686213818

>  <r_i_glide_evdw>  (1) 
-54.577889149760168

>  <r_i_glide_gscore>  (1) 
-7.8441917033410906

>  <r_i_glide_gscore_strain>  (1) 
0

>  <r_i_glide_hbond>  (1) 
-0.13839000963903364

>  <r_i_glide_ligand_efficiency>  (1) 
-0.21951907187272587

>  <r_i_glide_ligand_efficiency_ln>  (1) 
-1.6866257883779188

>  <r_i_glide_ligand_efficiency_sa>  (1) 
-0.71806144044674136

>  <r_i_glide_lipo>  (1) 
-3.5711285350750219

>  <r_i_glide_metal>  (1) 
-0

>  <r_i_glide_rewards>  (1) 
-0.83204907324105559

>  <r_lp_Energy>  (1) 
46.497914999999999

>  <s_epik_Chemistry_Notes>  (1) 
This compound has an imine and may undergo hydrolysis. This compound contains an acetal/aminal-like group ( X-CH(R)-Y where X, Y are N, S, or O) that may be acid/base labile, releasing an aldehyde.

>  <s_epik_cmdline>  (1) 
J2VwaWtfcHl0aG9uJywgJy1waHQnLCAnMS4wJywgJy1waCcsICc3LjQnLCAnLXRuJywgJzgnLCAnLW1hJywgJzUwMCcsICctaW1hZScsICc8aW5maWxlLm1hZT4nLCAnLW9tYWUnLCAnPG91dGZpbGUubWFlPic=

>  <s_epik_input>  (1) 
W0NIMl0xW0NIMl1DKD1PKU49W0NIXWMoYzEyKVtjSF1bY0hdYyhbY0hdMilTW0NAQEhdM09bQ0gyXVtDSDJdTihbQ0BIXTNDbClTKD1PKSg9TylbTkhdW05IXVtDQEBIXTRbQ0BASF0oW05IMl0pW0NIMl1bQ0gyXWMoYzQ1KW5bY0hdczU=

>  <s_glide_docking_method>  (1) 
confgen

>  <s_i_glide_gridfile>  (1) 
gpcr_5ht2c_6bqh_protein_autoprepared_prepared

>  <s_lp_Force_Field>  (1) 
S-OPLS

>  <s_lp_Variant>  (1) 
DiffSBDD_23_num_sample_50-1

>  <s_m_source_file>  (1) 
generated__ligand_DiffSBDD_2026-05-06_prepared.sdf

>  <GenAI_Model>  (1) 
DiffSBDD

>  <Protein>  (1) 
GPCR_5HT2C

$$$$
DiffSBDD_43_num_sample_50
     RDKit          3D

  0  0  0  0  0  0  0  0  0  0999 V3000
M  V30 BEGIN CTAB
M  V30 COUNTS 63 64 0 0 1
M  V30 BEGIN ATOM
M  V30 1 O 39.363081 26.396273 55.562175 0
M  V30 2 C 40.913440 36.168763 62.360451 0
M  V30 3 C 38.644712 30.196370 57.433274 0
M  V30 4 C 38.718276 27.986922 51.511968 0
M  V30 5 C 38.962619 28.795629 55.281391 0 CFG=1
M  V30 6 C 41.283732 31.256064 64.880310 0
M  V30 7 C 39.564568 34.265367 61.628649 0
M  V30 8 O 41.327283 31.843186 62.578180 0
M  V30 9 C 40.821168 34.817978 61.973394 0
M  V30 10 C 39.714397 30.027471 53.177381 0
M  V30 11 C 38.509212 36.429417 62.060936 0
M  V30 12 C 39.067380 28.909907 53.750621 0
M  V30 13 C 38.559650 27.890182 52.907331 0
M  V30 14 C 36.706138 31.091135 60.331425 0
M  V30 15 O 35.867396 30.356658 59.776811 0 CHG=-1
M  V30 16 C 40.722448 30.928244 63.487376 0 CFG=1
M  V30 17 C 38.247956 30.003050 55.957014 0
M  V30 18 C 39.377306 29.096393 50.950941 0
M  V30 19 C 38.409807 35.079798 61.674889 0
M  V30 20 C 41.056718 29.474213 63.105734 0
M  V30 21 C 38.747285 32.631528 59.828753 0
M  V30 22 O 36.544922 31.621466 61.453444 0
M  V30 23 C 40.742740 31.945036 61.283926 0
M  V30 24 C 38.439140 27.437435 55.820200 0
M  V30 25 N 37.867533 31.006311 58.167444 0
M  V30 26 C 39.759948 36.973132 62.403894 0
M  V30 27 C 38.045607 31.267434 59.602694 0 CFG=2
M  V30 28 C 40.943381 32.671651 65.360391 0
M  V30 29 C 39.439426 32.789152 61.215676 0 CFG=1
M  V30 30 O 39.633526 29.621411 57.893940 0
M  V30 31 C 39.867404 30.117990 51.780940 0
M  V30 32 H 39.562002 26.394408 54.638368 0
M  V30 33 H 41.869851 36.588713 62.627140 0
M  V30 34 H 38.337101 27.204860 50.871120 0
M  V30 35 H 40.011150 28.852038 55.579033 0
M  V30 36 H 40.891057 30.537639 65.599250 0
M  V30 37 H 42.366287 31.124257 64.879222 0
M  V30 38 H 41.711970 34.210253 61.946673 0
M  V30 39 H 40.107945 30.808619 53.812060 0
M  V30 40 H 37.622888 37.046532 62.097177 0
M  V30 41 H 38.062228 27.030109 53.324166 0
M  V30 42 H 39.639970 31.056539 63.509078 0
M  V30 43 H 38.507392 30.935258 55.455573 0
M  V30 44 H 37.165025 29.902670 55.872280 0
M  V30 45 H 39.498065 29.167159 49.879888 0
M  V30 46 H 37.444700 34.664711 61.419805 0
M  V30 47 H 40.667214 28.781950 63.852614 0
M  V30 48 H 40.614437 29.183105 62.153684 0
M  V30 49 H 42.134109 29.318207 63.044763 0
M  V30 50 H 39.467674 32.826275 59.037145 0
M  V30 51 H 37.983794 33.395838 59.684478 0
M  V30 52 H 40.601208 30.952473 60.863783 0
M  V30 53 H 41.497737 32.402655 60.653506 0
M  V30 54 H 37.463153 27.190282 55.407817 0
M  V30 55 H 38.306742 27.474094 56.901333 0
M  V30 56 H 36.991676 31.343058 57.764714 0
M  V30 57 H 39.835550 38.008396 62.703591 0
M  V30 58 H 38.666758 30.475022 60.017092 0
M  V30 59 H 41.353690 32.854776 66.352666 0
M  V30 60 H 41.338966 33.434160 64.688540 0
M  V30 61 H 39.867705 32.808383 65.422553 0
M  V30 62 H 38.772568 32.384117 61.970171 0
M  V30 63 H 40.368405 30.971980 51.347017 0
M  V30 END ATOM
M  V30 BEGIN BOND
M  V30 1 1 9 2
M  V30 2 2 9 7
M  V30 3 1 12 5
M  V30 4 1 12 10
M  V30 5 1 13 4
M  V30 6 2 13 12
M  V30 7 1 15 14
M  V30 8 1 16 6
M  V30 9 1 16 8
M  V30 10 1 17 3
M  V30 11 1 17 5
M  V30 12 2 18 4
M  V30 13 1 19 7
M  V30 14 2 19 11
M  V30 15 1 20 16
M  V30 16 2 22 14
M  V30 17 1 23 8
M  V30 18 1 24 1
M  V30 19 1 24 5
M  V30 20 1 25 3
M  V30 21 2 26 2
M  V30 22 1 26 11
M  V30 23 1 27 14
M  V30 24 1 27 21
M  V30 25 1 27 25
M  V30 26 1 28 6
M  V30 27 1 29 7
M  V30 28 1 29 21
M  V30 29 1 29 23
M  V30 30 2 30 3
M  V30 31 2 31 10
M  V30 32 1 31 18
M  V30 33 1 32 1
M  V30 34 1 33 2
M  V30 35 1 34 4
M  V30 36 1 5 35 CFG=1
M  V30 37 1 36 6
M  V30 38 1 37 6
M  V30 39 1 38 9
M  V30 40 1 39 10
M  V30 41 1 40 11
M  V30 42 1 41 13
M  V30 43 1 16 42 CFG=1
M  V30 44 1 43 17
M  V30 45 1 44 17
M  V30 46 1 45 18
M  V30 47 1 46 19
M  V30 48 1 47 20
M  V30 49 1 48 20
M  V30 50 1 49 20
M  V30 51 1 50 21
M  V30 52 1 51 21
M  V30 53 1 52 23
M  V30 54 1 53 23
M  V30 55 1 54 24
M  V30 56 1 55 24
M  V30 57 1 56 25
M  V30 58 1 57 26
M  V30 59 1 27 58 CFG=1
M  V30 60 1 59 28
M  V30 61 1 60 28
M  V30 62 1 61 28
M  V30 63 1 29 62 CFG=1
M  V30 64 1 63 31
M  V30 END BOND
M  V30 END CTAB
M  END
>  <i_epik_Tot_Q>  (1) 
-1

>  <i_epik_Tot_abs_Q>  (1) 
1

>  <i_i_glide_confnum>  (1) 
1891

>  <i_i_glide_lignum>  (1) 
101

>  <i_i_glide_posenum>  (1) 
135

>  <i_i_glide_rotatable_bonds>  (1) 
15

>  <i_lp_mmshare_version>  (1) 
72125

>  <i_m_source_file_index>  (1) 
44

>  <i_f3d_flags>  (1) 
0

>  <num_sample>  (1) 
50

>  <b_lp_Chiralities_Consistent>  (1) 
1

>  <r_epik_Charging_Adjusted_Penalty>  (1) 
6.4622408798935545e-05

>  <r_epik_Ionization_Penalty>  (1) 
6.4697991859273242e-05

>  <r_epik_Ionization_Penalty_Charging>  (1) 
6.4622408798935545e-05

>  <r_epik_Ionization_Penalty_Neutral>  (1) 
7.5583060337697202e-08

>  <r_epik_State_Penalty>  (1) 
-0

>  <r_glide_ring_energy>  (1) 
0

>  <r_i_docking_score>  (1) 
-7.6616720133065144

>  <r_i_glide_ecoul>  (1) 
-6.4777846066262192

>  <r_i_glide_eff_state_penalty>  (1) 
-0

>  <r_i_glide_einternal>  (1) 
15.735751146189596

>  <r_i_glide_emodel>  (1) 
-61.723180007324956

>  <r_i_glide_emodel_strain>  (1) 
4.5354410741032289

>  <r_i_glide_energy>  (1) 
-49.692327371488304

>  <r_i_glide_erotb>  (1) 
1.0908865233182055

>  <r_i_glide_esite>  (1) 
-0.18339457430398234

>  <r_i_glide_evdw>  (1) 
-43.214542764862081

>  <r_i_glide_gscore>  (1) 
-7.6616720133065144

>  <r_i_glide_gscore_strain>  (1) 
0.13386026852580724

>  <r_i_glide_hbond>  (1) 
-0.32000000000000001

>  <r_i_glide_ligand_efficiency>  (1) 
-0.24715071010666176

>  <r_i_glide_ligand_efficiency_ln>  (1) 
-1.7279418410491674

>  <r_i_glide_ligand_efficiency_sa>  (1) 
-0.77639445895386128

>  <r_i_glide_lipo>  (1) 
-4.1883514367308354

>  <r_i_glide_metal>  (1) 
-0

>  <r_i_glide_rewards>  (1) 
-1.0622779648786729

>  <r_lp_Energy>  (1) 
36.114167000000002

>  <r_lp_tautomer_probability>  (1) 
1

>  <s_epik_cmdline>  (1) 
J2VwaWtfcHl0aG9uJywgJy1waHQnLCAnMS4wJywgJy1waCcsICc3LjQnLCAnLXRuJywgJzgnLCAnLW1hJywgJzUwMCcsICctaW1hZScsICc8aW5maWxlLm1hZT4nLCAnLW9tYWUnLCAnPG91dGZpbGUubWFlPic=

>  <s_epik_input>  (1) 
W2NIXTFbY0hdW2NIXVtjSF1bY0hdYzFbQ0BIXShbQ0gyXVtPSF0pW0NIMl1DKD1PKVtOSF1bQ0BIXShDKD1PKVtPSF0pW0NIMl1bQ0BASF0oW0NIMl1PW0NAQEhdKFtDSDNdKVtDSDJdW0NIM10pYzJbY0hdW2NIXVtjSF1bY0hdW2NIXTI=

>  <s_glide_docking_method>  (1) 
confgen

>  <s_i_glide_gridfile>  (1) 
gpcr_5ht2c_6bqh_protein_autoprepared_prepared

>  <s_lp_Force_Field>  (1) 
S-OPLS

>  <s_lp_Variant>  (1) 
DiffSBDD_43_num_sample_50-1

>  <s_m_source_file>  (1) 
generated__ligand_DiffSBDD_2026-05-06_prepared.sdf

>  <GenAI_Model>  (1) 
DiffSBDD

>  <Protein>  (1) 
GPCR_5HT2C

$$$$
DiffSBDD_23_num_sample_50
     RDKit          3D

  0  0  0  0  0  0  0  0  0  0999 V3000
M  V30 BEGIN CTAB
M  V30 COUNTS 61 65 0 0 1
M  V30 BEGIN ATOM
M  V30 1 C 42.150732 32.021173 64.145538 0
M  V30 2 C 38.824140 25.634631 57.713976 0 CFG=2
M  V30 3 C 39.045284 34.381199 61.347626 0
M  V30 4 C 37.345872 31.522527 59.346288 0 CFG=1
M  V30 5 S 39.066301 28.292542 54.622515 0
M  V30 6 C 39.421119 33.261138 62.102101 0
M  V30 7 C 40.669059 32.156063 63.963604 0
M  V30 8 N 37.467415 26.421540 53.832119 0
M  V30 9 C 38.516761 27.088591 55.776210 0
M  V30 10 C 37.080693 24.981020 55.860919 0
M  V30 11 S 39.220934 29.425777 59.569866 0
M  V30 12 O 39.976572 30.355797 60.420527 0
M  V30 13 C 40.508177 35.783838 62.692774 0
M  V30 14 C 38.921399 27.094773 57.212718 0 CFG=2
M  V30 15 N 37.937207 30.304916 58.743519 0
M  V30 16 C 39.588119 35.638801 61.637433 0
M  V30 17 C 40.329551 33.385582 63.168705 0
M  V30 18 C 38.693651 31.817444 56.902876 0
M  V30 19 C 42.495631 32.693121 65.454156 0
M  V30 20 O 42.848405 32.012889 66.415677 0
M  V30 21 Cl 36.941247 31.213921 61.053323 0
M  V30 22 C 41.869752 34.918735 64.623640 0
M  V30 23 S 37.862919 34.211887 60.037763 0
M  V30 24 N 40.260035 28.970307 58.257753 0
M  V30 25 O 38.667545 28.185198 60.125838 0
M  V30 26 N 42.391950 34.073484 65.445124 0
M  V30 27 C 37.989075 30.492888 57.283341 0
M  V30 28 C 37.692700 26.165050 55.183674 0
M  V30 29 C 38.106159 27.502554 53.405775 0
M  V30 30 O 38.267331 32.938375 57.677519 0
M  V30 31 C 40.894348 34.669085 63.481304 0
M  V30 32 N 40.205648 27.744323 57.541255 0
M  V30 33 N 39.867377 24.821441 57.066984 0 CHG=1
M  V30 34 C 38.287981 32.721916 59.085917 0 CFG=2
M  V30 35 C 37.435771 25.004827 57.377371 0
M  V30 36 H 42.702021 32.416328 63.294072 0
M  V30 37 H 42.416418 30.966549 64.232201 0
M  V30 38 H 38.985024 25.621424 58.792586 0
M  V30 39 H 36.385371 31.726481 58.875736 0
M  V30 40 H 39.005334 32.300546 61.877371 0
M  V30 41 H 40.310575 31.275766 63.428138 0
M  V30 42 H 40.115002 32.163856 64.905330 0
M  V30 43 H 36.000799 24.950413 55.726901 0
M  V30 44 H 37.468810 24.067974 55.407648 0
M  V30 45 H 40.917489 36.760356 62.909973 0
M  V30 46 H 38.138163 27.636272 57.740498 0
M  V30 47 H 39.296441 36.499389 61.054732 0
M  V30 48 H 38.523156 32.037849 55.848875 0
M  V30 49 H 39.770305 31.702220 57.014084 0
M  V30 50 H 42.143450 35.969957 64.745602 0
M  V30 51 H 41.203738 29.352129 58.323805 0
M  V30 52 H 36.979075 30.421607 56.889280 0
M  V30 53 H 38.480011 29.676003 56.792010 0
M  V30 54 H 38.016919 27.825652 52.378731 0
M  V30 55 H 40.832574 27.080538 57.990045 0
M  V30 56 H 39.652275 24.738208 56.083252 0
M  V30 57 H 40.767812 25.275495 57.149512 0
M  V30 58 H 39.312246 32.485383 59.365578 0
M  V30 59 H 36.679136 25.613032 57.874193 0
M  V30 60 H 37.338217 24.005570 57.802526 0
M  V30 61 H 39.909862 23.903670 57.487201 0
M  V30 END ATOM
M  V30 BEGIN BOND
M  V30 1 2 6 3
M  V30 2 1 7 1
M  V30 3 1 9 5
M  V30 4 2 12 11
M  V30 5 1 14 2
M  V30 6 1 14 9
M  V30 7 1 15 4
M  V30 8 1 15 11
M  V30 9 1 16 3
M  V30 10 2 16 13
M  V30 11 1 17 6
M  V30 12 1 17 7
M  V30 13 1 19 1
M  V30 14 2 20 19
M  V30 15 1 21 4
M  V30 16 1 23 3
M  V30 17 1 24 11
M  V30 18 2 25 11
M  V30 19 1 26 19
M  V30 20 2 26 22
M  V30 21 1 27 15
M  V30 22 1 27 18
M  V30 23 1 28 8
M  V30 24 2 28 9
M  V30 25 1 28 10
M  V30 26 1 29 5
M  V30 27 2 29 8
M  V30 28 1 30 18
M  V30 29 1 31 13
M  V30 30 2 31 17
M  V30 31 1 31 22
M  V30 32 1 32 14
M  V30 33 1 32 24
M  V30 34 1 33 2
M  V30 35 1 34 4
M  V30 36 1 34 23
M  V30 37 1 34 30
M  V30 38 1 35 2
M  V30 39 1 35 10
M  V30 40 1 36 1
M  V30 41 1 37 1
M  V30 42 1 2 38 CFG=1
M  V30 43 1 4 39 CFG=3
M  V30 44 1 40 6
M  V30 45 1 41 7
M  V30 46 1 42 7
M  V30 47 1 43 10
M  V30 48 1 44 10
M  V30 49 1 45 13
M  V30 50 1 14 46 CFG=1
M  V30 51 1 47 16
M  V30 52 1 48 18
M  V30 53 1 49 18
M  V30 54 1 50 22
M  V30 55 1 51 24
M  V30 56 1 52 27
M  V30 57 1 53 27
M  V30 58 1 54 29
M  V30 59 1 55 32
M  V30 60 1 56 33
M  V30 61 1 57 33
M  V30 62 1 34 58 CFG=1
M  V30 63 1 59 35
M  V30 64 1 60 35
M  V30 65 1 61 33
M  V30 END BOND
M  V30 END CTAB
M  END
>  <i_epik_Tot_Q>  (1) 
1

>  <i_epik_Tot_abs_Q>  (1) 
1

>  <i_i_glide_confnum>  (1) 
330

>  <i_i_glide_lignum>  (1) 
63

>  <i_i_glide_posenum>  (1) 
227

>  <i_i_glide_rotatable_bonds>  (1) 
6

>  <i_lp_mmshare_version>  (1) 
72125

>  <i_m_source_file_index>  (1) 
24

>  <i_f3d_flags>  (1) 
0

>  <num_sample>  (1) 
50

>  <b_lp_Chiralities_Consistent>  (1) 
1

>  <r_epik_Charging_Adjusted_Penalty>  (1) 
0.20786405117440027

>  <r_epik_Ionization_Penalty>  (1) 
0.17784020352230567

>  <r_epik_Ionization_Penalty_Charging>  (1) 
0.046839863378715332

>  <r_epik_Ionization_Penalty_Neutral>  (1) 
0.13100034014359035

>  <r_epik_State_Penalty>  (1) 
0.16102418779568495

>  <r_glide_ring_energy>  (1) 
1.1083673413466943

>  <r_i_docking_score>  (1) 
-7.6531686161695882

>  <r_i_glide_ecoul>  (1) 
-4.0668795876582422

>  <r_i_glide_eff_state_penalty>  (1) 
0.16102418779568495

>  <r_i_glide_einternal>  (1) 
7.0861038137616692

>  <r_i_glide_emodel>  (1) 
-83.98019037715963

>  <r_i_glide_emodel_strain>  (1) 
4.8536842144281707

>  <r_i_glide_energy>  (1) 
-61.271609729520989

>  <r_i_glide_erotb>  (1) 
0.32266353053763186

>  <r_i_glide_esite>  (1) 
-0.040151240310998142

>  <r_i_glide_evdw>  (1) 
-57.204730141862747

>  <r_i_glide_gscore>  (1) 
-7.8141928039652733

>  <r_i_glide_gscore_strain>  (1) 
0.21342105360704267

>  <r_i_glide_hbond>  (1) 
0

>  <r_i_glide_ligand_efficiency>  (1) 
-0.21866196046198824

>  <r_i_glide_ligand_efficiency_ln>  (1) 
-1.6800403641752271

>  <r_i_glide_ligand_efficiency_sa>  (1) 
-0.71525777218699926

>  <r_i_glide_lipo>  (1) 
-3.744751654689876

>  <r_i_glide_metal>  (1) 
-0

>  <r_i_glide_rewards>  (1) 
-1.0951060478671999

>  <r_lp_Energy>  (1) 
39.045392999999997

>  <s_epik_Chemistry_Notes>  (1) 
This compound has an imine and may undergo hydrolysis. This compound contains an acetal/aminal-like group ( X-CH(R)-Y where X, Y are N, S, or O) that may be acid/base labile, releasing an aldehyde.

>  <s_epik_cmdline>  (1) 
J2VwaWtfcHl0aG9uJywgJy1waHQnLCAnMS4wJywgJy1waCcsICc3LjQnLCAnLXRuJywgJzgnLCAnLW1hJywgJzUwMCcsICctaW1hZScsICc8aW5maWxlLm1hZT4nLCAnLW9tYWUnLCAnPG91dGZpbGUubWFlPic=

>  <s_epik_input>  (1) 
W0NIMl0xW0NIMl1DKD1PKU49W0NIXWMoYzEyKVtjSF1bY0hdYyhbY0hdMilTW0NAQEhdM09bQ0gyXVtDSDJdTihbQ0BIXTNDbClTKD1PKSg9TylbTkhdW05IXVtDQEBIXTRbQ0BASF0oW05IMl0pW0NIMl1bQ0gyXWMoYzQ1KW5bY0hdczU=

>  <s_glide_docking_method>  (1) 
confgen

>  <s_i_glide_gridfile>  (1) 
gpcr_5ht2c_6bqh_protein_autoprepared_prepared

>  <s_lp_Force_Field>  (1) 
S-OPLS

>  <s_lp_Variant>  (1) 
DiffSBDD_23_num_sample_50-2

>  <s_m_source_file>  (1) 
generated__ligand_DiffSBDD_2026-05-06_prepared.sdf

>  <GenAI_Model>  (1) 
DiffSBDD

>  <Protein>  (1) 
GPCR_5HT2C

$$$$
DiffSBDD_25_num_sample_50
     RDKit          3D

  0  0  0  0  0  0  0  0  0  0999 V3000
M  V30 BEGIN CTAB
M  V30 COUNTS 59 60 0 0 1
M  V30 BEGIN ATOM
M  V30 1 C 38.632467 27.767077 56.024747 0 CFG=2
M  V30 2 C 39.360738 29.774235 54.619564 0
M  V30 3 C 40.378463 34.968703 62.757368 0
M  V30 4 C 40.834086 35.796421 63.959531 0
M  V30 5 C 37.668638 31.761317 59.024390 0 CFG=1
M  V30 6 C 38.936661 28.426635 54.679065 0
M  V30 7 C 37.724318 28.591864 56.968532 0
M  V30 8 C 38.796219 27.682747 53.485509 0
M  V30 9 C 38.262539 34.347832 60.173293 0
M  V30 10 C 39.517747 29.616265 52.185480 0
M  V30 11 C 37.373314 30.245278 58.976497 0 CFG=1
M  V30 12 C 39.255923 37.095489 62.767027 0
M  V30 13 N 35.954493 30.021275 58.653630 0 CHG=1
M  V30 14 C 39.137647 33.110053 60.310257 0
M  V30 15 C 39.649730 30.367359 53.371866 0
M  V30 16 C 38.366829 29.422397 58.098570 0
M  V30 17 N 39.867040 36.897062 64.086703 0 CHG=1
M  V30 18 N 38.833748 31.966200 59.849928 0
M  V30 19 C 39.135438 35.685839 62.202520 0 CFG=1
M  V30 20 C 41.104366 27.919748 56.897835 0
M  V30 21 C 38.948615 35.632551 60.677633 0
M  V30 22 C 39.086398 28.276815 52.242716 0
M  V30 23 C 39.849439 27.061077 56.670787 0
M  V30 24 Cl 39.890174 30.336594 50.661382 0
M  V30 25 O 37.867074 32.262014 57.712475 0
M  V30 26 H 37.979112 26.939093 55.748562 0
M  V30 27 H 39.470187 30.350701 55.525782 0
M  V30 28 H 40.148825 33.944019 63.052956 0
M  V30 29 H 41.181032 34.931063 62.018726 0
M  V30 30 H 40.886680 35.216477 64.882168 0
M  V30 31 H 41.826092 36.211557 63.764610 0
M  V30 32 H 36.801650 32.270003 59.452115 0
M  V30 33 H 37.068968 27.871744 57.456618 0
M  V30 34 H 37.081413 29.230466 56.362036 0
M  V30 35 H 38.471030 26.654193 53.524221 0
M  V30 36 H 37.981334 34.477957 59.129047 0
M  V30 37 H 37.332555 34.189740 60.723305 0
M  V30 38 H 37.466635 29.856642 59.990882 0
M  V30 39 H 39.915188 37.703358 62.147103 0
M  V30 40 H 38.290594 37.597121 62.843940 0
M  V30 41 H 35.704265 30.615882 57.853500 0
M  V30 42 H 35.795803 29.050706 58.434154 0
M  V30 43 H 40.074719 33.271487 60.844713 0
M  V30 44 H 39.977875 31.396632 53.324063 0
M  V30 45 H 39.122460 30.082712 57.674592 0
M  V30 46 H 38.920105 28.755134 58.759557 0
M  V30 47 H 39.155274 36.640009 64.754406 0
M  V30 48 H 38.262462 35.231413 62.653876 0
M  V30 49 H 41.939388 27.288409 57.204506 0
M  V30 50 H 41.408742 28.434869 55.990039 0
M  V30 51 H 40.969148 28.668674 57.674712 0
M  V30 52 H 39.912948 35.778293 60.193286 0
M  V30 53 H 38.321140 36.472400 60.377426 0
M  V30 54 H 38.982032 27.703545 51.331205 0
M  V30 55 H 39.555556 26.592499 57.611217 0
M  V30 56 H 40.140880 26.238440 56.015295 0
M  V30 57 H 37.004909 32.350936 57.298775 0
M  V30 58 H 40.368408 37.722874 64.404291 0
M  V30 59 H 35.377940 30.301317 59.431541 0
M  V30 END ATOM
M  V30 BEGIN BOND
M  V30 1 1 4 3
M  V30 2 1 6 1
M  V30 3 1 6 2
M  V30 4 1 7 1
M  V30 5 2 8 6
M  V30 6 1 11 5
M  V30 7 1 13 11
M  V30 8 1 14 9
M  V30 9 2 15 2
M  V30 10 1 15 10
M  V30 11 1 16 7
M  V30 12 1 16 11
M  V30 13 1 17 4
M  V30 14 1 17 12
M  V30 15 1 18 5
M  V30 16 2 18 14
M  V30 17 1 19 3
M  V30 18 1 19 12
M  V30 19 1 21 9
M  V30 20 1 21 19
M  V30 21 1 22 8
M  V30 22 2 22 10
M  V30 23 1 23 1
M  V30 24 1 23 20
M  V30 25 1 24 10
M  V30 26 1 25 5
M  V30 27 1 1 26 CFG=3
M  V30 28 1 27 2
M  V30 29 1 28 3
M  V30 30 1 29 3
M  V30 31 1 30 4
M  V30 32 1 31 4
M  V30 33 1 5 32 CFG=1
M  V30 34 1 33 7
M  V30 35 1 34 7
M  V30 36 1 35 8
M  V30 37 1 36 9
M  V30 38 1 37 9
M  V30 39 1 11 38 CFG=1
M  V30 40 1 39 12
M  V30 41 1 40 12
M  V30 42 1 41 13
M  V30 43 1 42 13
M  V30 44 1 43 14
M  V30 45 1 44 15
M  V30 46 1 45 16
M  V30 47 1 46 16
M  V30 48 1 47 17
M  V30 49 1 19 48 CFG=1
M  V30 50 1 49 20
M  V30 51 1 50 20
M  V30 52 1 51 20
M  V30 53 1 52 21
M  V30 54 1 53 21
M  V30 55 1 54 22
M  V30 56 1 55 23
M  V30 57 1 56 23
M  V30 58 1 57 25
M  V30 59 1 58 17
M  V30 60 1 59 13
M  V30 END BOND
M  V30 END CTAB
M  END
>  <i_epik_Tot_Q>  (1) 
2

>  <i_epik_Tot_abs_Q>  (1) 
2

>  <i_i_glide_confnum>  (1) 
283

>  <i_i_glide_lignum>  (1) 
67

>  <i_i_glide_posenum>  (1) 
26

>  <i_i_glide_rotatable_bonds>  (1) 
11

>  <i_lp_mmshare_version>  (1) 
72125

>  <i_m_source_file_index>  (1) 
26

>  <i_f3d_flags>  (1) 
0

>  <num_sample>  (1) 
50

>  <b_lp_Chiralities_Consistent>  (1) 
1

>  <r_epik_Charging_Adjusted_Penalty>  (1) 
0.45127827763218775

>  <r_epik_Ionization_Penalty>  (1) 
0.041210974459634293

>  <r_epik_Ionization_Penalty_Charging>  (1) 
0.040598438679583813

>  <r_epik_Ionization_Penalty_Neutral>  (1) 
0.0006125357800504809

>  <r_epik_State_Penalty>  (1) 
0.41067983895260396

>  <r_glide_ring_energy>  (1) 
0

>  <r_i_docking_score>  (1) 
-7.6500492227411341

>  <r_i_glide_ecoul>  (1) 
-12.528324924371091

>  <r_i_glide_eff_state_penalty>  (1) 
0.41067983895260396

>  <r_i_glide_einternal>  (1) 
14.692108195027863

>  <r_i_glide_emodel>  (1) 
-65.562401203048495

>  <r_i_glide_emodel_strain>  (1) 
0.7255431263923029

>  <r_i_glide_energy>  (1) 
-44.179878944801935

>  <r_i_glide_erotb>  (1) 
0.99595821917536853

>  <r_i_glide_esite>  (1) 
-0.21721728986267907

>  <r_i_glide_evdw>  (1) 
-31.651554020430844

>  <r_i_glide_gscore>  (1) 
-8.0607290616937384

>  <r_i_glide_gscore_strain>  (1) 
0

>  <r_i_glide_hbond>  (1) 
-0.35999999999999999

>  <r_i_glide_ligand_efficiency>  (1) 
-0.30600196890964537

>  <r_i_glide_ligand_efficiency_ln>  (1) 
-1.8132909192652344

>  <r_i_glide_ligand_efficiency_sa>  (1) 
-0.89475518501986506

>  <r_i_glide_lipo>  (1) 
-3.4633867231526474

>  <r_i_glide_metal>  (1) 
-0

>  <r_i_glide_rewards>  (1) 
-1.554256828176575

>  <r_lp_Energy>  (1) 
32.149031000000001

>  <r_lp_tautomer_probability>  (1) 
0.49999300000000002

>  <s_epik_Chemistry_Notes>  (1) 
This compound has an imine and may undergo hydrolysis. This compound contains an acetal/aminal-like group ( X-CH(R)-Y where X, Y are N, S, or O) that may be acid/base labile, releasing an aldehyde.

>  <s_epik_cmdline>  (1) 
J2VwaWtfcHl0aG9uJywgJy1waHQnLCAnMS4wJywgJy1waCcsICc3LjQnLCAnLXRuJywgJzgnLCAnLW1hJywgJzUwMCcsICctaW1hZScsICc8aW5maWxlLm1hZT4nLCAnLW9tYWUnLCAnPG91dGZpbGUubWFlPic=

>  <s_epik_input>  (1) 
W2NIXTFbY0hdYyhDbClbY0hdW2NIXWMxW0NAQEhdKFtDSDJdW0NIM10pW0NIMl1bQ0gyXVtDQEhdKFtOSDJdKVtDQEhdKFtPSF0pL049W0NIXVxbQ0gyXVtDSDJdW0NASF0yW0NIMl1bQ0gyXVtOSF1bQ0gyXTI=

>  <s_glide_docking_method>  (1) 
confgen

>  <s_i_glide_gridfile>  (1) 
gpcr_5ht2c_6bqh_protein_autoprepared_prepared

>  <s_lp_Force_Field>  (1) 
S-OPLS

>  <s_lp_Variant>  (1) 
DiffSBDD_25_num_sample_50-2

>  <s_m_source_file>  (1) 
generated__ligand_DiffSBDD_2026-05-06_prepared.sdf

>  <GenAI_Model>  (1) 
DiffSBDD

>  <Protein>  (1) 
GPCR_5HT2C

$$$$
DiffSBDD_29_num_sample_50
     RDKit          3D

  0  0  0  0  0  0  0  0  0  0999 V3000
M  V30 BEGIN CTAB
M  V30 COUNTS 79 81 0 0 1
M  V30 BEGIN ATOM
M  V30 1 C 41.555699 33.860457 66.800139 0
M  V30 2 C 39.389822 30.351529 59.954962 0
M  V30 3 C 42.189655 33.877209 65.404605 0
M  V30 4 C 39.351320 26.254925 57.545252 0
M  V30 5 C 36.637648 35.566195 61.853486 0
M  V30 6 C 39.190057 28.267390 55.995478 0
M  V30 7 C 39.647784 36.448211 61.679008 0 CFG=2
M  V30 8 N 37.258179 31.650048 59.501498 0 CHG=1
M  V30 9 C 37.513648 35.404485 60.654473 0 CFG=1
M  V30 10 N 38.229962 28.756563 56.673320 0
M  V30 11 C 39.007154 35.252077 61.017672 0
M  V30 12 C 37.789597 33.023610 59.419023 0 CFG=2
M  V30 13 O 35.935807 29.621443 58.542544 0
M  V30 14 O 41.070563 36.421364 61.592044 0
M  V30 15 C 35.867430 34.558787 62.149802 0
M  V30 16 C 41.402181 27.622223 56.967208 0
M  V30 17 C 36.674761 36.875438 62.638537 0
M  V30 18 C 40.892926 35.178420 63.672200 0
M  V30 19 C 36.839389 34.025537 60.134710 0 CFG=1
M  V30 20 C 38.768778 27.190067 58.596387 0
M  V30 21 C 42.069651 32.806332 67.785011 0
M  V30 22 F 41.816464 31.586517 67.310686 0
M  V30 23 O 40.403436 29.765896 62.049673 0
M  V30 24 O 40.267374 26.200935 55.378929 0
M  V30 25 C 36.384813 38.125180 61.789252 0
M  V30 26 C 38.134607 30.540598 59.049764 0 CFG=2
M  V30 27 F 43.385791 32.945438 67.949058 0
M  V30 28 C 35.934036 33.372136 61.285298 0
M  V30 29 C 39.191869 29.685998 61.327718 0
M  V30 30 C 37.263411 29.267122 58.882648 0 CFG=2
M  V30 31 C 41.829909 35.131429 64.632849 0
M  V30 32 F 41.471597 32.940600 68.969118 0
M  V30 33 C 37.771584 28.162595 57.926028 0 CFG=1
M  V30 34 O 40.668849 34.656617 67.115089 0
M  V30 35 C 40.533139 36.401055 62.909937 0 CFG=2
M  V30 36 C 40.045414 27.087280 56.455808 0 CFG=1
M  V30 37 C 38.077633 33.395317 57.951755 0
M  V30 38 H 39.867397 31.306946 60.145393 0
M  V30 39 H 40.138093 29.786242 59.401566 0
M  V30 40 H 41.844055 33.000385 64.857028 0
M  V30 41 H 43.274074 33.800351 65.484741 0
M  V30 42 H 38.542064 25.661738 57.114504 0
M  V30 43 H 40.047568 25.546685 57.998286 0
M  V30 44 H 39.469995 28.681991 55.022883 0
M  V30 45 H 39.227376 37.418261 61.433494 0
M  V30 46 H 36.432209 31.615897 58.911127 0
M  V30 47 H 37.359745 36.206127 59.931210 0
M  V30 48 H 39.132508 34.383715 61.661205 0
M  V30 49 H 39.582116 35.055914 60.113512 0
M  V30 50 H 38.726994 33.012451 59.957666 0
M  V30 51 H 35.914541 30.097076 57.713179 0
M  V30 52 H 35.195393 34.567312 62.992420 0
M  V30 53 H 41.300944 28.208734 57.878704 0
M  V30 54 H 42.106641 26.821437 57.182974 0
M  V30 55 H 41.867370 28.294634 56.253519 0
M  V30 56 H 35.919838 36.814573 63.424228 0
M  V30 57 H 37.619837 36.977270 63.168803 0
M  V30 58 H 40.355273 34.278162 63.422549 0
M  V30 59 H 36.108759 34.335766 59.384015 0
M  V30 60 H 39.567042 27.711284 59.111888 0
M  V30 61 H 38.267403 26.604437 59.362677 0
M  V30 62 H 40.290308 29.321475 62.879818 0
M  V30 63 H 40.824991 26.623901 54.745276 0
M  V30 64 H 36.267519 39.001263 62.426399 0
M  V30 65 H 37.184984 38.338623 61.082141 0
M  V30 66 H 35.467527 38.021557 61.211769 0
M  V30 67 H 38.494451 30.837954 58.066610 0
M  V30 68 H 34.949129 33.057463 60.936757 0
M  V30 69 H 36.422090 32.570262 61.840452 0
M  V30 70 H 38.939945 28.630517 61.226373 0
M  V30 71 H 38.402498 30.174300 61.899959 0
M  V30 72 H 37.149881 28.821450 59.853550 0
M  V30 73 H 42.373221 36.027506 64.892236 0
M  V30 74 H 36.913901 27.533649 57.686319 0
M  V30 75 H 40.667403 37.327315 63.453484 0
M  V30 76 H 37.867447 34.436386 57.746775 0
M  V30 77 H 39.120480 33.205846 57.695931 0
M  V30 78 H 37.467379 32.825939 57.251491 0
M  V30 79 H 36.963259 31.464745 60.446672 0
M  V30 END ATOM
M  V30 BEGIN BOND
M  V30 1 1 3 1
M  V30 2 1 9 5
M  V30 3 2 10 6
M  V30 4 1 11 7
M  V30 5 1 11 9
M  V30 6 1 12 8
M  V30 7 1 14 7
M  V30 8 2 15 5
M  V30 9 1 17 5
M  V30 10 1 19 9
M  V30 11 1 19 12
M  V30 12 1 20 4
M  V30 13 1 21 1
M  V30 14 1 22 21
M  V30 15 1 25 17
M  V30 16 1 26 2
M  V30 17 1 26 8
M  V30 18 1 27 21
M  V30 19 1 28 15
M  V30 20 1 28 19
M  V30 21 1 29 2
M  V30 22 1 29 23
M  V30 23 1 30 13
M  V30 24 1 30 26
M  V30 25 1 31 3
M  V30 26 2 31 18
M  V30 27 1 32 21
M  V30 28 1 33 10
M  V30 29 1 33 20
M  V30 30 1 33 30
M  V30 31 2 34 1
M  V30 32 1 35 7
M  V30 33 1 35 14
M  V30 34 1 35 18
M  V30 35 1 36 4
M  V30 36 1 36 6
M  V30 37 1 36 16
M  V30 38 1 36 24 CFG=3
M  V30 39 1 37 12
M  V30 40 1 38 2
M  V30 41 1 39 2
M  V30 42 1 40 3
M  V30 43 1 41 3
M  V30 44 1 42 4
M  V30 45 1 43 4
M  V30 46 1 44 6
M  V30 47 1 7 45 CFG=1
M  V30 48 1 46 8
M  V30 49 1 9 47 CFG=3
M  V30 50 1 48 11
M  V30 51 1 49 11
M  V30 52 1 12 50 CFG=1
M  V30 53 1 51 13
M  V30 54 1 52 15
M  V30 55 1 53 16
M  V30 56 1 54 16
M  V30 57 1 55 16
M  V30 58 1 56 17
M  V30 59 1 57 17
M  V30 60 1 58 18
M  V30 61 1 19 59 CFG=3
M  V30 62 1 60 20
M  V30 63 1 61 20
M  V30 64 1 62 23
M  V30 65 1 63 24
M  V30 66 1 64 25
M  V30 67 1 65 25
M  V30 68 1 66 25
M  V30 69 1 26 67 CFG=3
M  V30 70 1 68 28
M  V30 71 1 69 28
M  V30 72 1 70 29
M  V30 73 1 71 29
M  V30 74 1 30 72 CFG=1
M  V30 75 1 73 31
M  V30 76 1 33 74 CFG=3
M  V30 77 1 35 75 CFG=1
M  V30 78 1 76 37
M  V30 79 1 77 37
M  V30 80 1 78 37
M  V30 81 1 79 8
M  V30 END BOND
M  V30 END CTAB
M  END
>  <i_epik_Tot_Q>  (1) 
1

>  <i_epik_Tot_abs_Q>  (1) 
1

>  <i_i_glide_confnum>  (1) 
6570

>  <i_i_glide_lignum>  (1) 
73

>  <i_i_glide_posenum>  (1) 
70

>  <i_i_glide_rotatable_bonds>  (1) 
17

>  <i_lp_mmshare_version>  (1) 
72125

>  <i_m_source_file_index>  (1) 
30

>  <i_f3d_flags>  (1) 
0

>  <num_sample>  (1) 
50

>  <b_lp_Chiralities_Consistent>  (1) 
1

>  <r_epik_Charging_Adjusted_Penalty>  (1) 
0.073066720001252791

>  <r_epik_Ionization_Penalty>  (1) 
0.041882768558209021

>  <r_epik_Ionization_Penalty_Charging>  (1) 
0.011280877963412759

>  <r_epik_Ionization_Penalty_Neutral>  (1) 
0.030601890594796264

>  <r_epik_State_Penalty>  (1) 
0.061785842037840037

>  <r_glide_ring_energy>  (1) 
0

>  <r_i_docking_score>  (1) 
-7.6449463068508354

>  <r_i_glide_ecoul>  (1) 
-6.0934659996402916

>  <r_i_glide_eff_state_penalty>  (1) 
0.061785842037840037

>  <r_i_glide_einternal>  (1) 
12.670510555821068

>  <r_i_glide_emodel>  (1) 
-59.593826805773915

>  <r_i_glide_emodel_strain>  (1) 
3.5551239211794865

>  <r_i_glide_energy>  (1) 
-46.839978175414679

>  <r_i_glide_erotb>  (1) 
0.87550365807384167

>  <r_i_glide_esite>  (1) 
-0.070747913890733302

>  <r_i_glide_evdw>  (1) 
-40.746512175774384

>  <r_i_glide_gscore>  (1) 
-7.7067321488886753

>  <r_i_glide_gscore_strain>  (1) 
0

>  <r_i_glide_hbond>  (1) 
-0.21032534651145277

>  <r_i_glide_ligand_efficiency>  (1) 
-0.20662017045542799

>  <r_i_glide_ligand_efficiency_ln>  (1) 
-1.658009630986184

>  <r_i_glide_ligand_efficiency_sa>  (1) 
-0.68850424698238877

>  <r_i_glide_lipo>  (1) 
-3.4351808268614188

>  <r_i_glide_metal>  (1) 
-0

>  <r_i_glide_rewards>  (1) 
-1.9146362109641502

>  <r_lp_Energy>  (1) 
29.690287999999999

>  <s_epik_Chemistry_Notes>  (1) 
This compound has an imine and may undergo hydrolysis.

>  <s_epik_cmdline>  (1) 
J2VwaWtfcHl0aG9uJywgJy1waHQnLCAnMS4wJywgJy1waCcsICc3LjQnLCAnLXRuJywgJzgnLCAnLW1hJywgJzUwMCcsICctaW1hZScsICc8aW5maWxlLm1hZT4nLCAnLW9tYWUnLCAnPG91dGZpbGUubWFlPic=

>  <s_epik_input>  (1) 
RkMoRikoRilDKD1PKVtDSDJdXFtDSF09W0NIXVxbQ0BIXTFPW0NASF0xW0NIMl1bQ0BIXTJbQ0BIXShbQ0gyXVtDSF09QzJbQ0gyXVtDSDNdKVtDQEhdKFtDSDNdKVtOSF1bQ0BASF0oW0NIMl1bQ0gyXVtPSF0pW0NAQEhdKFtPSF0pW0NAQEhdKE49W0NIXTMpW0NIMl1bQ0gyXVtDQEBdMyhbQ0gzXSlbT0hd

>  <s_glide_docking_method>  (1) 
confgen

>  <s_i_glide_gridfile>  (1) 
gpcr_5ht2c_6bqh_protein_autoprepared_prepared

>  <s_lp_Force_Field>  (1) 
S-OPLS

>  <s_lp_Variant>  (1) 
DiffSBDD_29_num_sample_50-1

>  <s_m_source_file>  (1) 
generated__ligand_DiffSBDD_2026-05-06_prepared.sdf

>  <GenAI_Model>  (1) 
DiffSBDD

>  <Protein>  (1) 
GPCR_5HT2C

$$$$
DiffSBDD_13_num_sample_50
     RDKit          3D

  0  0  0  0  0  0  0  0  0  0999 V3000
M  V30 BEGIN CTAB
M  V30 COUNTS 67 70 0 0 1
M  V30 BEGIN ATOM
M  V30 1 C 36.896504 34.017449 59.595167 0
M  V30 2 C 37.724511 25.218758 56.384108 0
M  V30 3 N 41.466959 31.072537 62.996920 0
M  V30 4 C 38.309187 27.392067 54.691110 0
M  V30 5 C 41.215117 33.003385 63.979653 0
M  V30 6 N 39.388696 29.703523 54.309985 0
M  V30 7 F 38.465135 23.621433 57.853490 0
M  V30 8 C 39.813493 31.242305 61.177499 0
M  V30 9 C 40.252152 29.974067 51.990067 0 CFG=1
M  V30 10 C 37.094551 30.970625 59.443554 0
M  V30 11 C 39.836920 30.670278 53.289368 0
M  V30 12 C 40.537978 31.828404 62.399462 0
M  V30 13 C 38.063404 33.332336 58.839674 0 CFG=1
M  V30 14 N 41.141762 29.725265 63.251794 0
M  V30 15 N 39.159814 29.189958 51.486196 0
M  V30 16 O 40.078829 30.135575 60.699984 0
M  V30 17 O 36.876859 35.417859 59.384263 0
M  V30 18 C 38.554306 28.597358 53.772364 0 CFG=1
M  V30 19 C 38.140230 32.542741 56.453230 0
M  V30 20 C 37.366110 24.084986 57.300947 0
M  V30 21 C 37.467406 26.355265 54.253923 0
M  V30 22 C 40.535309 30.821142 50.771461 0
M  V30 23 C 37.175171 25.273297 55.096581 0
M  V30 24 C 38.809934 30.333585 55.523596 0
M  V30 25 N 40.267219 32.998844 62.808242 0
M  V30 26 C 40.224030 29.857531 49.627177 0
M  V30 27 C 38.902139 27.313706 55.975395 0
M  V30 28 C 38.602347 26.230651 56.820719 0
M  V30 29 O 41.971364 31.733953 64.098043 0
M  V30 30 C 38.234898 31.737499 55.420748 0
M  V30 31 C 38.326224 31.896514 59.376814 0 CFG=1
M  V30 32 O 38.877693 32.075028 60.678129 0
M  V30 33 C 39.020648 28.069182 52.386230 0
M  V30 34 C 37.863349 33.480613 57.331029 0
M  V30 35 O 39.695039 28.695164 50.253540 0
M  V30 36 H 36.979334 33.851036 60.669341 0
M  V30 37 H 35.936885 33.601653 59.283778 0
M  V30 38 H 41.924868 33.826797 63.880343 0
M  V30 39 H 40.667502 33.175419 64.906991 0
M  V30 40 H 41.067524 29.288117 52.150538 0
M  V30 41 H 36.667545 30.819071 58.452588 0
M  V30 42 H 37.365156 29.986830 59.827054 0
M  V30 43 H 36.312222 31.366034 60.091025 0
M  V30 44 H 39.067327 31.383121 53.013358 0
M  V30 45 H 40.675735 31.230647 53.696614 0
M  V30 46 H 38.962502 33.913441 59.052651 0
M  V30 47 H 40.694863 29.328266 62.425409 0
M  V30 48 H 41.996933 29.207150 63.444161 0
M  V30 49 H 36.657255 35.585791 58.475945 0
M  V30 50 H 37.569424 29.039647 53.609721 0
M  V30 51 H 36.720909 24.444612 58.101133 0
M  V30 52 H 36.870715 23.265848 56.779257 0
M  V30 53 H 37.018063 26.400721 53.274153 0
M  V30 54 H 39.856721 31.671366 50.731382 0
M  V30 55 H 41.558774 31.189416 50.746891 0
M  V30 56 H 36.509067 24.492352 54.758222 0
M  V30 57 H 39.590903 30.359893 56.284968 0
M  V30 58 H 38.006501 29.720300 55.931774 0
M  V30 59 H 41.099700 29.621403 49.026814 0
M  V30 60 H 39.467423 30.290771 48.977380 0
M  V30 61 H 39.567313 28.086604 56.319549 0
M  V30 62 H 39.035962 26.181591 57.809309 0
M  V30 63 H 37.891759 32.054938 54.451137 0
M  V30 64 H 39.067432 31.418142 58.740614 0
M  V30 65 H 38.283859 27.403067 51.939989 0
M  V30 66 H 39.944983 27.497721 52.470359 0
M  V30 67 H 37.467401 34.421420 57.004353 0
M  V30 END ATOM
M  V30 BEGIN BOND
M  V30 1 1 11 6
M  V30 2 1 11 9
M  V30 3 1 12 3
M  V30 4 1 12 8
M  V30 5 1 13 1
M  V30 6 1 14 3
M  V30 7 1 15 9
M  V30 8 2 16 8
M  V30 9 1 17 1
M  V30 10 1 18 4
M  V30 11 1 18 6
M  V30 12 1 20 2
M  V30 13 1 20 7
M  V30 14 1 21 4
M  V30 15 1 22 9
M  V30 16 1 23 2
M  V30 17 2 23 21
M  V30 18 1 24 6
M  V30 19 1 25 5
M  V30 20 2 25 12
M  V30 21 1 26 22
M  V30 22 2 27 4
M  V30 23 2 28 2
M  V30 24 1 28 27
M  V30 25 1 29 3
M  V30 26 1 29 5
M  V30 27 2 30 19
M  V30 28 1 30 24
M  V30 29 1 31 10
M  V30 30 1 31 13
M  V30 31 1 32 8
M  V30 32 1 32 31
M  V30 33 1 33 15
M  V30 34 1 33 18
M  V30 35 1 34 13
M  V30 36 2 34 19
M  V30 37 1 35 15
M  V30 38 1 35 26
M  V30 39 1 36 1
M  V30 40 1 37 1
M  V30 41 1 38 5
M  V30 42 1 39 5
M  V30 43 1 9 40 CFG=1
M  V30 44 1 41 10
M  V30 45 1 42 10
M  V30 46 1 43 10
M  V30 47 1 44 11
M  V30 48 1 45 11
M  V30 49 1 13 46 CFG=1
M  V30 50 1 47 14
M  V30 51 1 48 14
M  V30 52 1 49 17
M  V30 53 1 18 50 CFG=3
M  V30 54 1 51 20
M  V30 55 1 52 20
M  V30 56 1 53 21
M  V30 57 1 54 22
M  V30 58 1 55 22
M  V30 59 1 56 23
M  V30 60 1 57 24
M  V30 61 1 58 24
M  V30 62 1 59 26
M  V30 63 1 60 26
M  V30 64 1 61 27
M  V30 65 1 62 28
M  V30 66 1 63 30
M  V30 67 1 31 64 CFG=3
M  V30 68 1 65 33
M  V30 69 1 66 33
M  V30 70 1 67 34
M  V30 END BOND
M  V30 END CTAB
M  END
>  <i_epik_Tot_Q>  (1) 
0

>  <i_epik_Tot_abs_Q>  (1) 
0

>  <i_i_glide_confnum>  (1) 
673

>  <i_i_glide_lignum>  (1) 
42

>  <i_i_glide_posenum>  (1) 
340

>  <i_i_glide_rotatable_bonds>  (1) 
11

>  <i_lp_mmshare_version>  (1) 
72125

>  <i_m_source_file_index>  (1) 
14

>  <i_f3d_flags>  (1) 
0

>  <num_sample>  (1) 
50

>  <b_lp_Chiralities_Consistent>  (1) 
1

>  <r_epik_Charging_Adjusted_Penalty>  (1) 
0.22633531445783178

>  <r_epik_Ionization_Penalty>  (1) 
0.23418350974146993

>  <r_epik_Ionization_Penalty_Charging>  (1) 
0

>  <r_epik_Ionization_Penalty_Neutral>  (1) 
0.23418350974146993

>  <r_epik_State_Penalty>  (1) 
0.22633531445783178

>  <r_glide_ring_energy>  (1) 
0

>  <r_i_docking_score>  (1) 
-7.6372354690279503

>  <r_i_glide_ecoul>  (1) 
-2.8342786153430386

>  <r_i_glide_eff_state_penalty>  (1) 
0.22633531445783178

>  <r_i_glide_einternal>  (1) 
7.0229646557603296

>  <r_i_glide_emodel>  (1) 
-67.755548854047561

>  <r_i_glide_emodel_strain>  (1) 
5.3247392078220201

>  <r_i_glide_energy>  (1) 
-51.481340906371614

>  <r_i_glide_erotb>  (1) 
0.76399126750113433

>  <r_i_glide_esite>  (1) 
-0.0013425327364455461

>  <r_i_glide_evdw>  (1) 
-48.647062291028575

>  <r_i_glide_gscore>  (1) 
-7.8635707834857822

>  <r_i_glide_gscore_strain>  (1) 
0.33118480195550504

>  <r_i_glide_hbond>  (1) 
-0.25308320972376891

>  <r_i_glide_ligand_efficiency>  (1) 
-0.21820672768651286

>  <r_i_glide_ligand_efficiency_ln>  (1) 
-1.6765426847604892

>  <r_i_glide_ligand_efficiency_sa>  (1) 
-0.71376867559184809

>  <r_i_glide_lipo>  (1) 
-3.7575799126188003

>  <r_i_glide_metal>  (1) 
-0

>  <r_i_glide_rewards>  (1) 
-2.0892462910105212

>  <r_lp_Energy>  (1) 
-4.0023499999999999

>  <s_epik_Chemistry_Notes>  (1) 
This compound has an ester and may undergo hydrolysis at high or low pH. This compound has an imine and may undergo hydrolysis. This compound contains an acetal/aminal-like group ( X-CH(R)-Y where X, Y are N, S, or O) that may be acid/base labile, releasing an aldehyde. This compound has a N-S or N-O group and may undergo hydrolysis at high or low pH.

>  <s_epik_cmdline>  (1) 
J2VwaWtfcHl0aG9uJywgJy1waHQnLCAnMS4wJywgJy1waCcsICc3LjQnLCAnLXRuJywgJzgnLCAnLW1hJywgJzUwMCcsICctaW1hZScsICc8aW5maWxlLm1hZT4nLCAnLW9tYWUnLCAnPG91dGZpbGUubWFlPic=

>  <s_epik_input>  (1) 
TzFbQ0gyXU49QyhOMVtOSDJdKUMoPU8pT1tDQEBIXShbQ0gzXSlbQ0BIXShbQ0gyXVtPSF0pW0NIXT1DPVtDSF1bQ0gyXU4oW0NIMl0yKVtDQEhdKGMoW2NIXVtjSF0zKVtjSF1bY0hdYzNbQ0gyXUYpW0NIMl1OKFtDQEhdMjQpT1tDSDJdW0NIMl00

>  <s_glide_docking_method>  (1) 
confgen

>  <s_i_glide_gridfile>  (1) 
gpcr_5ht2c_6bqh_protein_autoprepared_prepared

>  <s_lp_Force_Field>  (1) 
S-OPLS

>  <s_lp_Variant>  (1) 
DiffSBDD_13_num_sample_50-1

>  <s_m_source_file>  (1) 
generated__ligand_DiffSBDD_2026-05-06_prepared.sdf

>  <GenAI_Model>  (1) 
DiffSBDD

>  <Protein>  (1) 
GPCR_5HT2C

$$$$
DiffSBDD_33_num_sample_50
     RDKit          3D

  0  0  0  0  0  0  0  0  0  0999 V3000
M  V30 BEGIN CTAB
M  V30 COUNTS 78 81 0 0 1
M  V30 BEGIN ATOM
M  V30 1 C 39.623554 32.818855 63.119376 0
M  V30 2 C 38.264806 33.118612 60.110296 0 CFG=1
M  V30 3 C 38.476785 29.355415 54.493767 0
M  V30 4 C 36.957239 32.440036 60.569458 0
M  V30 5 C 38.553200 25.502495 56.535989 0
M  V30 6 C 38.981753 30.727071 54.915655 0 CFG=2
M  V30 7 C 38.667395 32.777683 58.656311 0
M  V30 8 C 38.268559 25.689418 55.104014 0
M  V30 9 C 41.398466 33.862095 61.853500 0
M  V30 10 O 37.067401 38.978963 61.453431 0
M  V30 11 C 42.267410 32.820389 62.222702 0
M  V30 12 C 39.290711 26.633568 57.281115 0 CFG=2
M  V30 13 C 39.095670 28.104752 55.182347 0 CFG=2
M  V30 14 C 42.232343 29.687743 64.216242 0
M  V30 15 C 41.818836 31.777962 63.055158 0
M  V30 16 C 39.104949 26.547975 58.796558 0
M  V30 17 C 40.484941 31.781695 63.504744 0
M  V30 18 C 38.856089 37.560859 62.243167 0
M  V30 19 C 37.314225 36.980587 60.223553 0
M  V30 20 O 39.467408 30.869172 56.252544 0
M  V30 21 N 37.715249 33.204784 57.611099 0 CHG=1
M  V30 22 C 38.527426 26.863430 54.492695 0
M  V30 23 O 37.718569 28.464081 57.190815 0
M  V30 24 O 42.691886 30.771083 63.416982 0
M  V30 25 C 37.118609 35.462411 60.288936 0 CFG=2
M  V30 26 C 38.980441 28.037642 56.730252 0 CFG=1
M  V30 27 C 38.201884 31.463557 55.981063 0 CFG=1
M  V30 28 C 37.448098 37.623542 61.602053 0 CFG=2
M  V30 29 C 39.764865 36.351191 61.945084 0
M  V30 30 O 38.242353 24.476553 57.142222 0
M  V30 31 C 39.098123 34.957482 61.883072 0 CFG=2
M  V30 32 C 40.070477 33.856784 62.302282 0
M  V30 33 C 38.173443 32.952703 56.229531 0
M  V30 34 C 38.425064 34.643814 60.506236 0 CFG=1
M  V30 35 O 36.526390 35.147367 59.053501 0
M  V30 36 O 40.667405 26.435368 57.117297 0
M  V30 37 H 38.617481 32.821424 63.453496 0
M  V30 38 H 39.025609 32.537433 60.615466 0
M  V30 39 H 37.393628 29.338941 54.618980 0
M  V30 40 H 38.636384 29.283933 53.417436 0
M  V30 41 H 36.084825 32.792627 60.019933 0
M  V30 42 H 37.011465 31.360449 60.422946 0
M  V30 43 H 36.777508 32.615135 61.630366 0
M  V30 44 H 39.535784 31.303608 54.176551 0
M  V30 45 H 39.637015 33.221794 58.437987 0
M  V30 46 H 38.799702 31.697615 58.583980 0
M  V30 47 H 37.847831 24.861645 54.553071 0
M  V30 48 H 41.752171 34.657798 61.215197 0
M  V30 49 H 36.299728 39.044022 60.899678 0
M  V30 50 H 43.285523 32.821413 61.866158 0
M  V30 51 H 40.163767 28.106025 54.985526 0
M  V30 52 H 43.049717 28.983640 64.371359 0
M  V30 53 H 41.904553 30.026840 65.199670 0
M  V30 54 H 41.421943 29.141966 63.730775 0
M  V30 55 H 38.051575 26.552445 59.053480 0
M  V30 56 H 39.534809 25.621519 59.165225 0
M  V30 57 H 39.589318 27.374385 59.318393 0
M  V30 58 H 40.116186 30.992807 64.141701 0
M  V30 59 H 39.429866 38.444410 61.960352 0
M  V30 60 H 38.728007 37.621415 63.324727 0
M  V30 61 H 36.429673 37.411179 59.750383 0
M  V30 62 H 38.146767 37.242474 59.573617 0
M  V30 63 H 36.840673 32.692795 57.711048 0
M  V30 64 H 38.311161 26.960762 53.438257 0
M  V30 65 H 37.057439 27.894866 56.829313 0
M  V30 66 H 36.389387 35.207431 61.059081 0
M  V30 67 H 39.705444 28.718313 57.174213 0
M  V30 68 H 37.356261 30.918090 56.390040 0
M  V30 69 H 36.722519 37.167060 62.276742 0
M  V30 70 H 40.360876 36.527522 61.053491 0
M  V30 71 H 40.496771 36.345892 62.754930 0
M  V30 72 H 38.320326 34.980576 62.638030 0
M  V30 73 H 37.467441 33.408668 55.537208 0
M  V30 74 H 39.151552 33.394697 56.038562 0
M  V30 75 H 39.194772 35.020274 59.853503 0
M  V30 76 H 35.726048 35.642209 58.946323 0
M  V30 77 H 40.871478 26.367096 56.197769 0
M  V30 78 H 37.494356 34.185100 57.758308 0
M  V30 END ATOM
M  V30 BEGIN BOND
M  V30 1 1 4 2
M  V30 2 1 6 3
M  V30 3 1 7 2
M  V30 4 1 8 5
M  V30 5 2 11 9
M  V30 6 1 12 5
M  V30 7 1 13 3
M  V30 8 1 15 11
M  V30 9 1 16 12
M  V30 10 1 17 1
M  V30 11 2 17 15
M  V30 12 1 20 6
M  V30 13 1 21 7
M  V30 14 2 22 8
M  V30 15 1 22 13
M  V30 16 1 24 14
M  V30 17 1 24 15
M  V30 18 1 25 19
M  V30 19 1 26 12
M  V30 20 1 26 13
M  V30 21 1 26 23
M  V30 22 1 27 6
M  V30 23 1 27 20
M  V30 24 1 28 10
M  V30 25 1 28 18
M  V30 26 1 28 19
M  V30 27 1 29 18
M  V30 28 2 30 5
M  V30 29 1 31 29
M  V30 30 2 32 1
M  V30 31 1 32 9
M  V30 32 1 32 31
M  V30 33 1 33 21
M  V30 34 1 33 27
M  V30 35 1 34 2
M  V30 36 1 34 25
M  V30 37 1 34 31
M  V30 38 1 35 25
M  V30 39 1 12 36 CFG=1
M  V30 40 1 37 1
M  V30 41 1 2 38 CFG=1
M  V30 42 1 39 3
M  V30 43 1 40 3
M  V30 44 1 41 4
M  V30 45 1 42 4
M  V30 46 1 43 4
M  V30 47 1 6 44 CFG=3
M  V30 48 1 45 7
M  V30 49 1 46 7
M  V30 50 1 47 8
M  V30 51 1 48 9
M  V30 52 1 49 10
M  V30 53 1 50 11
M  V30 54 1 13 51 CFG=1
M  V30 55 1 52 14
M  V30 56 1 53 14
M  V30 57 1 54 14
M  V30 58 1 55 16
M  V30 59 1 56 16
M  V30 60 1 57 16
M  V30 61 1 58 17
M  V30 62 1 59 18
M  V30 63 1 60 18
M  V30 64 1 61 19
M  V30 65 1 62 19
M  V30 66 1 63 21
M  V30 67 1 64 22
M  V30 68 1 65 23
M  V30 69 1 25 66 CFG=1
M  V30 70 1 26 67 CFG=1
M  V30 71 1 27 68 CFG=1
M  V30 72 1 28 69 CFG=1
M  V30 73 1 70 29
M  V30 74 1 71 29
M  V30 75 1 31 72 CFG=1
M  V30 76 1 73 33
M  V30 77 1 74 33
M  V30 78 1 34 75 CFG=3
M  V30 79 1 76 35
M  V30 80 1 77 36
M  V30 81 1 78 21
M  V30 END BOND
M  V30 END CTAB
M  END
>  <i_epik_Tot_Q>  (1) 
1

>  <i_epik_Tot_abs_Q>  (1) 
1

>  <i_i_glide_confnum>  (1) 
2117

>  <i_i_glide_lignum>  (1) 
86

>  <i_i_glide_posenum>  (1) 
283

>  <i_i_glide_rotatable_bonds>  (1) 
13

>  <i_lp_mmshare_version>  (1) 
72125

>  <i_m_source_file_index>  (1) 
34

>  <i_f3d_flags>  (1) 
0

>  <num_sample>  (1) 
50

>  <b_lp_Chiralities_Consistent>  (1) 
1

>  <r_epik_Charging_Adjusted_Penalty>  (1) 
0.0021184864287466625

>  <r_epik_Ionization_Penalty>  (1) 
0.0021212372829442611

>  <r_epik_Ionization_Penalty_Charging>  (1) 
0.0021184864287466625

>  <r_epik_Ionization_Penalty_Neutral>  (1) 
2.7508541975987684e-06

>  <r_epik_State_Penalty>  (1) 
-0

>  <r_glide_ring_energy>  (1) 
0

>  <r_i_docking_score>  (1) 
-7.6332588492301197

>  <r_i_glide_ecoul>  (1) 
-5.8038512612229782

>  <r_i_glide_eff_state_penalty>  (1) 
-0

>  <r_i_glide_einternal>  (1) 
17.330845744480541

>  <r_i_glide_emodel>  (1) 
-51.001742755832566

>  <r_i_glide_emodel_strain>  (1) 
1.3851074310674107

>  <r_i_glide_energy>  (1) 
-39.351629342743472

>  <r_i_glide_erotb>  (1) 
0.64233652918665762

>  <r_i_glide_esite>  (1) 
-0.088678986044665037

>  <r_i_glide_evdw>  (1) 
-33.547778081520491

>  <r_i_glide_gscore>  (1) 
-7.6332588492301197

>  <r_i_glide_gscore_strain>  (1) 
0

>  <r_i_glide_hbond>  (1) 
-0.39894239485545835

>  <r_i_glide_ligand_efficiency>  (1) 
-0.21203496803416999

>  <r_i_glide_ligand_efficiency_ln>  (1) 
-1.6653708540803518

>  <r_i_glide_ligand_efficiency_sa>  (1) 
-0.70012403867052719

>  <r_i_glide_lipo>  (1) 
-4.1983221236080297

>  <r_i_glide_metal>  (1) 
-0

>  <r_i_glide_rewards>  (1) 
-1.0416852806491539

>  <r_lp_Energy>  (1) 
54.687307999999994

>  <r_lp_tautomer_probability>  (1) 
1

>  <s_epik_cmdline>  (1) 
J2VwaWtfcHl0aG9uJywgJy1waHQnLCAnMS4wJywgJy1waCcsICc3LjQnLCAnLXRuJywgJzgnLCAnLW1hJywgJzUwMCcsICctaW1hZScsICc8aW5maWxlLm1hZT4nLCAnLW9tYWUnLCAnPG91dGZpbGUubWFlPic=

>  <s_epik_input>  (1) 
W0NIM11PYzFbY0hdW2NIXWMoW2NIXVtjSF0xKVtDQEBIXShbQ0gyXVtDSDJdW0NAQEhdKFtPSF0pW0NIMl1bQ0BIXTJbT0hdKVtDQEhdMltDQEBIXShbQ0gzXSlbQ0gyXVtOSF1bQ0gyXVtDQEBIXTNPW0NASF0zW0NIMl1bQ0BASF0oW0NASF00W09IXSlbQ0hdPVtDSF1DKD1PKVtDQEBdNChbQ0gzXSlbT0hd

>  <s_glide_docking_method>  (1) 
confgen

>  <s_i_glide_gridfile>  (1) 
gpcr_5ht2c_6bqh_protein_autoprepared_prepared

>  <s_lp_Force_Field>  (1) 
S-OPLS

>  <s_lp_Variant>  (1) 
DiffSBDD_33_num_sample_50-1

>  <s_m_source_file>  (1) 
generated__ligand_DiffSBDD_2026-05-06_prepared.sdf

>  <GenAI_Model>  (1) 
DiffSBDD

>  <Protein>  (1) 
GPCR_5HT2C

$$$$
DiffSBDD_9_num_sample_50
     RDKit          3D

  0  0  0  0  0  0  0  0  0  0999 V3000
M  V30 BEGIN CTAB
M  V30 COUNTS 72 73 0 0 1
M  V30 BEGIN ATOM
M  V30 1 C 39.812552 28.155981 58.702142 0
M  V30 2 C 39.525921 26.950385 52.934050 0
M  V30 3 C 41.415495 33.036707 63.229215 0
M  V30 4 O 41.342797 35.221295 61.454026 0
M  V30 5 C 40.060266 27.838068 57.223972 0
M  V30 6 C 42.650624 31.439693 64.856029 0
M  V30 7 C 40.790679 35.257377 62.556695 0
M  V30 8 C 40.049095 29.998134 50.469147 0
M  V30 9 C 41.038661 32.834473 67.953077 0
M  V30 10 C 40.039203 36.521608 62.993932 0
M  V30 11 O 40.667409 29.867357 60.253495 0
M  V30 12 C 40.330028 34.158338 68.274178 0
M  V30 13 C 38.937767 27.075496 54.364191 0 CFG=1
M  V30 14 C 42.902153 32.105306 66.168569 0 CFG=1
M  V30 15 C 42.937153 33.616607 66.291210 0
M  V30 16 F 38.970422 36.701566 62.217723 0
M  V30 17 C 39.212031 28.031155 51.870152 0 CFG=2
M  V30 18 C 39.958237 30.260642 52.986740 0
M  V30 19 O 42.045990 32.762001 62.204091 0
M  V30 20 C 41.038173 28.779682 59.418626 0
M  V30 21 C 41.297098 31.997997 64.372794 0 CFG=1
M  V30 22 N 39.583840 26.671272 56.763278 0
M  V30 23 F 39.651308 36.421442 64.267781 0
M  V30 24 O 40.667328 28.632180 56.511945 0
M  V30 25 P 39.731632 29.656400 61.648236 0
M  V30 26 C 37.467158 26.625067 54.446431 0
M  V30 27 N 40.797206 34.228290 63.443445 0
M  V30 28 O 39.468032 28.213263 61.792714 0 CHG=-1
M  V30 29 C 40.143608 29.267950 51.820752 0
M  V30 30 O 40.801935 30.109657 62.887544 0
M  V30 31 O 40.742603 32.681582 65.511538 0
M  V30 32 C 41.673216 32.848609 66.581000 0 CFG=2
M  V30 33 C 39.776825 26.248140 55.375927 0
M  V30 34 O 37.867405 28.421427 51.943330 0
M  V30 35 O 38.603101 30.614343 61.592548 0
M  V30 36 C 40.344348 30.845416 64.007186 0
M  V30 37 H 38.979961 28.859607 58.731129 0
M  V30 38 H 39.478952 27.266129 59.237182 0
M  V30 39 H 39.178226 26.021436 52.515743 0
M  V30 40 H 40.603383 26.821330 53.001122 0
M  V30 41 H 42.603534 30.361738 65.016325 0
M  V30 42 H 43.467384 31.621349 64.164337 0
M  V30 43 H 39.067439 30.441833 50.314096 0
M  V30 44 H 40.786309 30.799165 50.403405 0
M  V30 45 H 40.235364 29.319457 49.636494 0
M  V30 46 H 40.332378 32.007065 67.999006 0
M  V30 47 H 41.807941 32.641225 68.700999 0
M  V30 48 H 40.667411 37.406046 62.905491 0
M  V30 49 H 39.817880 34.102789 69.234270 0
M  V30 50 H 41.046175 34.978104 68.327064 0
M  V30 51 H 39.589918 34.421422 67.516782 0
M  V30 52 H 38.976464 28.124520 54.646788 0
M  V30 53 H 43.448285 31.531527 66.915279 0
M  V30 54 H 42.990519 34.212569 65.382835 0
M  V30 55 H 43.467349 34.021425 67.149320 0
M  V30 56 H 39.319468 27.529809 50.906533 0
M  V30 57 H 38.935884 30.628002 53.053848 0
M  V30 58 H 40.217066 29.824074 53.949449 0
M  V30 59 H 40.602540 31.131167 52.860096 0
M  V30 60 H 41.537689 28.021627 60.023575 0
M  V30 61 H 41.785753 29.151272 58.717444 0
M  V30 62 H 39.087054 26.053895 57.387961 0
M  V30 63 H 37.338159 25.620699 54.042304 0
M  V30 64 H 37.115310 26.606363 55.477682 0
M  V30 65 H 36.796546 27.287117 53.902551 0
M  V30 66 H 40.311876 34.354928 64.321234 0
M  V30 67 H 41.161754 28.888108 51.853492 0
M  V30 68 H 39.538689 25.186831 55.291300 0
M  V30 69 H 40.841355 26.325977 55.156042 0
M  V30 70 H 37.720449 28.792172 52.799852 0
M  V30 71 H 39.357843 31.243207 63.809224 0
M  V30 72 H 40.225750 30.159803 64.846885 0
M  V30 END ATOM
M  V30 BEGIN BOND
M  V30 1 1 5 1
M  V30 2 2 7 4
M  V30 3 1 10 7
M  V30 4 1 12 9
M  V30 5 1 13 2
M  V30 6 1 14 6
M  V30 7 1 15 14
M  V30 8 1 16 10
M  V30 9 1 17 2
M  V30 10 2 19 3
M  V30 11 1 20 1
M  V30 12 1 20 11
M  V30 13 1 21 3
M  V30 14 1 21 6
M  V30 15 1 22 5
M  V30 16 1 23 10
M  V30 17 2 24 5
M  V30 18 1 25 11
M  V30 19 1 26 13
M  V30 20 1 27 3
M  V30 21 1 27 7
M  V30 22 1 28 25
M  V30 23 1 29 8
M  V30 24 1 29 17
M  V30 25 1 29 18
M  V30 26 1 30 25
M  V30 27 1 31 21
M  V30 28 1 32 9 CFG=1
M  V30 29 1 32 14
M  V30 30 1 32 15
M  V30 31 1 32 31
M  V30 32 1 33 13
M  V30 33 1 33 22
M  V30 34 1 34 17
M  V30 35 2 35 25
M  V30 36 1 21 36 CFG=3
M  V30 37 1 36 30
M  V30 38 1 37 1
M  V30 39 1 38 1
M  V30 40 1 39 2
M  V30 41 1 40 2
M  V30 42 1 41 6
M  V30 43 1 42 6
M  V30 44 1 43 8
M  V30 45 1 44 8
M  V30 46 1 45 8
M  V30 47 1 46 9
M  V30 48 1 47 9
M  V30 49 1 48 10
M  V30 50 1 49 12
M  V30 51 1 50 12
M  V30 52 1 51 12
M  V30 53 1 13 52 CFG=1
M  V30 54 1 14 53 CFG=1
M  V30 55 1 54 15
M  V30 56 1 55 15
M  V30 57 1 17 56 CFG=3
M  V30 58 1 57 18
M  V30 59 1 58 18
M  V30 60 1 59 18
M  V30 61 1 60 20
M  V30 62 1 61 20
M  V30 63 1 62 22
M  V30 64 1 63 26
M  V30 65 1 64 26
M  V30 66 1 65 26
M  V30 67 1 66 27
M  V30 68 1 67 29
M  V30 69 1 68 33
M  V30 70 1 69 33
M  V30 71 1 70 34
M  V30 72 1 71 36
M  V30 73 1 72 36
M  V30 END BOND
M  V30 END CTAB
M  END
>  <i_epik_Tot_Q>  (1) 
-1

>  <i_epik_Tot_abs_Q>  (1) 
1

>  <i_i_glide_confnum>  (1) 
5386

>  <i_i_glide_lignum>  (1) 
31

>  <i_i_glide_posenum>  (1) 
352

>  <i_i_glide_rotatable_bonds>  (1) 
19

>  <i_lp_mmshare_version>  (1) 
72125

>  <i_m_source_file_index>  (1) 
10

>  <i_f3d_flags>  (1) 
0

>  <num_sample>  (1) 
50

>  <b_lp_Chiralities_Consistent>  (1) 
1

>  <r_epik_Charging_Adjusted_Penalty>  (1) 
0.00011155638353850814

>  <r_epik_Ionization_Penalty>  (1) 
0.00045402006549120547

>  <r_epik_Ionization_Penalty_Charging>  (1) 
0.00011155638353850814

>  <r_epik_Ionization_Penalty_Neutral>  (1) 
0.00034246368195269732

>  <r_epik_State_Penalty>  (1) 
-0

>  <r_glide_ring_energy>  (1) 
0

>  <r_i_docking_score>  (1) 
-7.6287891790853548

>  <r_i_glide_ecoul>  (1) 
-3.908269379859231

>  <r_i_glide_eff_state_penalty>  (1) 
-0

>  <r_i_glide_einternal>  (1) 
19.56164051473317

>  <r_i_glide_emodel>  (1) 
-61.760003587511868

>  <r_i_glide_emodel_strain>  (1) 
1.667086733976511

>  <r_i_glide_energy>  (1) 
-50.580701158534922

>  <r_i_glide_erotb>  (1) 
1.0579039017731899

>  <r_i_glide_esite>  (1) 
-0.0023034699745545896

>  <r_i_glide_evdw>  (1) 
-46.672431778675687

>  <r_i_glide_gscore>  (1) 
-7.6287891790853548

>  <r_i_glide_gscore_strain>  (1) 
0

>  <r_i_glide_hbond>  (1) 
-0.1276895199583836

>  <r_i_glide_ligand_efficiency>  (1) 
-0.21191081053014874

>  <r_i_glide_ligand_efficiency_ln>  (1) 
-1.6643956928112964

>  <r_i_glide_ligand_efficiency_sa>  (1) 
-0.69971407962484466

>  <r_i_glide_lipo>  (1) 
-4.1110949930935652

>  <r_i_glide_metal>  (1) 
-0

>  <r_i_glide_rewards>  (1) 
-1.5257431019193726

>  <r_lp_Energy>  (1) 
21.957920999999999

>  <r_lp_tautomer_probability>  (1) 
1

>  <s_epik_cmdline>  (1) 
J2VwaWtfcHl0aG9uJywgJy1waHQnLCAnMS4wJywgJy1waCcsICc3LjQnLCAnLXRuJywgJzgnLCAnLW1hJywgJzUwMCcsICctaW1hZScsICc8aW5maWxlLm1hZT4nLCAnLW9tYWUnLCAnPG91dGZpbGUubWFlPic=

>  <s_epik_input>  (1) 
W0NIM11bQ0hdKFtDSDNdKVtDQEhdKFtPSF0pW0NIMl1bQ0BASF0oW0NIM10pW0NIMl1bTkhdQyg9TylbQ0gyXVtDSDJdT1tQQEBdKD1PKShbT0hdKU9bQ0gyXVtDQF0oTzEpKEMoPU8pW05IXUMoPU8pW0NIXShGKUYpW0NIMl1bQ0BASF0oW0NIMl0yKVtDQF0xMltDSDJdW0NIM10=

>  <s_glide_docking_method>  (1) 
confgen

>  <s_i_glide_gridfile>  (1) 
gpcr_5ht2c_6bqh_protein_autoprepared_prepared

>  <s_lp_Force_Field>  (1) 
S-OPLS

>  <s_lp_Variant>  (1) 
DiffSBDD_9_num_sample_50-1

>  <s_m_source_file>  (1) 
generated__ligand_DiffSBDD_2026-05-06_prepared.sdf

>  <GenAI_Model>  (1) 
DiffSBDD

>  <Protein>  (1) 
GPCR_5HT2C

$$$$
DiffSBDD_26_num_sample_50
     RDKit          3D

  0  0  0  0  0  0  0  0  0  0999 V3000
M  V30 BEGIN CTAB
M  V30 COUNTS 96 102 0 0 1
M  V30 BEGIN ATOM
M  V30 1 C 40.594112 30.707679 63.012560 0
M  V30 2 N 41.224719 28.789547 64.579194 0
M  V30 3 C 39.344743 36.504145 62.976715 0
M  V30 4 C 37.906523 29.151126 53.204651 0
M  V30 5 N 40.330845 29.355221 66.453997 0 CHG=1
M  V30 6 N 37.942563 30.253534 58.199963 0
M  V30 7 C 36.398641 31.732751 60.223477 0
M  V30 8 C 38.325117 31.152808 61.683979 0
M  V30 9 C 40.597949 35.026715 61.511175 0
M  V30 10 C 40.598577 30.004681 64.349256 0
M  V30 11 C 38.404454 32.697510 57.686101 0
M  V30 12 C 40.065541 29.455597 60.810768 0
M  V30 13 O 39.820856 30.041006 50.793507 0
M  V30 14 C 37.960351 29.194752 57.176721 0
M  V30 15 N 38.253610 33.557686 58.900140 0 CFG=1 CHG=1
M  V30 16 C 41.041453 28.422515 65.847558 0
M  V30 17 S 38.787190 27.194808 54.873677 0
M  V30 18 C 39.310899 27.172568 53.152591 0
M  V30 19 C 37.829132 29.802512 59.611547 0 CFG=1
M  V30 20 N 41.494442 27.303115 66.414804 0
M  V30 21 C 40.525973 35.814990 62.667117 0
M  V30 22 C 37.121141 35.573756 59.971346 0
M  V30 23 C 40.037523 30.360950 65.568952 0
M  V30 24 C 36.950904 37.199081 62.427878 0
M  V30 25 C 38.309245 35.646903 60.925892 0
M  V30 26 C 41.863110 31.338309 62.438978 0
M  V30 27 C 37.855468 29.713934 55.719057 0
M  V30 28 C 39.439275 28.726922 51.142143 0
M  V30 29 C 39.236630 28.617925 52.663533 0 CFG=1
M  V30 30 C 40.912878 32.185652 63.193270 0
M  V30 31 C 38.957490 31.286365 58.012611 0
M  V30 32 C 38.232241 36.438382 62.100379 0
M  V30 33 O 38.130527 32.118854 62.400045 0
M  V30 34 C 39.560125 33.999848 59.455869 0
M  V30 35 C 35.067453 31.513778 60.856468 0
M  V30 36 O 39.274408 37.227778 64.125844 0
M  V30 37 C 38.945329 28.803757 60.023088 0
M  V30 38 C 35.731072 32.819840 61.080404 0
M  V30 39 C 37.682433 28.618952 54.633605 0 CFG=1
M  V30 40 C 41.984327 27.971637 63.632611 0
M  V30 41 C 39.485013 30.165148 62.034416 0 CFG=1
M  V30 42 N 37.536797 30.892897 60.586068 0
M  V30 43 C 37.258444 34.649051 58.736608 0
M  V30 44 C 39.485797 34.917194 60.653590 0
M  V30 45 H 37.090060 28.821564 52.559921 0
M  V30 46 H 37.915401 30.235652 53.214451 0
M  V30 47 H 36.272842 31.878069 59.154823 0
M  V30 48 H 41.502767 34.480029 61.294201 0
M  V30 49 H 37.467390 32.602939 57.145333 0
M  V30 50 H 39.076628 33.200403 56.990144 0
M  V30 51 H 40.649376 30.129398 60.190019 0
M  V30 52 H 40.747431 28.665832 61.113595 0
M  V30 53 H 39.757417 30.135317 49.854211 0
M  V30 54 H 38.883639 28.624078 57.250442 0
M  V30 55 H 37.140050 28.506362 57.381069 0
M  V30 56 H 40.301850 26.734415 53.053455 0
M  V30 57 H 38.613590 26.550047 52.591686 0
M  V30 58 H 36.906856 29.221417 59.607269 0
M  V30 59 H 42.034550 26.618290 65.905200 0
M  V30 60 H 41.312782 27.075452 67.383285 0
M  V30 61 H 41.376012 35.875664 63.330655 0
M  V30 62 H 36.938286 36.580238 59.592967 0
M  V30 63 H 36.238849 35.348835 60.555152 0
M  V30 64 H 39.467353 31.227141 65.853852 0
M  V30 65 H 36.186793 36.492838 62.750160 0
M  V30 66 H 37.067127 37.925392 63.228948 0
M  V30 67 H 36.579193 37.742958 61.560099 0
M  V30 68 H 42.811328 31.104834 62.919212 0
M  V30 69 H 41.916706 31.619745 61.389267 0
M  V30 70 H 37.022393 30.415146 55.646624 0
M  V30 71 H 38.749326 30.285642 55.471408 0
M  V30 72 H 40.236091 28.056704 50.815640 0
M  V30 73 H 38.539272 28.432508 50.603129 0
M  V30 74 H 40.001477 29.221404 53.145871 0
M  V30 75 H 40.335540 32.898765 62.637493 0
M  V30 76 H 41.239372 32.537111 64.170237 0
M  V30 77 H 39.695802 30.976281 57.274086 0
M  V30 78 H 39.467401 31.345690 58.956588 0
M  V30 79 H 40.267353 34.391858 58.731748 0
M  V30 80 H 40.041581 33.109487 59.853781 0
M  V30 81 H 34.252102 31.621438 60.160242 0
M  V30 82 H 34.953957 30.827128 61.690120 0
M  V30 83 H 40.118946 37.394789 64.524786 0
M  V30 84 H 38.512473 28.023835 60.649179 0
M  V30 85 H 39.373769 28.254634 59.189888 0
M  V30 86 H 36.038909 33.061175 62.089324 0
M  V30 87 H 35.166047 33.610172 60.597492 0
M  V30 88 H 36.667401 28.235232 54.653510 0
M  V30 89 H 41.414059 27.062531 63.453493 0
M  V30 90 H 42.171561 28.509213 62.707104 0
M  V30 91 H 42.947501 27.710423 64.072816 0
M  V30 92 H 38.967227 29.389295 62.594700 0
M  V30 93 H 36.284237 34.212137 58.515402 0
M  V30 94 H 37.467401 35.239441 57.853480 0
M  V30 95 H 40.044542 29.325858 67.425461 0
M  V30 96 H 37.841549 32.962990 59.606934 0
M  V30 END ATOM
M  V30 BEGIN BOND
M  V30 1 1 10 1
M  V30 2 1 10 2
M  V30 3 1 14 6
M  V30 4 1 15 11
M  V30 5 1 16 2
M  V30 6 2 16 5
M  V30 7 1 18 17
M  V30 8 1 19 6
M  V30 9 1 20 16
M  V30 10 1 21 3
M  V30 11 2 21 9
M  V30 12 1 23 5
M  V30 13 2 23 10
M  V30 14 1 25 22
M  V30 15 1 26 1
M  V30 16 1 27 14
M  V30 17 1 28 13
M  V30 18 1 29 4
M  V30 19 1 29 18
M  V30 20 1 29 28
M  V30 21 1 30 1
M  V30 22 1 30 26
M  V30 23 1 31 6
M  V30 24 1 31 11
M  V30 25 2 32 3
M  V30 26 1 32 24
M  V30 27 1 32 25
M  V30 28 2 33 8
M  V30 29 1 34 15
M  V30 30 1 35 7
M  V30 31 1 36 3
M  V30 32 1 37 12
M  V30 33 1 37 19
M  V30 34 1 38 7
M  V30 35 1 38 35
M  V30 36 1 39 4
M  V30 37 1 39 17
M  V30 38 1 39 27
M  V30 39 1 40 2
M  V30 40 1 41 1
M  V30 41 1 41 8
M  V30 42 1 41 12
M  V30 43 1 42 7
M  V30 44 1 42 8
M  V30 45 1 42 19
M  V30 46 1 43 15
M  V30 47 1 43 22
M  V30 48 1 44 9
M  V30 49 2 44 25
M  V30 50 1 44 34
M  V30 51 1 45 4
M  V30 52 1 46 4
M  V30 53 1 47 7
M  V30 54 1 48 9
M  V30 55 1 49 11
M  V30 56 1 50 11
M  V30 57 1 51 12
M  V30 58 1 52 12
M  V30 59 1 53 13
M  V30 60 1 54 14
M  V30 61 1 55 14
M  V30 62 1 56 18
M  V30 63 1 57 18
M  V30 64 1 19 58 CFG=3
M  V30 65 1 59 20
M  V30 66 1 60 20
M  V30 67 1 61 21
M  V30 68 1 62 22
M  V30 69 1 63 22
M  V30 70 1 64 23
M  V30 71 1 65 24
M  V30 72 1 66 24
M  V30 73 1 67 24
M  V30 74 1 68 26
M  V30 75 1 69 26
M  V30 76 1 70 27
M  V30 77 1 71 27
M  V30 78 1 72 28
M  V30 79 1 73 28
M  V30 80 1 29 74 CFG=1
M  V30 81 1 75 30
M  V30 82 1 76 30
M  V30 83 1 77 31
M  V30 84 1 78 31
M  V30 85 1 79 34
M  V30 86 1 80 34
M  V30 87 1 81 35
M  V30 88 1 82 35
M  V30 89 1 83 36
M  V30 90 1 84 37
M  V30 91 1 85 37
M  V30 92 1 86 38
M  V30 93 1 87 38
M  V30 94 1 39 88 CFG=3
M  V30 95 1 89 40
M  V30 96 1 90 40
M  V30 97 1 91 40
M  V30 98 1 41 92 CFG=1
M  V30 99 1 93 43
M  V30 100 1 94 43
M  V30 101 1 95 5
M  V30 102 1 15 96 CFG=1
M  V30 END BOND
M  V30 END CTAB
M  END
>  <i_epik_Tot_Q>  (1) 
2

>  <i_epik_Tot_abs_Q>  (1) 
2

>  <i_i_glide_confnum>  (1) 
5442

>  <i_i_glide_lignum>  (1) 
69

>  <i_i_glide_posenum>  (1) 
29

>  <i_i_glide_rotatable_bonds>  (1) 
13

>  <i_lp_mmshare_version>  (1) 
72125

>  <i_m_source_file_index>  (1) 
27

>  <i_f3d_flags>  (1) 
0

>  <num_sample>  (1) 
50

>  <b_lp_Chiralities_Consistent>  (1) 
1

>  <r_epik_Charging_Adjusted_Penalty>  (1) 
0.023035094209541071

>  <r_epik_Ionization_Penalty>  (1) 
0.04084289902745275

>  <r_epik_Ionization_Penalty_Charging>  (1) 
0.023035094209541071

>  <r_epik_Ionization_Penalty_Neutral>  (1) 
0.017807804817911676

>  <r_epik_State_Penalty>  (1) 
-0

>  <r_glide_ring_energy>  (1) 
0

>  <r_i_docking_score>  (1) 
-7.6247898248386567

>  <r_i_glide_ecoul>  (1) 
-3.5346593108020508

>  <r_i_glide_eff_state_penalty>  (1) 
-0

>  <r_i_glide_einternal>  (1) 
15.789052591775111

>  <r_i_glide_emodel>  (1) 
-54.6396737806608

>  <r_i_glide_emodel_strain>  (1) 
5.1483276163617973

>  <r_i_glide_energy>  (1) 
-46.776343835611591

>  <r_i_glide_erotb>  (1) 
0.45984128746928787

>  <r_i_glide_esite>  (1) 
-0.03492526927915196

>  <r_i_glide_evdw>  (1) 
-43.241684524809543

>  <r_i_glide_gscore>  (1) 
-7.6247898248386567

>  <r_i_glide_gscore_strain>  (1) 
0.28708190409044931

>  <r_i_glide_hbond>  (1) 
-0.25730117457026341

>  <r_i_glide_ligand_efficiency>  (1) 
-0.1732906778372422

>  <r_i_glide_ligand_efficiency_ln>  (1) 
-1.5937474072477218

>  <r_i_glide_ligand_efficiency_sa>  (1) 
-0.61177645603023323

>  <r_i_glide_lipo>  (1) 
-4.3124718929502084

>  <r_i_glide_metal>  (1) 
-0

>  <r_i_glide_rewards>  (1) 
-1.0747315567379858

>  <r_lp_Energy>  (1) 
46.785410999999996

>  <r_lp_tautomer_probability>  (1) 
1

>  <s_epik_Chemistry_Notes>  (1) 
This compound contains an acetal/aminal-like group ( X-CH(R)-Y where X, Y are N, S, or O) that may be acid/base labile, releasing an aldehyde.

>  <s_epik_cmdline>  (1) 
J2VwaWtfcHl0aG9uJywgJy1waHQnLCAnMS4wJywgJy1waCcsICc3LjQnLCAnLXRuJywgJzgnLCAnLW1hJywgJzUwMCcsICctaW1hZScsICc8aW5maWxlLm1hZT4nLCAnLW9tYWUnLCAnPG91dGZpbGUubWFlPic=

>  <s_epik_input>  (1) 
W05IMl1jMW5bY0hdYyhuMVtDSDNdKUMyKFtDSDJdW0NIMl0yKVtDQEBIXShDMz1PKVtDSDJdW0NIMl1bQ0BASF0oTjNbQ0hdNFtDSDJdW0NIMl00KU4oW0NIMl1bQ0gyXVtDQEhdKFNbQ0gyXTUpW0NIMl1bQ0BASF01W0NIMl1bT0hdKVtDSDJdW0NIMl1OKFtDSDJdW0NIMl02KVtDSDJdYyhjNjcpW2NIXVtjSF1jKFtPSF0pYzdbQ0gzXQ==

>  <s_glide_docking_method>  (1) 
confgen

>  <s_i_glide_gridfile>  (1) 
gpcr_5ht2c_6bqh_protein_autoprepared_prepared

>  <s_lp_Force_Field>  (1) 
S-OPLS

>  <s_lp_Variant>  (1) 
DiffSBDD_26_num_sample_50-2

>  <s_m_source_file>  (1) 
generated__ligand_DiffSBDD_2026-05-06_prepared.sdf

>  <GenAI_Model>  (1) 
DiffSBDD

>  <Protein>  (1) 
GPCR_5HT2C

$$$$
DiffSBDD_25_num_sample_50
     RDKit          3D

  0  0  0  0  0  0  0  0  0  0999 V3000
M  V30 BEGIN CTAB
M  V30 COUNTS 59 60 0 0 1
M  V30 BEGIN ATOM
M  V30 1 C 38.331476 28.182348 56.071529 0 CFG=2
M  V30 2 C 38.322460 27.942406 53.530278 0
M  V30 3 C 37.911044 37.923248 60.800163 0
M  V30 4 C 36.644652 38.049289 61.657966 0
M  V30 5 C 38.239061 31.144919 59.542893 0 CFG=1
M  V30 6 C 38.717894 28.671592 54.672231 0
M  V30 7 C 37.891994 29.350594 56.987804 0
M  V30 8 C 39.477273 29.856863 54.516845 0
M  V30 9 C 37.859550 34.808892 60.349888 0
M  V30 10 C 39.471384 29.555469 52.098734 0
M  V30 11 C 37.079863 30.131886 59.339838 0 CFG=1
M  V30 12 C 38.199307 36.826453 62.936644 0
M  V30 13 N 35.823628 30.819829 59.054056 0 CHG=1
M  V30 14 C 38.260450 33.458804 59.797775 0
M  V30 15 C 38.698854 28.383536 52.245735 0
M  V30 16 C 37.345204 28.957614 58.372446 0
M  V30 17 N 36.758815 37.027351 62.714896 0 CHG=1
M  V30 18 N 37.747894 32.359321 60.187093 0
M  V30 19 C 38.840157 36.950872 61.550074 0 CFG=1
M  V30 20 C 39.947752 26.143224 55.902818 0
M  V30 21 C 39.093162 35.582157 60.868936 0
M  V30 22 C 39.849638 30.296065 53.231522 0
M  V30 23 C 39.502804 27.379226 56.696756 0
M  V30 24 Cl 39.940750 30.086840 50.529370 0
M  V30 25 O 39.235436 30.527678 60.333217 0
M  V30 26 H 37.484445 27.501540 55.959735 0
M  V30 27 H 37.743879 27.036713 53.639675 0
M  V30 28 H 38.384625 38.898148 60.692804 0
M  V30 29 H 37.687361 37.596596 59.789126 0
M  V30 30 H 36.611142 39.026228 62.136280 0
M  V30 31 H 35.740032 37.946041 61.064899 0
M  V30 32 H 38.701542 31.386941 58.584174 0
M  V30 33 H 37.138590 29.953473 56.476134 0
M  V30 34 H 38.767851 29.972458 57.129778 0
M  V30 35 H 39.788542 30.422138 55.378080 0
M  V30 36 H 37.348559 35.356697 59.553673 0
M  V30 37 H 37.123954 34.664370 61.136053 0
M  V30 38 H 36.883436 29.661750 60.290784 0
M  V30 39 H 38.438052 35.881774 63.420960 0
M  V30 40 H 38.564396 37.610636 63.598115 0
M  V30 41 H 35.802870 31.221484 58.103727 0
M  V30 42 H 35.043990 30.192363 59.151065 0
M  V30 43 H 39.033959 33.496575 59.027379 0
M  V30 44 H 38.401518 27.818719 51.373409 0
M  V30 45 H 38.046293 28.288261 58.869446 0
M  V30 46 H 36.430493 28.380701 58.244589 0
M  V30 47 H 36.283443 37.297057 63.566342 0
M  V30 48 H 39.819717 37.419730 61.670494 0
M  V30 49 H 40.666074 25.575290 56.487178 0
M  V30 50 H 39.106608 25.483318 55.686242 0
M  V30 51 H 40.429142 26.414777 54.962565 0
M  V30 52 H 39.625325 34.954642 61.582842 0
M  V30 53 H 39.794763 35.724950 60.049579 0
M  V30 54 H 40.435092 31.195150 53.116345 0
M  V30 55 H 40.363747 28.036070 56.828323 0
M  V30 56 H 39.242735 27.027026 57.692893 0
M  V30 57 H 39.084112 29.594776 60.353950 0
M  V30 58 H 36.382200 36.151944 62.371895 0
M  V30 59 H 35.745964 31.597607 59.690576 0
M  V30 END ATOM
M  V30 BEGIN BOND
M  V30 1 1 4 3
M  V30 2 1 6 1
M  V30 3 1 6 2
M  V30 4 1 7 1
M  V30 5 2 8 6
M  V30 6 1 11 5
M  V30 7 1 13 11
M  V30 8 1 14 9
M  V30 9 2 15 2
M  V30 10 1 15 10
M  V30 11 1 16 7
M  V30 12 1 16 11
M  V30 13 1 17 4
M  V30 14 1 17 12
M  V30 15 1 18 5
M  V30 16 2 18 14
M  V30 17 1 19 3
M  V30 18 1 19 12
M  V30 19 1 21 9
M  V30 20 1 21 19
M  V30 21 1 22 8
M  V30 22 2 22 10
M  V30 23 1 23 1
M  V30 24 1 23 20
M  V30 25 1 24 10
M  V30 26 1 25 5
M  V30 27 1 1 26 CFG=3
M  V30 28 1 27 2
M  V30 29 1 28 3
M  V30 30 1 29 3
M  V30 31 1 30 4
M  V30 32 1 31 4
M  V30 33 1 5 32 CFG=3
M  V30 34 1 33 7
M  V30 35 1 34 7
M  V30 36 1 35 8
M  V30 37 1 36 9
M  V30 38 1 37 9
M  V30 39 1 11 38 CFG=1
M  V30 40 1 39 12
M  V30 41 1 40 12
M  V30 42 1 41 13
M  V30 43 1 42 13
M  V30 44 1 43 14
M  V30 45 1 44 15
M  V30 46 1 45 16
M  V30 47 1 46 16
M  V30 48 1 47 17
M  V30 49 1 19 48 CFG=1
M  V30 50 1 49 20
M  V30 51 1 50 20
M  V30 52 1 51 20
M  V30 53 1 52 21
M  V30 54 1 53 21
M  V30 55 1 54 22
M  V30 56 1 55 23
M  V30 57 1 56 23
M  V30 58 1 57 25
M  V30 59 1 58 17
M  V30 60 1 59 13
M  V30 END BOND
M  V30 END CTAB
M  END
>  <i_epik_Tot_Q>  (1) 
2

>  <i_epik_Tot_abs_Q>  (1) 
2

>  <i_i_glide_confnum>  (1) 
279

>  <i_i_glide_lignum>  (1) 
66

>  <i_i_glide_posenum>  (1) 
352

>  <i_i_glide_rotatable_bonds>  (1) 
11

>  <i_lp_mmshare_version>  (1) 
72125

>  <i_m_source_file_index>  (1) 
26

>  <i_f3d_flags>  (1) 
0

>  <num_sample>  (1) 
50

>  <b_lp_Chiralities_Consistent>  (1) 
1

>  <r_epik_Charging_Adjusted_Penalty>  (1) 
0.45127827763218775

>  <r_epik_Ionization_Penalty>  (1) 
0.041210974459634293

>  <r_epik_Ionization_Penalty_Charging>  (1) 
0.040598438679583813

>  <r_epik_Ionization_Penalty_Neutral>  (1) 
0.0006125357800504809

>  <r_epik_State_Penalty>  (1) 
0.41067983895260396

>  <r_glide_ring_energy>  (1) 
0

>  <r_i_docking_score>  (1) 
-7.615859737293369

>  <r_i_glide_ecoul>  (1) 
-9.3354411221299429

>  <r_i_glide_eff_state_penalty>  (1) 
0.41067983895260396

>  <r_i_glide_einternal>  (1) 
4.6476789979584314

>  <r_i_glide_emodel>  (1) 
-65.886902837325835

>  <r_i_glide_emodel_strain>  (1) 
1.8558215811921883

>  <r_i_glide_energy>  (1) 
-42.673951066918676

>  <r_i_glide_erotb>  (1) 
0.99595821917536853

>  <r_i_glide_esite>  (1) 
-0.12316892868363512

>  <r_i_glide_evdw>  (1) 
-33.338509944788733

>  <r_i_glide_gscore>  (1) 
-8.0265395762459733

>  <r_i_glide_gscore_strain>  (1) 
0

>  <r_i_glide_hbond>  (1) 
-0.13613677468456525

>  <r_i_glide_ligand_efficiency>  (1) 
-0.30463438949173477

>  <r_i_glide_ligand_efficiency_ln>  (1) 
-1.8051869866379133

>  <r_i_glide_ligand_efficiency_sa>  (1) 
-0.89075635854347956

>  <r_i_glide_lipo>  (1) 
-3.8575572727798852

>  <r_i_glide_metal>  (1) 
-0

>  <r_i_glide_rewards>  (1) 
-1.8383931537143283

>  <r_lp_Energy>  (1) 
33.902127

>  <r_lp_tautomer_probability>  (1) 
0.49999300000000002

>  <s_epik_Chemistry_Notes>  (1) 
This compound has an imine and may undergo hydrolysis. This compound contains an acetal/aminal-like group ( X-CH(R)-Y where X, Y are N, S, or O) that may be acid/base labile, releasing an aldehyde.

>  <s_epik_cmdline>  (1) 
J2VwaWtfcHl0aG9uJywgJy1waHQnLCAnMS4wJywgJy1waCcsICc3LjQnLCAnLXRuJywgJzgnLCAnLW1hJywgJzUwMCcsICctaW1hZScsICc8aW5maWxlLm1hZT4nLCAnLW9tYWUnLCAnPG91dGZpbGUubWFlPic=

>  <s_epik_input>  (1) 
W2NIXTFbY0hdYyhDbClbY0hdW2NIXWMxW0NAQEhdKFtDSDJdW0NIM10pW0NIMl1bQ0gyXVtDQEhdKFtOSDJdKVtDQEhdKFtPSF0pXE49W0NIXVxbQ0gyXVtDSDJdW0NASF0yW0NIMl1bQ0gyXVtOSF1bQ0gyXTI=

>  <s_glide_docking_method>  (1) 
confgen

>  <s_i_glide_gridfile>  (1) 
gpcr_5ht2c_6bqh_protein_autoprepared_prepared

>  <s_lp_Force_Field>  (1) 
S-OPLS

>  <s_lp_Variant>  (1) 
DiffSBDD_25_num_sample_50-1

>  <s_m_source_file>  (1) 
generated__ligand_DiffSBDD_2026-05-06_prepared.sdf

>  <GenAI_Model>  (1) 
DiffSBDD

>  <Protein>  (1) 
GPCR_5HT2C

$$$$
DiffSBDD_15_num_sample_50
     RDKit          3D

  0  0  0  0  0  0  0  0  0  0999 V3000
M  V30 BEGIN CTAB
M  V30 COUNTS 46 47 0 0 1
M  V30 BEGIN ATOM
M  V30 1 S 39.607662 29.418118 56.428875 0
M  V30 2 C 39.376526 27.948944 51.811216 0
M  V30 3 C 40.358878 29.946053 50.807134 0
M  V30 4 C 40.022264 28.572307 50.728190 0
M  V30 5 C 38.886250 27.003435 58.228811 0
M  V30 6 C 37.156201 30.854604 59.418113 0
M  V30 7 C 39.367688 30.021385 53.010086 0
M  V30 8 C 37.735378 26.509016 57.337855 0
M  V30 9 O 35.867413 30.421433 59.053500 0
M  V30 10 C 38.444987 29.537946 55.041124 0 CFG=1
M  V30 11 C 37.036393 27.622890 53.774335 0
M  V30 12 N 38.475141 29.420205 57.724997 0
M  V30 13 C 38.140745 30.756779 58.232981 0
M  V30 14 O 39.424402 24.839878 56.075726 0
M  V30 15 N 38.970310 30.617214 54.165499 0
M  V30 16 C 39.067388 28.715914 52.942058 0
M  V30 17 C 36.833274 24.484113 55.473646 0
M  V30 18 C 38.409646 28.169865 54.149763 0 CFG=1
M  V30 19 C 40.027846 30.679132 51.965709 0
M  V30 20 F 40.994821 30.549575 49.780042 0
M  V30 21 C 38.703178 28.432804 58.782411 0
M  V30 22 O 37.867407 23.907796 57.853503 0
M  V30 23 S 38.112093 24.821416 56.734491 0
M  V30 24 H 39.126407 26.898774 51.771119 0
M  V30 25 H 40.267403 28.004585 49.853495 0
M  V30 26 H 39.826236 26.936801 57.679982 0
M  V30 27 H 39.002636 26.305242 59.053536 0
M  V30 28 H 37.069772 31.902155 59.708494 0
M  V30 29 H 37.502608 30.329951 60.307671 0
M  V30 30 H 36.778435 26.487085 57.853513 0
M  V30 31 H 37.622330 27.162829 56.486926 0
M  V30 32 H 35.624167 30.878037 58.237091 0
M  V30 33 H 37.450816 29.807603 55.400161 0
M  V30 34 H 37.124871 26.780606 53.087796 0
M  V30 35 H 36.513455 27.265385 54.651070 0
M  V30 36 H 36.439363 28.377300 53.265601 0
M  V30 37 H 37.758787 31.352639 57.402772 0
M  V30 38 H 39.067394 31.236000 58.540143 0
M  V30 39 H 39.530002 31.358147 54.562530 0
M  V30 40 H 36.815997 23.414853 55.267015 0
M  V30 41 H 35.867411 24.793170 55.857822 0
M  V30 42 H 37.070024 25.011192 54.554317 0
M  V30 43 H 39.035710 27.389455 54.584742 0
M  V30 44 H 40.268614 31.723838 52.039323 0
M  V30 45 H 39.582309 28.719839 59.360371 0
M  V30 46 H 37.867383 28.418333 59.474816 0
M  V30 END ATOM
M  V30 BEGIN BOND
M  V30 1 2 4 2
M  V30 2 1 4 3
M  V30 3 1 8 5
M  V30 4 1 9 6
M  V30 5 1 10 1
M  V30 6 1 12 1
M  V30 7 1 13 6
M  V30 8 1 13 12
M  V30 9 1 15 7
M  V30 10 1 15 10
M  V30 11 1 16 2
M  V30 12 2 16 7
M  V30 13 1 18 10
M  V30 14 1 18 11
M  V30 15 1 18 16
M  V30 16 2 19 3
M  V30 17 1 19 7
M  V30 18 1 20 3
M  V30 19 1 21 5
M  V30 20 1 21 12
M  V30 21 1 23 8
M  V30 22 2 23 14
M  V30 23 1 23 17
M  V30 24 2 23 22
M  V30 25 1 24 2
M  V30 26 1 25 4
M  V30 27 1 26 5
M  V30 28 1 27 5
M  V30 29 1 28 6
M  V30 30 1 29 6
M  V30 31 1 30 8
M  V30 32 1 31 8
M  V30 33 1 32 9
M  V30 34 1 10 33 CFG=1
M  V30 35 1 34 11
M  V30 36 1 35 11
M  V30 37 1 36 11
M  V30 38 1 37 13
M  V30 39 1 38 13
M  V30 40 1 39 15
M  V30 41 1 40 17
M  V30 42 1 41 17
M  V30 43 1 42 17
M  V30 44 1 18 43 CFG=1
M  V30 45 1 44 19
M  V30 46 1 45 21
M  V30 47 1 46 21
M  V30 END BOND
M  V30 END CTAB
M  END
>  <i_epik_Tot_Q>  (1) 
0

>  <i_epik_Tot_abs_Q>  (1) 
0

>  <i_i_glide_confnum>  (1) 
439

>  <i_i_glide_lignum>  (1) 
45

>  <i_i_glide_posenum>  (1) 
109

>  <i_i_glide_rotatable_bonds>  (1) 
9

>  <i_lp_mmshare_version>  (1) 
72125

>  <i_m_source_file_index>  (1) 
16

>  <i_f3d_flags>  (1) 
0

>  <num_sample>  (1) 
50

>  <b_lp_Chiralities_Consistent>  (1) 
1

>  <r_epik_Charging_Adjusted_Penalty>  (1) 
0

>  <r_epik_Ionization_Penalty>  (1) 
0.0018364177228642131

>  <r_epik_Ionization_Penalty_Charging>  (1) 
0

>  <r_epik_Ionization_Penalty_Neutral>  (1) 
0.0018364177228642131

>  <r_epik_State_Penalty>  (1) 
-0

>  <r_glide_ring_energy>  (1) 
0

>  <r_i_docking_score>  (1) 
-7.6146552830968695

>  <r_i_glide_ecoul>  (1) 
-4.7925229933296523

>  <r_i_glide_eff_state_penalty>  (1) 
-0

>  <r_i_glide_einternal>  (1) 
7.3109128029908632

>  <r_i_glide_emodel>  (1) 
-55.833524192983226

>  <r_i_glide_emodel_strain>  (1) 
1.8799233449707415

>  <r_i_glide_energy>  (1) 
-40.727822595753238

>  <r_i_glide_erotb>  (1) 
1.0229839614613039

>  <r_i_glide_esite>  (1) 
0

>  <r_i_glide_evdw>  (1) 
-35.935299602423584

>  <r_i_glide_gscore>  (1) 
-7.6146552830968695

>  <r_i_glide_gscore_strain>  (1) 
0

>  <r_i_glide_hbond>  (1) 
-0.16

>  <r_i_glide_ligand_efficiency>  (1) 
-0.33107196883029866

>  <r_i_glide_ligand_efficiency_ln>  (1) 
-1.8412926933295282

>  <r_i_glide_ligand_efficiency_sa>  (1) 
-0.94152464011093318

>  <r_i_glide_lipo>  (1) 
-3.5024198925252472

>  <r_i_glide_metal>  (1) 
-0

>  <r_i_glide_rewards>  (1) 
-2.4595759229122982

>  <r_lp_Energy>  (1) 
-13.942229999999999

>  <r_lp_tautomer_probability>  (1) 
1

>  <s_epik_Chemistry_Notes>  (1) 
This compound contains an acetal/aminal-like group ( X-CH(R)-Y where X, Y are N, S, or O) that may be acid/base labile, releasing an aldehyde. This compound has a N-S or N-O group and may undergo hydrolysis at high or low pH.

>  <s_epik_cmdline>  (1) 
J2VwaWtfcHl0aG9uJywgJy1waHQnLCAnMS4wJywgJy1waCcsICc3LjQnLCAnLXRuJywgJzgnLCAnLW1hJywgJzUwMCcsICctaW1hZScsICc8aW5maWxlLm1hZT4nLCAnLW9tYWUnLCAnPG91dGZpbGUubWFlPic=

>  <s_epik_input>  (1) 
Tz1TKD1PKShbQ0gzXSlbQ0gyXVtDSDJdW0NIMl1OKFtDSDJdW0NIMl1bT0hdKVNbQ0BASF0oW05IXTEpW0NAQEhdKFtDSDNdKWMoYzEyKVtjSF1bY0hdYyhGKVtjSF0y

>  <s_glide_docking_method>  (1) 
confgen

>  <s_i_glide_gridfile>  (1) 
gpcr_5ht2c_6bqh_protein_autoprepared_prepared

>  <s_lp_Force_Field>  (1) 
S-OPLS

>  <s_lp_Variant>  (1) 
DiffSBDD_15_num_sample_50-1

>  <s_m_source_file>  (1) 
generated__ligand_DiffSBDD_2026-05-06_prepared.sdf

>  <GenAI_Model>  (1) 
DiffSBDD

>  <Protein>  (1) 
GPCR_5HT2C

$$$$
DiffSBDD_2_num_sample_50
     RDKit          3D

  0  0  0  0  0  0  0  0  0  0999 V3000
M  V30 BEGIN CTAB
M  V30 COUNTS 69 73 0 0 1
M  V30 BEGIN ATOM
M  V30 1 C 37.944250 30.070184 57.899209 0
M  V30 2 C 40.575449 34.417789 62.983402 0
M  V30 3 C 37.867355 33.026543 56.765412 0
M  V30 4 C 37.119147 31.980131 62.190336 0
M  V30 5 F 42.283541 33.992032 64.569516 0
M  V30 6 C 41.496176 33.416463 63.660191 0
M  V30 7 C 37.657035 30.728162 58.992665 0
M  V30 8 C 38.906981 29.250267 59.572003 0
M  V30 9 C 34.951209 33.599913 60.675070 0
M  V30 10 C 37.322001 33.242514 58.206516 0 CFG=1
M  V30 11 C 39.908307 28.317762 57.393673 0
M  V30 12 C 41.367506 28.686873 62.611771 0 CFG=2
M  V30 13 C 36.682362 37.494779 61.846855 0
M  V30 14 C 38.768190 34.887668 61.393592 0
M  V30 15 C 39.849248 28.237009 55.882543 0
M  V30 16 C 39.549870 33.379952 59.088659 0
M  V30 17 C 37.747009 34.380036 60.329423 0 CFG=2
M  V30 18 C 40.974133 27.912227 58.102204 0
M  V30 19 O 41.066957 28.517594 63.978353 0
M  V30 20 O 34.107552 32.825015 59.853486 0
M  V30 21 C 39.818060 36.713320 62.661847 0
M  V30 22 F 40.758135 32.487612 64.265780 0
M  V30 23 O 41.067400 29.981388 62.075219 0
M  V30 24 C 40.667277 35.789166 63.292885 0
M  V30 25 C 40.151869 28.924927 61.750113 0 CFG=1
M  V30 26 C 39.630552 33.969553 62.040504 0
M  V30 27 P 36.684818 32.924933 60.676189 0 CFG=1 CHG=1
M  V30 28 C 41.017215 28.021402 59.559700 0
M  V30 29 C 36.856462 32.023465 59.053468 0 CFG=2
M  V30 30 C 37.966909 37.305059 61.043514 0
M  V30 31 C 38.670713 28.821906 58.083061 0 CFG=2
M  V30 32 N 38.136912 30.130162 60.128030 0
M  V30 33 N 38.267383 34.021412 59.020155 0
M  V30 34 C 38.868901 36.278078 61.712182 0
M  V30 35 F 42.258612 32.822609 62.741886 0
M  V30 36 C 40.055707 28.648219 60.279872 0
M  V30 37 H 37.635707 30.382972 56.913295 0
M  V30 38 H 37.126133 32.606131 56.095038 0
M  V30 39 H 38.164986 33.979761 56.327547 0
M  V30 40 H 38.722504 32.356460 56.699579 0
M  V30 41 H 38.095266 31.501877 62.198344 0
M  V30 42 H 37.067889 32.615799 63.053407 0
M  V30 43 H 36.370895 31.221457 62.251359 0
M  V30 44 H 34.974234 34.603729 60.261567 0
M  V30 45 H 34.551210 33.625061 61.687929 0
M  V30 46 H 36.446178 33.883031 58.086129 0
M  V30 47 H 42.267369 28.201525 62.253385 0
M  V30 48 H 35.945651 38.084134 61.297977 0
M  V30 49 H 36.267415 36.519603 62.088151 0
M  V30 50 H 36.877679 37.999829 62.793624 0
M  V30 51 H 39.835975 29.237425 55.449253 0
M  V30 52 H 40.700584 27.690442 55.479183 0
M  V30 53 H 38.944626 27.715064 55.569071 0
M  V30 54 H 39.910142 33.221446 58.082979 0
M  V30 55 H 40.267337 34.049900 59.556479 0
M  V30 56 H 39.518455 32.437811 59.630546 0
M  V30 57 H 37.037545 35.177312 60.139399 0
M  V30 58 H 41.834981 27.516274 57.581204 0
M  V30 59 H 40.123281 28.483952 64.086824 0
M  V30 60 H 34.347340 32.938158 58.941531 0
M  V30 61 H 39.894986 37.763833 62.905149 0
M  V30 62 H 41.393434 36.134888 64.015159 0
M  V30 63 H 39.188960 28.988409 62.253831 0
M  V30 64 H 39.579966 32.921578 61.803662 0
M  V30 65 H 41.877692 27.637697 60.075377 0
M  V30 66 H 35.879748 31.683957 58.767419 0
M  V30 67 H 38.489368 38.262476 61.015562 0
M  V30 68 H 37.770236 37.069921 59.998602 0
M  V30 69 H 37.937072 28.013960 58.055571 0
M  V30 END ATOM
M  V30 BEGIN BOND
M  V30 1 1 6 2
M  V30 2 1 6 5
M  V30 3 2 7 1
M  V30 4 1 10 3
M  V30 5 1 15 11
M  V30 6 1 17 14
M  V30 7 2 18 11
M  V30 8 1 19 12
M  V30 9 1 20 9
M  V30 10 1 22 6
M  V30 11 1 23 12
M  V30 12 1 24 2
M  V30 13 2 24 21
M  V30 14 1 25 12
M  V30 15 1 25 23
M  V30 16 2 26 2
M  V30 17 1 26 14
M  V30 18 1 27 4 CFG=1
M  V30 19 1 27 9
M  V30 20 1 27 17
M  V30 21 1 28 18
M  V30 22 1 29 7
M  V30 23 1 29 10
M  V30 24 1 29 27
M  V30 25 1 30 13
M  V30 26 1 31 1
M  V30 27 1 31 8
M  V30 28 1 31 11
M  V30 29 1 32 7
M  V30 30 2 32 8
M  V30 31 1 33 10
M  V30 32 1 33 16
M  V30 33 1 33 17
M  V30 34 2 34 14
M  V30 35 1 34 21
M  V30 36 1 34 30
M  V30 37 1 35 6
M  V30 38 1 36 8
M  V30 39 1 36 25
M  V30 40 2 36 28
M  V30 41 1 37 1
M  V30 42 1 38 3
M  V30 43 1 39 3
M  V30 44 1 40 3
M  V30 45 1 41 4
M  V30 46 1 42 4
M  V30 47 1 43 4
M  V30 48 1 44 9
M  V30 49 1 45 9
M  V30 50 1 10 46 CFG=3
M  V30 51 1 12 47 CFG=3
M  V30 52 1 48 13
M  V30 53 1 49 13
M  V30 54 1 50 13
M  V30 55 1 51 15
M  V30 56 1 52 15
M  V30 57 1 53 15
M  V30 58 1 54 16
M  V30 59 1 55 16
M  V30 60 1 56 16
M  V30 61 1 17 57 CFG=3
M  V30 62 1 58 18
M  V30 63 1 59 19
M  V30 64 1 60 20
M  V30 65 1 61 21
M  V30 66 1 62 24
M  V30 67 1 25 63 CFG=1
M  V30 68 1 64 26
M  V30 69 1 65 28
M  V30 70 1 29 66 CFG=3
M  V30 71 1 67 30
M  V30 72 1 68 30
M  V30 73 1 31 69 CFG=1
M  V30 END BOND
M  V30 END CTAB
M  END
>  <i_epik_Tot_Q>  (1) 
1

>  <i_epik_Tot_abs_Q>  (1) 
1

>  <i_i_glide_confnum>  (1) 
138

>  <i_i_glide_lignum>  (1) 
9

>  <i_i_glide_posenum>  (1) 
154

>  <i_i_glide_rotatable_bonds>  (1) 
8

>  <i_lp_mmshare_version>  (1) 
72125

>  <i_m_source_file_index>  (1) 
3

>  <i_f3d_flags>  (1) 
0

>  <num_sample>  (1) 
50

>  <b_lp_Chiralities_Consistent>  (1) 
1

>  <r_epik_Charging_Adjusted_Penalty>  (1) 
0.0033292626678827373

>  <r_epik_Ionization_Penalty>  (1) 
0.0034349233012131116

>  <r_epik_Ionization_Penalty_Charging>  (1) 
0

>  <r_epik_Ionization_Penalty_Neutral>  (1) 
0.0034349233012131116

>  <r_epik_State_Penalty>  (1) 
0.0033292626678827373

>  <r_glide_ring_energy>  (1) 
0

>  <r_i_docking_score>  (1) 
-7.6142478949656098

>  <r_i_glide_ecoul>  (1) 
-7.5208739224573105

>  <r_i_glide_eff_state_penalty>  (1) 
0.0033292626678827373

>  <r_i_glide_einternal>  (1) 
7.4436269845430356

>  <r_i_glide_emodel>  (1) 
-32.92802053612396

>  <r_i_glide_emodel_strain>  (1) 
2.8173178479534045

>  <r_i_glide_energy>  (1) 
-32.304551736028088

>  <r_i_glide_erotb>  (1) 
0.30231676593683265

>  <r_i_glide_esite>  (1) 
-0.021607573623851087

>  <r_i_glide_evdw>  (1) 
-24.78367781357078

>  <r_i_glide_gscore>  (1) 
-7.6175771576334927

>  <r_i_glide_gscore_strain>  (1) 
0

>  <r_i_glide_hbond>  (1) 
-0.60799999999999998

>  <r_i_glide_ligand_efficiency>  (1) 
-0.21150688597126693

>  <r_i_glide_ligand_efficiency_ln>  (1) 
-1.6612231774764643

>  <r_i_glide_ligand_efficiency_sa>  (1) 
-0.69838035011737509

>  <r_i_glide_lipo>  (1) 
-3.4666030730832187

>  <r_i_glide_metal>  (1) 
-0

>  <r_i_glide_rewards>  (1) 
-1.4563682978161197

>  <r_lp_Energy>  (1) 
43.507885999999999

>  <s_epik_Chemistry_Notes>  (1) 
This compound has an imine and may undergo hydrolysis. This compound contains an acetal/aminal-like group ( X-CH(R)-Y where X, Y are N, S, or O) that may be acid/base labile, releasing an aldehyde.

>  <s_epik_cmdline>  (1) 
J2VwaWtfcHl0aG9uJywgJy1waHQnLCAnMS4wJywgJy1waCcsICc3LjQnLCAnLXRuJywgJzgnLCAnLW1hJywgJzUwMCcsICctaW1hZScsICc8aW5maWxlLm1hZT4nLCAnLW9tYWUnLCAnPG91dGZpbGUubWFlPic=

>  <s_epik_input>  (1) 
W09IXVtDSF0xT1tDQEhdMUMyPVtDSF1bQ0hdPUMoW0NIM10pW0NAQEhdKEMyPTMpW0NIXT1DKE4zKVtDQEBIXTRbQ0BIXShbQ0gzXSlOKFtDSDNdKVtDQEBIXShbUEArXTQoW0NIM10pW0NIMl1bT0hdKWMoW2NIXTUpYyhbQ0gyXVtDSDNdKVtjSF1bY0hdYzVDKEYpKEYpRg==

>  <s_glide_docking_method>  (1) 
confgen

>  <s_i_glide_gridfile>  (1) 
gpcr_5ht2c_6bqh_protein_autoprepared_prepared

>  <s_lp_Force_Field>  (1) 
S-OPLS

>  <s_lp_Variant>  (1) 
DiffSBDD_2_num_sample_50-2

>  <s_m_source_file>  (1) 
generated__ligand_DiffSBDD_2026-05-06_prepared.sdf

>  <GenAI_Model>  (1) 
DiffSBDD

>  <Protein>  (1) 
GPCR_5HT2C

$$$$
DiffSBDD_33_num_sample_50
     RDKit          3D

  0  0  0  0  0  0  0  0  0  0999 V3000
M  V30 BEGIN CTAB
M  V30 COUNTS 78 81 0 0 1
M  V30 BEGIN ATOM
M  V30 1 C 41.038979 33.739967 62.543991 0
M  V30 2 C 38.132607 33.627154 61.342556 0 CFG=1
M  V30 3 C 38.930043 31.564091 54.426673 0
M  V30 4 C 36.613297 33.430932 61.594284 0
M  V30 5 C 39.165011 27.777959 52.299413 0
M  V30 6 C 38.135064 31.754334 55.685528 0 CFG=2
M  V30 7 C 38.614719 32.583064 60.306570 0
M  V30 8 C 39.749486 29.056917 51.853609 0
M  V30 9 C 40.667424 35.221782 64.446863 0
M  V30 10 O 37.866931 39.694492 60.916589 0
M  V30 11 C 41.498218 34.414418 65.243131 0
M  V30 12 C 38.695806 27.636064 53.779943 0 CFG=2
M  V30 13 C 39.395300 30.122527 54.128439 0 CFG=2
M  V30 14 C 42.984508 32.652701 66.864269 0
M  V30 15 C 42.094905 33.254305 64.693580 0
M  V30 16 C 37.492169 26.671493 53.892266 0
M  V30 17 C 41.866712 32.927987 63.340776 0
M  V30 18 C 39.656039 38.332303 61.716336 0
M  V30 19 C 37.710055 37.451436 60.143857 0
M  V30 20 O 38.339019 32.991440 56.376305 0
M  V30 21 N 37.744976 32.508171 59.115819 0 CHG=1
M  V30 22 C 39.859830 30.104628 52.685262 0
M  V30 23 O 37.074500 29.394534 54.210612 0
M  V30 24 O 42.903658 32.437715 65.459514 0
M  V30 25 C 37.487928 35.976041 60.504509 0 CFG=2
M  V30 26 C 38.396209 28.991367 54.481838 0 CFG=1
M  V30 27 C 38.787893 31.789687 57.025282 0 CFG=1
M  V30 28 C 38.159212 38.361687 61.302877 0 CFG=2
M  V30 29 C 40.344453 36.966950 61.813805 0
M  V30 30 O 39.060537 26.821536 51.542287 0
M  V30 31 C 39.481533 35.764899 62.250621 0 CFG=2
M  V30 32 C 40.416532 34.879548 63.099476 0
M  V30 33 C 38.014548 31.358430 58.238680 0
M  V30 34 C 38.660693 35.096931 61.060393 0 CFG=1
M  V30 35 O 37.030805 35.373043 59.305157 0
M  V30 36 O 39.709819 26.981523 54.525750 0
M  V30 37 H 40.879978 33.485053 61.513319 0
M  V30 38 H 38.560313 33.309872 62.287964 0
M  V30 39 H 38.337953 31.970575 53.604707 0
M  V30 40 H 39.819739 32.176192 54.512594 0
M  V30 41 H 36.010042 33.500763 60.692145 0
M  V30 42 H 36.426559 32.445189 62.018554 0
M  V30 43 H 36.193154 34.174886 62.256991 0
M  V30 44 H 37.088210 31.466809 55.624643 0
M  V30 45 H 39.631801 32.772942 59.973245 0
M  V30 46 H 38.621166 31.606016 60.789153 0
M  V30 47 H 40.099026 29.129337 50.833464 0
M  V30 48 H 40.207096 36.101433 64.873392 0
M  V30 49 H 36.984704 39.720605 60.562398 0
M  V30 50 H 41.670956 34.684984 66.273490 0
M  V30 51 H 40.288028 29.942056 54.728975 0
M  V30 52 H 43.583428 31.867907 67.323773 0
M  V30 53 H 43.469078 33.599141 67.095306 0
M  V30 54 H 41.999422 32.626215 67.331439 0
M  V30 55 H 36.669633 26.993475 53.253362 0
M  V30 56 H 37.743910 25.654259 53.597682 0
M  V30 57 H 37.113028 26.626450 54.914563 0
M  V30 58 H 42.331733 32.052462 62.913748 0
M  V30 59 H 40.239355 38.963439 61.053517 0
M  V30 60 H 39.847555 38.820800 62.670321 0
M  V30 61 H 36.718826 37.804777 59.859850 0
M  V30 62 H 38.267387 37.576849 59.223178 0
M  V30 63 H 36.787200 32.423299 59.423923 0
M  V30 64 H 40.304771 31.018834 52.316581 0
M  V30 65 H 36.990848 29.537127 53.281548 0
M  V30 66 H 36.668096 35.991146 61.218286 0
M  V30 67 H 38.420862 28.846310 55.563316 0
M  V30 68 H 39.867023 31.678277 57.053249 0
M  V30 69 H 37.535385 38.104293 62.161318 0
M  V30 70 H 40.922103 36.709950 60.928987 0
M  V30 71 H 41.121009 37.157849 62.557139 0
M  V30 72 H 38.739938 36.121361 62.970024 0
M  V30 73 H 38.555868 30.563265 58.753871 0
M  V30 74 H 37.067579 30.923797 57.926425 0
M  V30 75 H 39.389395 35.016298 60.254158 0
M  V30 76 H 36.405236 35.939502 58.873056 0
M  V30 77 H 39.380085 26.804161 55.392346 0
M  V30 78 H 37.799071 33.367319 58.580531 0
M  V30 END ATOM
M  V30 BEGIN BOND
M  V30 1 1 4 2
M  V30 2 1 6 3
M  V30 3 1 7 2
M  V30 4 1 8 5
M  V30 5 2 11 9
M  V30 6 1 12 5
M  V30 7 1 13 3
M  V30 8 1 15 11
M  V30 9 1 16 12
M  V30 10 1 17 1
M  V30 11 2 17 15
M  V30 12 1 20 6
M  V30 13 1 21 7
M  V30 14 2 22 8
M  V30 15 1 22 13
M  V30 16 1 24 14
M  V30 17 1 24 15
M  V30 18 1 25 19
M  V30 19 1 26 12
M  V30 20 1 26 13
M  V30 21 1 26 23
M  V30 22 1 27 6
M  V30 23 1 27 20
M  V30 24 1 28 10
M  V30 25 1 28 18
M  V30 26 1 28 19
M  V30 27 1 29 18
M  V30 28 2 30 5
M  V30 29 1 31 29
M  V30 30 2 32 1
M  V30 31 1 32 9
M  V30 32 1 32 31
M  V30 33 1 33 21
M  V30 34 1 33 27
M  V30 35 1 34 2
M  V30 36 1 34 25
M  V30 37 1 34 31
M  V30 38 1 35 25
M  V30 39 1 12 36 CFG=1
M  V30 40 1 37 1
M  V30 41 1 2 38 CFG=1
M  V30 42 1 39 3
M  V30 43 1 40 3
M  V30 44 1 41 4
M  V30 45 1 42 4
M  V30 46 1 43 4
M  V30 47 1 6 44 CFG=1
M  V30 48 1 45 7
M  V30 49 1 46 7
M  V30 50 1 47 8
M  V30 51 1 48 9
M  V30 52 1 49 10
M  V30 53 1 50 11
M  V30 54 1 13 51 CFG=1
M  V30 55 1 52 14
M  V30 56 1 53 14
M  V30 57 1 54 14
M  V30 58 1 55 16
M  V30 59 1 56 16
M  V30 60 1 57 16
M  V30 61 1 58 17
M  V30 62 1 59 18
M  V30 63 1 60 18
M  V30 64 1 61 19
M  V30 65 1 62 19
M  V30 66 1 63 21
M  V30 67 1 64 22
M  V30 68 1 65 23
M  V30 69 1 25 66 CFG=1
M  V30 70 1 26 67 CFG=1
M  V30 71 1 27 68 CFG=3
M  V30 72 1 28 69 CFG=1
M  V30 73 1 70 29
M  V30 74 1 71 29
M  V30 75 1 31 72 CFG=1
M  V30 76 1 73 33
M  V30 77 1 74 33
M  V30 78 1 34 75 CFG=3
M  V30 79 1 76 35
M  V30 80 1 77 36
M  V30 81 1 78 21
M  V30 END BOND
M  V30 END CTAB
M  END
>  <i_epik_Tot_Q>  (1) 
1

>  <i_epik_Tot_abs_Q>  (1) 
1

>  <i_i_glide_confnum>  (1) 
1932

>  <i_i_glide_lignum>  (1) 
86

>  <i_i_glide_posenum>  (1) 
98

>  <i_i_glide_rotatable_bonds>  (1) 
13

>  <i_lp_mmshare_version>  (1) 
72125

>  <i_m_source_file_index>  (1) 
34

>  <i_f3d_flags>  (1) 
0

>  <num_sample>  (1) 
50

>  <b_lp_Chiralities_Consistent>  (1) 
1

>  <r_epik_Charging_Adjusted_Penalty>  (1) 
0.0021184864287466625

>  <r_epik_Ionization_Penalty>  (1) 
0.0021212372829442611

>  <r_epik_Ionization_Penalty_Charging>  (1) 
0.0021184864287466625

>  <r_epik_Ionization_Penalty_Neutral>  (1) 
2.7508541975987684e-06

>  <r_epik_State_Penalty>  (1) 
-0

>  <r_glide_ring_energy>  (1) 
0

>  <r_i_docking_score>  (1) 
-7.5966295683256977

>  <r_i_glide_ecoul>  (1) 
-4.2972689913118147

>  <r_i_glide_eff_state_penalty>  (1) 
-0

>  <r_i_glide_einternal>  (1) 
25.493529801344174

>  <r_i_glide_emodel>  (1) 
-47.277453976543612

>  <r_i_glide_emodel_strain>  (1) 
5.4803909780252837

>  <r_i_glide_energy>  (1) 
-43.90809977169944

>  <r_i_glide_erotb>  (1) 
0.64233652918665762

>  <r_i_glide_esite>  (1) 
-0.057293946885923111

>  <r_i_glide_evdw>  (1) 
-39.610830780387623

>  <r_i_glide_gscore>  (1) 
-7.5966295683256977

>  <r_i_glide_gscore_strain>  (1) 
0.37009774450632094

>  <r_i_glide_hbond>  (1) 
-0.29088306848386658

>  <r_i_glide_ligand_efficiency>  (1) 
-0.21101748800904715

>  <r_i_glide_ligand_efficiency_ln>  (1) 
-1.6573793345958137

>  <r_i_glide_ligand_efficiency_sa>  (1) 
-0.69676439365036813

>  <r_i_glide_lipo>  (1) 
-4.5113283226018215

>  <r_i_glide_metal>  (1) 
-0

>  <r_i_glide_rewards>  (1) 
-1.1244266163309107

>  <r_lp_Energy>  (1) 
54.687307999999994

>  <r_lp_tautomer_probability>  (1) 
1

>  <s_epik_cmdline>  (1) 
J2VwaWtfcHl0aG9uJywgJy1waHQnLCAnMS4wJywgJy1waCcsICc3LjQnLCAnLXRuJywgJzgnLCAnLW1hJywgJzUwMCcsICctaW1hZScsICc8aW5maWxlLm1hZT4nLCAnLW9tYWUnLCAnPG91dGZpbGUubWFlPic=

>  <s_epik_input>  (1) 
W0NIM11PYzFbY0hdW2NIXWMoW2NIXVtjSF0xKVtDQEBIXShbQ0gyXVtDSDJdW0NAQEhdKFtPSF0pW0NIMl1bQ0BIXTJbT0hdKVtDQEhdMltDQEBIXShbQ0gzXSlbQ0gyXVtOSF1bQ0gyXVtDQEBIXTNPW0NASF0zW0NIMl1bQ0BASF0oW0NASF00W09IXSlbQ0hdPVtDSF1DKD1PKVtDQEBdNChbQ0gzXSlbT0hd

>  <s_glide_docking_method>  (1) 
confgen

>  <s_i_glide_gridfile>  (1) 
gpcr_5ht2c_6bqh_protein_autoprepared_prepared

>  <s_lp_Force_Field>  (1) 
S-OPLS

>  <s_lp_Variant>  (1) 
DiffSBDD_33_num_sample_50-1

>  <s_m_source_file>  (1) 
generated__ligand_DiffSBDD_2026-05-06_prepared.sdf

>  <GenAI_Model>  (1) 
DiffSBDD

>  <Protein>  (1) 
GPCR_5HT2C

$$$$
DiffSBDD_8_num_sample_50
     RDKit          3D

  0  0  0  0  0  0  0  0  0  0999 V3000
M  V30 BEGIN CTAB
M  V30 COUNTS 69 73 0 0 1
M  V30 BEGIN ATOM
M  V30 1 C 39.220670 32.092971 60.311589 0
M  V30 2 N 38.708456 28.894369 58.264861 0
M  V30 3 C 38.442057 28.808371 54.511601 0
M  V30 4 C 38.927983 28.743352 52.021491 0
M  V30 5 C 40.939373 28.313431 57.122205 0
M  V30 6 C 37.470542 24.505755 56.112405 0
M  V30 7 C 38.948275 29.456338 53.368133 0
M  V30 8 C 38.483601 25.038728 55.303619 0
M  V30 9 C 39.082667 29.613422 60.621905 0
M  V30 10 C 39.476244 25.861786 55.863823 0
M  V30 11 N 39.910653 30.842179 60.653696 0
M  V30 12 N 40.103315 28.408968 58.313085 0
M  V30 13 C 39.805675 35.000089 61.766595 0
M  V30 14 C 37.003472 34.294460 60.274277 0
M  V30 15 N 39.137626 35.552557 60.654123 0
M  V30 16 C 41.135940 33.899846 63.924606 0
M  V30 17 C 39.465185 30.766297 53.477901 0
M  V30 18 O 37.009350 29.861650 59.429727 0
M  V30 19 C 37.933358 28.756032 56.994805 0
M  V30 20 C 38.458216 29.463751 55.762563 0
M  V30 21 O 37.129395 36.619309 60.018053 0
M  V30 22 C 37.686723 35.561744 60.764564 0 CFG=1
M  V30 23 N 40.200534 33.140610 63.312233 0
M  V30 24 O 39.842056 29.249935 51.069647 0
M  V30 25 C 37.447377 24.796302 57.483917 0
M  V30 26 C 40.484351 27.069983 57.838741 0 CFG=1
M  V30 27 C 37.120732 33.198540 61.315628 0
M  V30 28 C 40.796871 35.758550 62.416582 0
M  V30 29 C 39.466296 31.420144 54.726369 0
M  V30 30 C 38.173272 29.461836 59.380370 0
M  V30 31 C 39.452356 26.166592 57.242252 0
M  V30 32 F 36.516674 23.712999 55.570036 0
M  V30 33 C 38.966166 30.770700 55.865058 0
M  V30 34 C 39.541958 33.677130 62.253589 0
M  V30 35 C 38.558747 32.728766 61.549990 0 CFG=2
M  V30 36 C 41.467306 35.202382 63.514720 0
M  V30 37 C 38.434075 25.621706 58.046960 0
M  V30 38 H 39.947917 32.802665 59.916340 0
M  V30 39 H 38.515606 31.980070 59.492085 0
M  V30 40 H 38.046273 27.806999 54.431980 0
M  V30 41 H 39.140330 27.683463 52.168171 0
M  V30 42 H 37.921287 28.810723 51.608881 0
M  V30 43 H 40.582419 28.437684 56.109171 0
M  V30 44 H 41.993910 28.545629 57.247564 0
M  V30 45 H 38.498473 24.819667 54.253517 0
M  V30 46 H 39.712348 28.737612 60.779348 0
M  V30 47 H 38.429167 29.642720 61.492789 0
M  V30 48 H 40.252310 26.271813 55.233395 0
M  V30 49 H 40.367285 30.961264 61.548497 0
M  V30 50 H 37.393707 33.983875 59.304145 0
M  V30 51 H 35.938259 34.480667 60.124427 0
M  V30 52 H 39.509247 36.439332 60.346504 0
M  V30 53 H 41.639403 33.449705 64.767113 0
M  V30 54 H 39.853386 31.272318 52.605647 0
M  V30 55 H 37.637953 27.740196 56.767309 0
M  V30 56 H 36.960517 29.228564 57.125507 0
M  V30 57 H 36.702528 36.253314 59.256328 0
M  V30 58 H 37.413662 35.754876 61.803856 0
M  V30 59 H 39.641114 28.864520 50.230026 0
M  V30 60 H 36.668261 24.393423 58.106389 0
M  V30 61 H 41.243959 26.511971 58.378400 0
M  V30 62 H 36.664865 33.514400 62.253174 0
M  V30 63 H 36.527228 32.348091 60.976629 0
M  V30 64 H 41.035545 36.756815 62.078476 0
M  V30 65 H 39.853479 32.420898 54.810351 0
M  V30 66 H 38.974142 31.274708 56.820887 0
M  V30 67 H 38.401992 31.920410 62.266640 0
M  V30 68 H 42.227517 35.766757 64.037062 0
M  V30 69 H 38.404471 25.850305 59.097301 0
M  V30 END ATOM
M  V30 BEGIN BOND
M  V30 1 2 7 3
M  V30 2 1 7 4
M  V30 3 1 8 6
M  V30 4 2 10 8
M  V30 5 1 11 1
M  V30 6 1 11 9
M  V30 7 1 12 2
M  V30 8 1 12 5
M  V30 9 1 15 13
M  V30 10 1 17 7
M  V30 11 1 19 2
M  V30 12 1 20 3
M  V30 13 1 20 19
M  V30 14 1 22 14
M  V30 15 1 22 15
M  V30 16 1 22 21
M  V30 17 1 23 16
M  V30 18 1 24 4
M  V30 19 2 25 6
M  V30 20 1 26 5
M  V30 21 1 26 12
M  V30 22 1 27 14
M  V30 23 2 28 13
M  V30 24 2 29 17
M  V30 25 1 30 2
M  V30 26 1 30 9
M  V30 27 2 30 18
M  V30 28 1 31 10
M  V30 29 1 31 26
M  V30 30 1 32 6
M  V30 31 2 33 20
M  V30 32 1 33 29
M  V30 33 1 34 13
M  V30 34 2 34 23
M  V30 35 1 35 1
M  V30 36 1 35 27
M  V30 37 1 35 34
M  V30 38 2 36 16
M  V30 39 1 36 28
M  V30 40 1 37 25
M  V30 41 2 37 31
M  V30 42 1 38 1
M  V30 43 1 39 1
M  V30 44 1 40 3
M  V30 45 1 41 4
M  V30 46 1 42 4
M  V30 47 1 43 5
M  V30 48 1 44 5
M  V30 49 1 45 8
M  V30 50 1 46 9
M  V30 51 1 47 9
M  V30 52 1 48 10
M  V30 53 1 49 11
M  V30 54 1 50 14
M  V30 55 1 51 14
M  V30 56 1 52 15
M  V30 57 1 53 16
M  V30 58 1 54 17
M  V30 59 1 55 19
M  V30 60 1 56 19
M  V30 61 1 57 21
M  V30 62 1 22 58 CFG=1
M  V30 63 1 59 24
M  V30 64 1 60 25
M  V30 65 1 26 61 CFG=1
M  V30 66 1 62 27
M  V30 67 1 63 27
M  V30 68 1 64 28
M  V30 69 1 65 29
M  V30 70 1 66 33
M  V30 71 1 35 67 CFG=1
M  V30 72 1 68 36
M  V30 73 1 69 37
M  V30 END BOND
M  V30 END CTAB
M  END
>  <i_epik_Tot_Q>  (1) 
0

>  <i_epik_Tot_abs_Q>  (1) 
0

>  <i_i_glide_confnum>  (1) 
2710

>  <i_i_glide_lignum>  (1) 
30

>  <i_i_glide_posenum>  (1) 
200

>  <i_i_glide_rotatable_bonds>  (1) 
12

>  <i_lp_mmshare_version>  (1) 
72125

>  <i_m_source_file_index>  (1) 
9

>  <i_f3d_flags>  (1) 
0

>  <num_sample>  (1) 
50

>  <b_lp_Chiralities_Consistent>  (1) 
1

>  <r_epik_Charging_Adjusted_Penalty>  (1) 
1.1060706723907541

>  <r_epik_Ionization_Penalty>  (1) 
1.1273273106042034

>  <r_epik_Ionization_Penalty_Charging>  (1) 
0

>  <r_epik_Ionization_Penalty_Neutral>  (1) 
1.1273273106042034

>  <r_epik_State_Penalty>  (1) 
1.1060706723907541

>  <r_glide_ring_energy>  (1) 
0

>  <r_i_docking_score>  (1) 
-7.5914876921840602

>  <r_i_glide_ecoul>  (1) 
-1.9881446073595215

>  <r_i_glide_eff_state_penalty>  (1) 
1.1060706723907541

>  <r_i_glide_einternal>  (1) 
8.6157818319092918

>  <r_i_glide_emodel>  (1) 
-76.027739568645174

>  <r_i_glide_emodel_strain>  (1) 
5.1969671535644864

>  <r_i_glide_energy>  (1) 
-56.631284441092269

>  <r_i_glide_erotb>  (1) 
0.80016093564374513

>  <r_i_glide_esite>  (1) 
0

>  <r_i_glide_evdw>  (1) 
-54.643139833732747

>  <r_i_glide_gscore>  (1) 
-8.6975583645748138

>  <r_i_glide_gscore_strain>  (1) 
0.29924178839112159

>  <r_i_glide_hbond>  (1) 
0

>  <r_i_glide_ligand_efficiency>  (1) 
-0.20517534303200163

>  <r_i_glide_ligand_efficiency_ln>  (1) 
-1.6464157107127002

>  <r_i_glide_ligand_efficiency_sa>  (1) 
-0.68368976147019023

>  <r_i_glide_lipo>  (1) 
-5.2066559685115079

>  <r_i_glide_metal>  (1) 
-0

>  <r_i_glide_rewards>  (1) 
-1.5599264373076056

>  <r_lp_Energy>  (1) 
58.402149999999999

>  <r_lp_tautomer_probability>  (1) 
0.99999999999999911

>  <s_epik_Chemistry_Notes>  (1) 
This compound contains an acetal/aminal-like group ( X-CH(R)-Y where X, Y are N, S, or O) that may be acid/base labile, releasing an aldehyde.

>  <s_epik_cmdline>  (1) 
J2VwaWtfcHl0aG9uJywgJy1waHQnLCAnMS4wJywgJy1waCcsICc3LjQnLCAnLXRuJywgJzgnLCAnLW1hJywgJzUwMCcsICctaW1hZScsICc8aW5maWxlLm1hZT4nLCAnLW9tYWUnLCAnPG91dGZpbGUubWFlPic=

>  <s_epik_input>  (1) 
W2NIXTFbY0hdW2NIXW5jKGMxMilbQ0BASF0oW0NIMl1bQ0gyXVtDQEBIXShbTkhdMilbT0hdKVtDSDJdW05IXVtDSDJdQyg9TylOKFtDSDJdYyhbY0hdW2NIXVtjSF0zKVtjSF1jM1tDSDJdW09IXSlONFtDSDJdW0NAQEhdNGMoW2NIXVtjSF01KVtjSF1bY0hdYzVG

>  <s_glide_docking_method>  (1) 
confgen

>  <s_i_glide_gridfile>  (1) 
gpcr_5ht2c_6bqh_protein_autoprepared_prepared

>  <s_lp_Force_Field>  (1) 
S-OPLS

>  <s_lp_Variant>  (1) 
DiffSBDD_8_num_sample_50-2

>  <s_m_source_file>  (1) 
generated__ligand_DiffSBDD_2026-05-06_prepared.sdf

>  <GenAI_Model>  (1) 
DiffSBDD

>  <Protein>  (1) 
GPCR_5HT2C

$$$$
DiffSBDD_23_num_sample_50
     RDKit          3D

  0  0  0  0  0  0  0  0  0  0999 V3000
M  V30 BEGIN CTAB
M  V30 COUNTS 61 65 0 0 1
M  V30 BEGIN ATOM
M  V30 1 C 38.508989 26.893356 56.637406 0
M  V30 2 C 40.583535 30.140101 66.212030 0 CFG=1
M  V30 3 C 38.620820 31.688418 56.859804 0
M  V30 4 C 37.176378 31.874126 60.027573 0 CFG=1
M  V30 5 S 41.753062 33.228413 63.734813 0
M  V30 6 C 39.018029 30.431262 57.325011 0
M  V30 7 C 39.458945 27.993463 57.014026 0
M  V30 8 N 41.685742 34.203843 66.131681 0
M  V30 9 C 41.478234 32.144366 65.090228 0
M  V30 10 C 41.266882 32.225059 67.634474 0
M  V30 11 S 39.467426 31.048188 61.387388 0
M  V30 12 O 39.274647 29.735548 60.755623 0
M  V30 13 C 38.194407 30.757218 54.658879 0
M  V30 14 C 41.293293 30.663482 64.923614 0 CFG=2
M  V30 15 N 38.008370 31.967734 61.251649 0
M  V30 16 C 38.213714 31.855326 55.533034 0
M  V30 17 C 39.013202 29.317008 56.465516 0
M  V30 18 C 38.292516 34.387484 60.819566 0
M  V30 19 C 39.033064 26.313227 55.352632 0
M  V30 20 O 39.583628 25.221312 55.360809 0
M  V30 21 Cl 35.509532 31.756110 60.654921 0
M  V30 22 C 38.550900 28.342655 54.076815 0
M  V30 23 S 38.667424 33.070836 57.938239 0
M  V30 24 N 39.502341 30.798710 63.091029 0
M  V30 25 O 40.612371 31.903870 61.053644 0
M  V30 26 N 38.823557 27.094290 54.234204 0
M  V30 27 C 38.008131 33.299730 61.853500 0
M  V30 28 C 41.473082 32.828364 66.283929 0
M  V30 29 C 41.847052 34.554230 64.861844 0
M  V30 30 O 37.260644 34.331270 59.847246 0
M  V30 31 C 38.590194 29.470417 55.098048 0
M  V30 32 N 40.654284 30.222590 63.670475 0
M  V30 33 N 40.535879 28.668343 66.247711 0 CHG=1
M  V30 34 C 37.279239 33.119334 59.097469 0 CFG=2
M  V30 35 C 41.262107 30.679578 67.507582 0
M  V30 36 H 37.468559 27.209947 56.570008 0
M  V30 37 H 38.546505 26.108917 57.396348 0
M  V30 38 H 39.549141 30.487966 66.206185 0
M  V30 39 H 37.363187 30.943133 59.496418 0
M  V30 40 H 39.337645 30.316041 58.347028 0
M  V30 41 H 39.482267 28.055106 58.102878 0
M  V30 42 H 40.493854 27.805184 56.718093 0
M  V30 43 H 42.040828 32.546032 68.333073 0
M  V30 44 H 40.317952 32.558635 68.054063 0
M  V30 45 H 37.878067 30.900381 53.637546 0
M  V30 46 H 42.290473 30.220895 64.910744 0
M  V30 47 H 37.912825 32.829803 55.179733 0
M  V30 48 H 39.281746 34.261214 60.379089 0
M  V30 49 H 38.283470 35.368512 61.295540 0
M  V30 50 H 38.253136 28.668244 53.076764 0
M  V30 51 H 38.698115 30.227906 63.356441 0
M  V30 52 H 38.723489 33.351601 62.672977 0
M  V30 53 H 37.013227 33.476539 62.252988 0
M  V30 54 H 42.012858 35.587778 64.591986 0
M  V30 55 H 41.341002 29.968320 62.961297 0
M  V30 56 H 41.466285 28.282776 66.170416 0
M  V30 57 H 40.112227 28.369306 67.118669 0
M  V30 58 H 36.390741 33.164296 58.470777 0
M  V30 59 H 42.300163 30.348293 67.496425 0
M  V30 60 H 40.821461 30.232748 68.398359 0
M  V30 61 H 39.969666 28.350212 65.470334 0
M  V30 END ATOM
M  V30 BEGIN BOND
M  V30 1 2 6 3
M  V30 2 1 7 1
M  V30 3 1 9 5
M  V30 4 2 12 11
M  V30 5 1 14 2
M  V30 6 1 14 9
M  V30 7 1 15 4
M  V30 8 1 15 11
M  V30 9 1 16 3
M  V30 10 2 16 13
M  V30 11 1 17 6
M  V30 12 1 17 7
M  V30 13 1 19 1
M  V30 14 2 20 19
M  V30 15 1 21 4
M  V30 16 1 23 3
M  V30 17 1 24 11
M  V30 18 2 25 11
M  V30 19 1 26 19
M  V30 20 2 26 22
M  V30 21 1 27 15
M  V30 22 1 27 18
M  V30 23 1 28 8
M  V30 24 2 28 9
M  V30 25 1 28 10
M  V30 26 1 29 5
M  V30 27 2 29 8
M  V30 28 1 30 18
M  V30 29 1 31 13
M  V30 30 2 31 17
M  V30 31 1 31 22
M  V30 32 1 32 14
M  V30 33 1 32 24
M  V30 34 1 33 2
M  V30 35 1 34 4
M  V30 36 1 34 23
M  V30 37 1 34 30
M  V30 38 1 35 2
M  V30 39 1 35 10
M  V30 40 1 36 1
M  V30 41 1 37 1
M  V30 42 1 2 38 CFG=3
M  V30 43 1 4 39 CFG=3
M  V30 44 1 40 6
M  V30 45 1 41 7
M  V30 46 1 42 7
M  V30 47 1 43 10
M  V30 48 1 44 10
M  V30 49 1 45 13
M  V30 50 1 14 46 CFG=3
M  V30 51 1 47 16
M  V30 52 1 48 18
M  V30 53 1 49 18
M  V30 54 1 50 22
M  V30 55 1 51 24
M  V30 56 1 52 27
M  V30 57 1 53 27
M  V30 58 1 54 29
M  V30 59 1 55 32
M  V30 60 1 56 33
M  V30 61 1 57 33
M  V30 62 1 34 58 CFG=3
M  V30 63 1 59 35
M  V30 64 1 60 35
M  V30 65 1 61 33
M  V30 END BOND
M  V30 END CTAB
M  END
>  <i_epik_Tot_Q>  (1) 
1

>  <i_epik_Tot_abs_Q>  (1) 
1

>  <i_i_glide_confnum>  (1) 
23

>  <i_i_glide_lignum>  (1) 
62

>  <i_i_glide_posenum>  (1) 
115

>  <i_i_glide_rotatable_bonds>  (1) 
6

>  <i_lp_mmshare_version>  (1) 
72125

>  <i_m_source_file_index>  (1) 
24

>  <i_f3d_flags>  (1) 
0

>  <num_sample>  (1) 
50

>  <b_lp_Chiralities_Consistent>  (1) 
1

>  <r_epik_Charging_Adjusted_Penalty>  (1) 
0.20786405117440027

>  <r_epik_Ionization_Penalty>  (1) 
0.17784020352230567

>  <r_epik_Ionization_Penalty_Charging>  (1) 
0.046839863378715332

>  <r_epik_Ionization_Penalty_Neutral>  (1) 
0.13100034014359035

>  <r_epik_State_Penalty>  (1) 
0.16102418779568495

>  <r_glide_ring_energy>  (1) 
0.36391509760430946

>  <r_i_docking_score>  (1) 
-7.5883865931388881

>  <r_i_glide_ecoul>  (1) 
-7.82453643111337

>  <r_i_glide_eff_state_penalty>  (1) 
0.16102418779568495

>  <r_i_glide_einternal>  (1) 
4.1100487029581823

>  <r_i_glide_emodel>  (1) 
-91.837431146060538

>  <r_i_glide_emodel_strain>  (1) 
0.53062853931161413

>  <r_i_glide_energy>  (1) 
-63.899127914778909

>  <r_i_glide_erotb>  (1) 
0.32266353053763186

>  <r_i_glide_esite>  (1) 
0

>  <r_i_glide_evdw>  (1) 
-56.074591483665536

>  <r_i_glide_gscore>  (1) 
-7.7494107809345731

>  <r_i_glide_gscore_strain>  (1) 
0

>  <r_i_glide_hbond>  (1) 
-0.14112271712342683

>  <r_i_glide_ligand_efficiency>  (1) 
-0.21681104551825395

>  <r_i_glide_ligand_efficiency_ln>  (1) 
-1.6658192723604517

>  <r_i_glide_ligand_efficiency_sa>  (1) 
-0.70920330667152542

>  <r_i_glide_lipo>  (1) 
-2.0583087608708559

>  <r_i_glide_metal>  (1) 
-0

>  <r_i_glide_rewards>  (1) 
-1.8952327946276406

>  <r_lp_Energy>  (1) 
46.497914999999999

>  <s_epik_Chemistry_Notes>  (1) 
This compound has an imine and may undergo hydrolysis. This compound contains an acetal/aminal-like group ( X-CH(R)-Y where X, Y are N, S, or O) that may be acid/base labile, releasing an aldehyde.

>  <s_epik_cmdline>  (1) 
J2VwaWtfcHl0aG9uJywgJy1waHQnLCAnMS4wJywgJy1waCcsICc3LjQnLCAnLXRuJywgJzgnLCAnLW1hJywgJzUwMCcsICctaW1hZScsICc8aW5maWxlLm1hZT4nLCAnLW9tYWUnLCAnPG91dGZpbGUubWFlPic=

>  <s_epik_input>  (1) 
W0NIMl0xW0NIMl1DKD1PKU49W0NIXWMoYzEyKVtjSF1bY0hdYyhbY0hdMilTW0NAQEhdM09bQ0gyXVtDSDJdTihbQ0BIXTNDbClTKD1PKSg9TylbTkhdW05IXVtDQEBIXTRbQ0BASF0oW05IMl0pW0NIMl1bQ0gyXWMoYzQ1KW5bY0hdczU=

>  <s_glide_docking_method>  (1) 
confgen

>  <s_i_glide_gridfile>  (1) 
gpcr_5ht2c_6bqh_protein_autoprepared_prepared

>  <s_lp_Force_Field>  (1) 
S-OPLS

>  <s_lp_Variant>  (1) 
DiffSBDD_23_num_sample_50-1

>  <s_m_source_file>  (1) 
generated__ligand_DiffSBDD_2026-05-06_prepared.sdf

>  <GenAI_Model>  (1) 
DiffSBDD

>  <Protein>  (1) 
GPCR_5HT2C

$$$$
DiffSBDD_20_num_sample_50
     RDKit          3D

  0  0  0  0  0  0  0  0  0  0999 V3000
M  V30 BEGIN CTAB
M  V30 COUNTS 77 81 0 0 1
M  V30 BEGIN ATOM
M  V30 1 C 37.181338 36.231774 61.597729 0
M  V30 2 C 38.649413 36.821534 63.451190 0
M  V30 3 C 37.440177 32.847070 60.258425 0 CFG=2
M  V30 4 C 40.254971 26.622264 55.931205 0
M  V30 5 C 39.563907 35.827231 63.056139 0
M  V30 6 C 37.702393 29.492736 58.311374 0
M  V30 7 C 41.413737 33.842160 62.290617 0
M  V30 8 C 38.731192 29.853505 57.209618 0 CFG=1
M  V30 9 C 38.895943 29.382794 54.629419 0
M  V30 10 C 38.958452 28.755875 56.071214 0 CFG=2
M  V30 11 C 38.423651 31.299554 56.769575 0
M  V30 12 F 36.266987 25.098144 56.366599 0
M  V30 13 C 38.425237 32.296066 57.952154 0
M  V30 14 C 40.739062 35.623011 63.807902 0
M  V30 15 O 38.960626 30.429279 60.122477 0
M  V30 16 C 37.994575 27.533396 56.139562 0
M  V30 17 C 36.650078 34.984159 59.048488 0
M  V30 18 C 37.686290 30.477138 59.487296 0 CFG=1
M  V30 19 C 37.753182 34.357894 59.938180 0 CFG=1
M  V30 20 C 40.245759 34.038499 61.528238 0
M  V30 21 C 40.020596 28.559938 51.036181 0
M  V30 22 F 37.067068 23.347982 55.396422 0
M  V30 23 C 39.068454 29.205455 52.051418 0
M  V30 24 O 38.306935 25.286001 55.353888 0
M  V30 25 C 37.464941 37.022111 62.723206 0
M  V30 26 C 38.085918 35.224974 61.178912 0
M  V30 27 C 39.000961 28.450611 53.387248 0
M  V30 28 C 38.188290 24.198283 57.322125 0
M  V30 29 C 38.694198 25.579237 57.668364 0
M  V30 30 C 37.392646 24.460190 56.049783 0
M  V30 31 N 37.514636 31.910576 59.079242 0 CFG=1 CHG=1
M  V30 32 C 38.819409 26.243818 56.277549 0 CFG=1
M  V30 33 C 41.655626 34.629488 63.431251 0
M  V30 34 C 40.341919 28.093292 56.326777 0
M  V30 35 O 36.206168 32.716839 60.678593 0 CHG=-1
M  V30 36 C 39.299843 35.026420 61.914137 0
M  V30 37 H 36.267404 36.398181 61.057128 0
M  V30 38 H 38.854775 37.428614 64.320897 0
M  V30 39 H 38.220157 32.547280 60.943098 0
M  V30 40 H 40.454102 26.462507 54.876333 0
M  V30 41 H 40.990946 26.021765 56.460121 0
M  V30 42 H 37.924553 28.507925 58.721931 0
M  V30 43 H 36.698406 29.453876 57.884916 0
M  V30 44 H 42.126188 33.085207 61.998209 0
M  V30 45 H 39.688551 29.967633 57.716710 0
M  V30 46 H 37.957133 29.927403 54.521470 0
M  V30 47 H 39.689963 30.124574 54.544751 0
M  V30 48 H 39.172626 31.649776 56.059349 0
M  V30 49 H 37.467413 31.343326 56.252619 0
M  V30 50 H 39.434704 32.424195 58.335016 0
M  V30 51 H 38.145117 33.257141 57.529247 0
M  V30 52 H 40.934051 36.230900 64.679809 0
M  V30 53 H 38.858632 30.009834 60.965207 0
M  V30 54 H 37.258082 27.549706 56.930846 0
M  V30 55 H 37.384896 27.475073 55.242937 0
M  V30 56 H 36.921672 35.986084 58.715331 0
M  V30 57 H 36.456346 34.384660 58.164834 0
M  V30 58 H 35.686975 35.040447 59.555550 0
M  V30 59 H 36.909936 30.196974 60.200897 0
M  V30 60 H 38.671084 34.418779 59.364351 0
M  V30 61 H 40.080677 33.429981 60.656808 0
M  V30 62 H 39.989540 29.086371 50.081632 0
M  V30 63 H 41.051473 28.582563 51.395670 0
M  V30 64 H 39.751284 27.519904 50.850162 0
M  V30 65 H 38.065806 29.222599 51.624270 0
M  V30 66 H 39.374575 30.240001 52.210202 0
M  V30 67 H 36.765225 37.783519 63.034090 0
M  V30 68 H 39.867373 27.811623 53.445989 0
M  V30 69 H 38.162045 27.758968 53.324335 0
M  V30 70 H 37.613863 23.718004 58.113948 0
M  V30 71 H 39.067039 23.600720 57.098583 0
M  V30 72 H 39.634008 25.535657 58.219779 0
M  V30 73 H 37.971746 26.081572 58.309225 0
M  V30 74 H 42.552617 34.475626 64.012796 0
M  V30 75 H 41.167416 28.620911 55.853269 0
M  V30 76 H 40.566082 28.084491 57.394961 0
M  V30 77 H 36.581118 31.974422 58.686977 0
M  V30 END ATOM
M  V30 BEGIN BOND
M  V30 1 1 5 2
M  V30 2 1 8 6
M  V30 3 1 10 8
M  V30 4 1 10 9 CFG=3
M  V30 5 1 11 8
M  V30 6 1 13 11
M  V30 7 2 14 5
M  V30 8 1 16 10
M  V30 9 1 18 6
M  V30 10 1 18 15
M  V30 11 1 19 3
M  V30 12 1 19 17
M  V30 13 1 20 7
M  V30 14 1 23 21
M  V30 15 1 25 1
M  V30 16 2 25 2
M  V30 17 2 26 1
M  V30 18 1 26 19
M  V30 19 1 27 9
M  V30 20 1 27 23
M  V30 21 1 29 28
M  V30 22 1 30 12
M  V30 23 1 30 22
M  V30 24 1 30 24
M  V30 25 1 30 28
M  V30 26 1 31 3
M  V30 27 1 31 13
M  V30 28 1 31 18
M  V30 29 1 32 4
M  V30 30 1 32 16
M  V30 31 1 32 24 CFG=3
M  V30 32 1 32 29
M  V30 33 2 33 7
M  V30 34 1 33 14
M  V30 35 1 34 4
M  V30 36 1 34 10
M  V30 37 1 35 3
M  V30 38 1 36 5
M  V30 39 2 36 20
M  V30 40 1 36 26
M  V30 41 1 37 1
M  V30 42 1 38 2
M  V30 43 1 3 39 CFG=1
M  V30 44 1 40 4
M  V30 45 1 41 4
M  V30 46 1 42 6
M  V30 47 1 43 6
M  V30 48 1 44 7
M  V30 49 1 8 45 CFG=1
M  V30 50 1 46 9
M  V30 51 1 47 9
M  V30 52 1 48 11
M  V30 53 1 49 11
M  V30 54 1 50 13
M  V30 55 1 51 13
M  V30 56 1 52 14
M  V30 57 1 53 15
M  V30 58 1 54 16
M  V30 59 1 55 16
M  V30 60 1 56 17
M  V30 61 1 57 17
M  V30 62 1 58 17
M  V30 63 1 18 59 CFG=1
M  V30 64 1 19 60 CFG=3
M  V30 65 1 61 20
M  V30 66 1 62 21
M  V30 67 1 63 21
M  V30 68 1 64 21
M  V30 69 1 65 23
M  V30 70 1 66 23
M  V30 71 1 67 25
M  V30 72 1 68 27
M  V30 73 1 69 27
M  V30 74 1 70 28
M  V30 75 1 71 28
M  V30 76 1 72 29
M  V30 77 1 73 29
M  V30 78 1 74 33
M  V30 79 1 75 34
M  V30 80 1 76 34
M  V30 81 1 31 77 CFG=3
M  V30 END BOND
M  V30 END CTAB
M  END
>  <i_epik_Tot_Q>  (1) 
0

>  <i_epik_Tot_abs_Q>  (1) 
2

>  <i_i_glide_confnum>  (1) 
924

>  <i_i_glide_lignum>  (1) 
58

>  <i_i_glide_posenum>  (1) 
205

>  <i_i_glide_rotatable_bonds>  (1) 
8

>  <i_lp_mmshare_version>  (1) 
72125

>  <i_m_source_file_index>  (1) 
21

>  <i_f3d_flags>  (1) 
0

>  <num_sample>  (1) 
50

>  <b_lp_Chiralities_Consistent>  (1) 
1

>  <r_epik_Charging_Adjusted_Penalty>  (1) 
0.70686764658740575

>  <r_epik_Ionization_Penalty>  (1) 
0.13730248461042968

>  <r_epik_Ionization_Penalty_Charging>  (1) 
0.016711854413244867

>  <r_epik_Ionization_Penalty_Neutral>  (1) 
0.12059063019718481

>  <r_epik_State_Penalty>  (1) 
0.6901557921741609

>  <r_glide_ring_energy>  (1) 
0.80292018469376492

>  <r_i_docking_score>  (1) 
-7.5875873092752153

>  <r_i_glide_ecoul>  (1) 
-2.7105016908035418

>  <r_i_glide_eff_state_penalty>  (1) 
0.6901557921741609

>  <r_i_glide_einternal>  (1) 
31.816142963645934

>  <r_i_glide_emodel>  (1) 
-42.619828469146917

>  <r_i_glide_emodel_strain>  (1) 
5.0018174411935092

>  <r_i_glide_energy>  (1) 
-44.861383240792094

>  <r_i_glide_erotb>  (1) 
0.48702584280874928

>  <r_i_glide_esite>  (1) 
-0.1171723234047068

>  <r_i_glide_evdw>  (1) 
-42.150881549988554

>  <r_i_glide_gscore>  (1) 
-8.2777431014493761

>  <r_i_glide_gscore_strain>  (1) 
0.25045436029837731

>  <r_i_glide_hbond>  (1) 
-0.12880033067733118

>  <r_i_glide_ligand_efficiency>  (1) 
-0.21076631414653377

>  <r_i_glide_ligand_efficiency_ln>  (1) 
-1.6554065579646065

>  <r_i_glide_ligand_efficiency_sa>  (1) 
-0.69593503582952498

>  <r_i_glide_lipo>  (1) 
-4.8251423305149226

>  <r_i_glide_metal>  (1) 
-0

>  <r_i_glide_rewards>  (1) 
-1.4299889888395843

>  <r_lp_Energy>  (1) 
64.332168999999993

>  <s_epik_Chemistry_Notes>  (1) 
This compound contains an acetal/aminal-like group ( X-CH(R)-Y where X, Y are N, S, or O) that may be acid/base labile, releasing an aldehyde.

>  <s_epik_cmdline>  (1) 
J2VwaWtfcHl0aG9uJywgJy1waHQnLCAnMS4wJywgJy1waCcsICc3LjQnLCAnLXRuJywgJzgnLCAnLW1hJywgJzUwMCcsICctaW1hZScsICc8aW5maWxlLm1hZT4nLCAnLW9tYWUnLCAnPG91dGZpbGUubWFlPic=

>  <s_epik_input>  (1) 
W2NIXTFbY0hdW2NIXVtjSF1jKGMxMiljKFtjSF1bY0hdW2NIXTIpW0NASF0oW0NIM10pW0NAQEhdKFtPSF0pTihbQ0gyXVtDSDJdMylbQ0BIXShbT0hdKVtDSDJdW0NASF0zW0NAQF0oW0NIMl00KShbQ0gyXVtDSDJdW0NIMl1bQ0gzXSlbQ0gyXVtDSDJdW0NAXTQ1T0MoRikoRilbQ0gyXVtDSDJdNQ==

>  <s_glide_docking_method>  (1) 
confgen

>  <s_i_glide_gridfile>  (1) 
gpcr_5ht2c_6bqh_protein_autoprepared_prepared

>  <s_lp_Force_Field>  (1) 
S-OPLS

>  <s_lp_Variant>  (1) 
DiffSBDD_20_num_sample_50-3

>  <s_m_source_file>  (1) 
generated__ligand_DiffSBDD_2026-05-06_prepared.sdf

>  <GenAI_Model>  (1) 
DiffSBDD

>  <Protein>  (1) 
GPCR_5HT2C

$$$$
DiffSBDD_19_num_sample_50
     RDKit          3D

  0  0  0  0  0  0  0  0  0  0999 V3000
M  V30 BEGIN CTAB
M  V30 COUNTS 46 49 0 0 1
M  V30 BEGIN ATOM
M  V30 1 N 38.323704 35.376658 60.653501 0
M  V30 2 C 38.494025 33.006567 57.114044 0
M  V30 3 C 39.778334 35.200262 60.844748 0
M  V30 4 C 38.131447 31.098569 58.872970 0
M  V30 5 N 38.626979 30.225980 57.942126 0
M  V30 6 C 38.323889 31.938448 56.052386 0
M  V30 7 C 37.867403 32.559874 58.437315 0 CFG=1
M  V30 8 F 39.867403 34.470921 63.053501 0
M  V30 9 O 36.332471 34.547213 59.708001 0
M  V30 10 O 37.885270 30.757885 60.032687 0
M  V30 11 N 39.595177 36.756282 62.782331 0
M  V30 12 N 37.962695 27.362757 54.966190 0
M  V30 13 C 39.017184 29.511126 55.467091 0 CFG=1
M  V30 14 O 38.321907 33.447677 59.463964 0
M  V30 15 C 38.284982 29.606889 54.118311 0
M  V30 16 O 39.867403 36.821430 64.202512 0
M  V30 17 C 38.140924 36.782536 62.662125 0
M  V30 18 C 38.980106 30.646374 56.541529 0 CFG=2
M  V30 19 C 38.891882 28.809857 58.312088 0
M  V30 20 C 40.199861 35.511207 62.291843 0 CFG=2
M  V30 21 C 38.468263 28.203170 55.935871 0
M  V30 22 C 38.413324 27.879414 57.225521 0
M  V30 23 C 37.725355 36.593727 61.200039 0
M  V30 24 C 37.541752 34.459851 59.923379 0
M  V30 25 C 37.867640 28.154176 53.984288 0
M  V30 26 H 38.029199 33.935141 56.779615 0
M  V30 27 H 39.552912 33.221424 57.255596 0
M  V30 28 H 40.182077 34.222636 60.585111 0
M  V30 29 H 40.270695 35.916742 60.197467 0
M  V30 30 H 38.781691 32.271575 55.120068 0
M  V30 31 H 37.269603 31.776521 55.841596 0
M  V30 32 H 36.786445 32.615379 58.324263 0
M  V30 33 H 38.931913 29.922492 53.299466 0
M  V30 34 H 40.575648 37.457654 64.253512 0
M  V30 35 H 37.693214 36.021431 63.289694 0
M  V30 36 H 37.742159 37.719643 63.034434 0
M  V30 37 H 40.025243 30.922494 56.653411 0
M  V30 38 H 39.959285 28.660552 58.477424 0
M  V30 39 H 38.381752 28.515552 59.230391 0
M  V30 40 H 41.285886 35.590793 62.355911 0
M  V30 41 H 37.995646 26.931648 57.533450 0
M  V30 42 H 36.638091 36.586418 61.135844 0
M  V30 43 H 38.061530 37.443129 60.604717 0
M  V30 44 H 37.488906 27.846177 53.005755 0
M  V30 45 H 40.068983 29.310356 55.252314 0
M  V30 46 H 37.392905 30.231087 54.153286 0
M  V30 END ATOM
M  V30 BEGIN BOND
M  V30 1 1 3 1
M  V30 2 1 5 4
M  V30 3 1 6 2
M  V30 4 1 7 2
M  V30 5 1 7 4
M  V30 6 2 10 4
M  V30 7 1 14 7
M  V30 8 1 15 13
M  V30 9 1 16 11
M  V30 10 1 17 11
M  V30 11 1 18 5
M  V30 12 1 18 6
M  V30 13 1 18 13
M  V30 14 1 19 5
M  V30 15 1 20 3
M  V30 16 1 20 8
M  V30 17 1 20 11
M  V30 18 1 21 12
M  V30 19 1 21 13
M  V30 20 1 22 19
M  V30 21 2 22 21
M  V30 22 1 23 1
M  V30 23 1 23 17
M  V30 24 1 24 1
M  V30 25 2 24 9
M  V30 26 1 24 14
M  V30 27 2 25 12
M  V30 28 1 25 15
M  V30 29 1 26 2
M  V30 30 1 27 2
M  V30 31 1 28 3
M  V30 32 1 29 3
M  V30 33 1 30 6
M  V30 34 1 31 6
M  V30 35 1 7 32 CFG=3
M  V30 36 1 33 15
M  V30 37 1 34 16
M  V30 38 1 35 17
M  V30 39 1 36 17
M  V30 40 1 18 37 CFG=1
M  V30 41 1 38 19
M  V30 42 1 39 19
M  V30 43 1 20 40 CFG=3
M  V30 44 1 41 22
M  V30 45 1 42 23
M  V30 46 1 43 23
M  V30 47 1 44 25
M  V30 48 1 13 45 CFG=3
M  V30 49 1 46 15
M  V30 END BOND
M  V30 END CTAB
M  END
>  <i_epik_Tot_Q>  (1) 
0

>  <i_epik_Tot_abs_Q>  (1) 
0

>  <i_i_glide_confnum>  (1) 
1

>  <i_i_glide_lignum>  (1) 
52

>  <i_i_glide_posenum>  (1) 
32

>  <i_i_glide_rotatable_bonds>  (1) 
4

>  <i_lp_mmshare_version>  (1) 
72125

>  <i_m_source_file_index>  (1) 
20

>  <i_f3d_flags>  (1) 
0

>  <num_sample>  (1) 
50

>  <b_lp_Chiralities_Consistent>  (1) 
1

>  <r_epik_Charging_Adjusted_Penalty>  (1) 
0

>  <r_epik_Ionization_Penalty>  (1) 
0.00023690808741792311

>  <r_epik_Ionization_Penalty_Charging>  (1) 
0

>  <r_epik_Ionization_Penalty_Neutral>  (1) 
0.00023690808741792311

>  <r_epik_State_Penalty>  (1) 
-0

>  <r_glide_ring_energy>  (1) 
0.27322882293605699

>  <r_i_docking_score>  (1) 
-7.5750418777957362

>  <r_i_glide_ecoul>  (1) 
-5.3616249592071723

>  <r_i_glide_eff_state_penalty>  (1) 
-0

>  <r_i_glide_einternal>  (1) 
3.8572462635663145

>  <r_i_glide_emodel>  (1) 
-61.883556344052252

>  <r_i_glide_emodel_strain>  (1) 
0.27812685238393442

>  <r_i_glide_energy>  (1) 
-44.065856561116384

>  <r_i_glide_erotb>  (1) 
0.46110279215177946

>  <r_i_glide_esite>  (1) 
-0.12119636977861115

>  <r_i_glide_evdw>  (1) 
-38.704231601909214

>  <r_i_glide_gscore>  (1) 
-7.5750418777957362

>  <r_i_glide_gscore_strain>  (1) 
0

>  <r_i_glide_hbond>  (1) 
-0.32000000000000001

>  <r_i_glide_ligand_efficiency>  (1) 
-0.30300167511182946

>  <r_i_glide_ligand_efficiency_ln>  (1) 
-1.7955119307244325

>  <r_i_glide_ligand_efficiency_sa>  (1) 
-0.88598227273520125

>  <r_i_glide_lipo>  (1) 
-1.7012830534002439

>  <r_i_glide_metal>  (1) 
-0

>  <r_i_glide_rewards>  (1) 
-3.154209922792123

>  <r_lp_Energy>  (1) 
47.194033999999995

>  <r_lp_tautomer_probability>  (1) 
1

>  <s_epik_Chemistry_Notes>  (1) 
This compound has an ester and may undergo hydrolysis at high or low pH. This compound has an imine and may undergo hydrolysis. This compound has a N-S or N-O group and may undergo hydrolysis at high or low pH.

>  <s_epik_cmdline>  (1) 
J2VwaWtfcHl0aG9uJywgJy1waHQnLCAnMS4wJywgJy1waCcsICc3LjQnLCAnLXRuJywgJzgnLCAnLW1hJywgJzUwMCcsICctaW1hZScsICc8aW5maWxlLm1hZT4nLCAnLW9tYWUnLCAnPG91dGZpbGUubWFlPic=

>  <s_epik_input>  (1) 
W0NIMl0xW0NIMl1OKFtPSF0pW0NAQEhdKEYpW0NIMl1OMUMoPU8pT1tDQEhdKEMyPU8pW0NIMl1bQ0gyXVtDQEBIXShOMjMpQz00QyhbQ0gyXVtDSDJdMyk9TltDSDJdW0NIXTQ=

>  <s_glide_docking_method>  (1) 
confgen

>  <s_i_glide_gridfile>  (1) 
gpcr_5ht2c_6bqh_protein_autoprepared_prepared

>  <s_lp_Force_Field>  (1) 
S-OPLS

>  <s_lp_Variant>  (1) 
DiffSBDD_19_num_sample_50-1

>  <s_m_source_file>  (1) 
generated__ligand_DiffSBDD_2026-05-06_prepared.sdf

>  <GenAI_Model>  (1) 
DiffSBDD

>  <Protein>  (1) 
GPCR_5HT2C

$$$$
DiffSBDD_43_num_sample_50
     RDKit          3D

  0  0  0  0  0  0  0  0  0  0999 V3000
M  V30 BEGIN CTAB
M  V30 COUNTS 63 64 0 0 1
M  V30 BEGIN ATOM
M  V30 1 O 39.267533 27.687714 57.035638 0
M  V30 2 C 37.451303 38.374028 60.769986 0
M  V30 3 C 38.212450 30.777620 58.126566 0
M  V30 4 C 39.867778 30.119896 52.169464 0
M  V30 5 C 39.360273 29.913032 55.971582 0 CFG=1
M  V30 6 C 41.695895 33.331267 63.629691 0
M  V30 7 C 37.458654 36.049072 61.486692 0
M  V30 8 O 39.752264 34.666607 62.904199 0
M  V30 9 C 37.866905 37.046178 60.593471 0
M  V30 10 C 38.443349 28.543154 54.025395 0
M  V30 11 C 36.185193 37.718162 62.743156 0
M  V30 12 C 39.231270 29.625233 54.477409 0
M  V30 13 C 39.930993 30.421195 53.544614 0
M  V30 14 C 36.504684 31.849141 60.646452 0
M  V30 15 O 35.434831 31.629547 60.049136 0 CHG=-1
M  V30 16 C 41.123709 34.719266 63.264603 0 CFG=1
M  V30 17 C 38.039818 30.364223 56.655140 0
M  V30 18 C 39.086610 29.034671 51.721607 0
M  V30 19 C 36.610433 36.387831 62.571034 0
M  V30 20 C 41.151297 35.649148 64.480393 0
M  V30 21 C 37.571924 33.998183 59.901897 0
M  V30 22 O 36.702049 31.621509 61.851622 0
M  V30 23 C 39.474290 34.526067 61.522052 0
M  V30 24 C 40.125308 28.743766 56.649311 0
M  V30 25 N 37.654723 31.941063 58.498915 0
M  V30 26 C 36.601459 38.709209 61.840279 0
M  V30 27 C 37.680350 32.447830 59.871004 0 CFG=2
M  V30 28 C 41.973470 32.391569 62.447086 0
M  V30 29 C 37.943489 34.607323 61.286185 0 CFG=1
M  V30 30 O 38.834563 30.056039 58.907195 0
M  V30 31 C 38.369702 28.250886 52.648806 0
M  V30 32 H 38.752645 27.995598 57.770076 0
M  V30 33 H 37.775641 39.137066 60.078282 0
M  V30 34 H 40.416305 30.720924 51.458373 0
M  V30 35 H 40.023291 30.775172 56.041139 0
M  V30 36 H 42.638421 33.478409 64.158920 0
M  V30 37 H 41.035924 32.834956 64.343127 0
M  V30 38 H 38.507938 36.791894 59.777159 0
M  V30 39 H 37.905960 27.931616 54.735516 0
M  V30 40 H 35.532779 37.975883 63.564893 0
M  V30 41 H 40.536136 31.245997 53.886019 0
M  V30 42 H 41.719154 35.183136 62.477382 0
M  V30 43 H 37.625936 31.210950 56.104642 0
M  V30 44 H 37.284082 29.581544 56.608852 0
M  V30 45 H 39.033240 28.807042 50.667538 0
M  V30 46 H 36.267235 35.629430 63.255203 0
M  V30 47 H 42.173439 35.896960 64.773022 0
M  V30 48 H 40.628245 36.579564 64.253859 0
M  V30 49 H 40.653443 35.198343 65.338249 0
M  V30 50 H 38.216372 34.421687 59.133832 0
M  V30 51 H 36.557209 34.292370 59.627084 0
M  V30 52 H 39.876462 33.579844 61.181772 0
M  V30 53 H 39.990531 35.296350 60.945131 0
M  V30 54 H 40.657018 29.082268 57.538149 0
M  V30 55 H 40.896673 28.359772 55.983130 0
M  V30 56 H 36.945562 32.324538 57.878217 0
M  V30 57 H 36.272601 39.729278 61.970062 0
M  V30 58 H 38.603014 32.117135 60.346074 0
M  V30 59 H 42.588773 31.551433 62.770995 0
M  V30 60 H 41.051701 31.970013 62.047612 0
M  V30 61 H 42.505273 32.897649 61.640013 0
M  V30 62 H 37.444626 34.002495 62.035371 0
M  V30 63 H 37.769575 27.420263 52.304852 0
M  V30 END ATOM
M  V30 BEGIN BOND
M  V30 1 1 9 2
M  V30 2 2 9 7
M  V30 3 1 12 5
M  V30 4 1 12 10
M  V30 5 1 13 4
M  V30 6 2 13 12
M  V30 7 1 15 14
M  V30 8 1 16 6
M  V30 9 1 16 8
M  V30 10 1 17 3
M  V30 11 1 17 5
M  V30 12 2 18 4
M  V30 13 1 19 7
M  V30 14 2 19 11
M  V30 15 1 20 16
M  V30 16 2 22 14
M  V30 17 1 23 8
M  V30 18 1 24 1
M  V30 19 1 24 5
M  V30 20 1 25 3
M  V30 21 2 26 2
M  V30 22 1 26 11
M  V30 23 1 27 14
M  V30 24 1 27 21
M  V30 25 1 27 25
M  V30 26 1 28 6
M  V30 27 1 29 7
M  V30 28 1 29 21
M  V30 29 1 29 23
M  V30 30 2 30 3
M  V30 31 2 31 10
M  V30 32 1 31 18
M  V30 33 1 32 1
M  V30 34 1 33 2
M  V30 35 1 34 4
M  V30 36 1 5 35 CFG=3
M  V30 37 1 36 6
M  V30 38 1 37 6
M  V30 39 1 38 9
M  V30 40 1 39 10
M  V30 41 1 40 11
M  V30 42 1 41 13
M  V30 43 1 16 42 CFG=3
M  V30 44 1 43 17
M  V30 45 1 44 17
M  V30 46 1 45 18
M  V30 47 1 46 19
M  V30 48 1 47 20
M  V30 49 1 48 20
M  V30 50 1 49 20
M  V30 51 1 50 21
M  V30 52 1 51 21
M  V30 53 1 52 23
M  V30 54 1 53 23
M  V30 55 1 54 24
M  V30 56 1 55 24
M  V30 57 1 56 25
M  V30 58 1 57 26
M  V30 59 1 27 58 CFG=1
M  V30 60 1 59 28
M  V30 61 1 60 28
M  V30 62 1 61 28
M  V30 63 1 29 62 CFG=1
M  V30 64 1 63 31
M  V30 END BOND
M  V30 END CTAB
M  END
>  <i_epik_Tot_Q>  (1) 
-1

>  <i_epik_Tot_abs_Q>  (1) 
1

>  <i_i_glide_confnum>  (1) 
926

>  <i_i_glide_lignum>  (1) 
101

>  <i_i_glide_posenum>  (1) 
5

>  <i_i_glide_rotatable_bonds>  (1) 
15

>  <i_lp_mmshare_version>  (1) 
72125

>  <i_m_source_file_index>  (1) 
44

>  <i_f3d_flags>  (1) 
0

>  <num_sample>  (1) 
50

>  <b_lp_Chiralities_Consistent>  (1) 
1

>  <r_epik_Charging_Adjusted_Penalty>  (1) 
6.4622408798935545e-05

>  <r_epik_Ionization_Penalty>  (1) 
6.4697991859273242e-05

>  <r_epik_Ionization_Penalty_Charging>  (1) 
6.4622408798935545e-05

>  <r_epik_Ionization_Penalty_Neutral>  (1) 
7.5583060337697202e-08

>  <r_epik_State_Penalty>  (1) 
-0

>  <r_glide_ring_energy>  (1) 
0

>  <r_i_docking_score>  (1) 
-7.5648171545781118

>  <r_i_glide_ecoul>  (1) 
-8.0467640668334326

>  <r_i_glide_eff_state_penalty>  (1) 
-0

>  <r_i_glide_einternal>  (1) 
4.5230465316224215

>  <r_i_glide_emodel>  (1) 
-60.864903762082434

>  <r_i_glide_emodel_strain>  (1) 
1.4968508368566695

>  <r_i_glide_energy>  (1) 
-40.49799259684238

>  <r_i_glide_erotb>  (1) 
1.0908865233182055

>  <r_i_glide_esite>  (1) 
-0.20480469075586705

>  <r_i_glide_evdw>  (1) 
-32.451228530008947

>  <r_i_glide_gscore>  (1) 
-7.5648171545781118

>  <r_i_glide_gscore_strain>  (1) 
0

>  <r_i_glide_hbond>  (1) 
-0.29680212070117779

>  <r_i_glide_ligand_efficiency>  (1) 
-0.24402635982510038

>  <r_i_glide_ligand_efficiency_ln>  (1) 
-1.7060981021609651

>  <r_i_glide_ligand_efficiency_sa>  (1) 
-0.76657968542807076

>  <r_i_glide_lipo>  (1) 
-4.0384104438262796

>  <r_i_glide_metal>  (1) 
-0

>  <r_i_glide_rewards>  (1) 
-1.286110386087532

>  <r_lp_Energy>  (1) 
36.114167000000002

>  <r_lp_tautomer_probability>  (1) 
1

>  <s_epik_cmdline>  (1) 
J2VwaWtfcHl0aG9uJywgJy1waHQnLCAnMS4wJywgJy1waCcsICc3LjQnLCAnLXRuJywgJzgnLCAnLW1hJywgJzUwMCcsICctaW1hZScsICc8aW5maWxlLm1hZT4nLCAnLW9tYWUnLCAnPG91dGZpbGUubWFlPic=

>  <s_epik_input>  (1) 
W2NIXTFbY0hdW2NIXVtjSF1bY0hdYzFbQ0BIXShbQ0gyXVtPSF0pW0NIMl1DKD1PKVtOSF1bQ0BIXShDKD1PKVtPSF0pW0NIMl1bQ0BASF0oW0NIMl1PW0NAQEhdKFtDSDNdKVtDSDJdW0NIM10pYzJbY0hdW2NIXVtjSF1bY0hdW2NIXTI=

>  <s_glide_docking_method>  (1) 
confgen

>  <s_i_glide_gridfile>  (1) 
gpcr_5ht2c_6bqh_protein_autoprepared_prepared

>  <s_lp_Force_Field>  (1) 
S-OPLS

>  <s_lp_Variant>  (1) 
DiffSBDD_43_num_sample_50-1

>  <s_m_source_file>  (1) 
generated__ligand_DiffSBDD_2026-05-06_prepared.sdf

>  <GenAI_Model>  (1) 
DiffSBDD

>  <Protein>  (1) 
GPCR_5HT2C

$$$$
DiffSBDD_5_num_sample_50
     RDKit          3D

  0  0  0  0  0  0  0  0  0  0999 V3000
M  V30 BEGIN CTAB
M  V30 COUNTS 80 82 0 0 1
M  V30 BEGIN ATOM
M  V30 1 C 39.253849 31.007634 61.460470 0
M  V30 2 C 40.616387 32.683626 62.712565 0 CFG=2
M  V30 3 N 39.172939 25.033046 56.225696 0
M  V30 4 F 35.067603 38.821135 61.854056 0
M  V30 5 C 39.862653 28.751968 59.053097 0
M  V30 6 N 38.861342 30.597645 60.297606 0 CHG=1
M  V30 7 C 38.978529 28.049388 56.742227 0 CFG=1
M  V30 8 C 36.785043 37.234794 61.893506 0 CFG=2
M  V30 9 C 41.681197 34.360233 64.232623 0
M  V30 10 C 38.871967 29.134197 60.146685 0 CFG=2
M  V30 11 N 39.546920 30.017816 62.254457 0
M  V30 12 C 41.080971 33.894960 65.580365 0
M  V30 13 C 39.711252 34.836763 60.866453 0 CFG=2
M  V30 14 C 42.070890 35.827378 64.399617 0
M  V30 15 N 37.489146 35.636231 60.238793 0 CHG=1
M  V30 16 C 39.712652 26.030771 55.304160 0
M  V30 17 C 41.897877 32.111052 62.053241 0
M  V30 18 C 39.391433 28.690579 61.627286 0
M  V30 19 C 39.359830 32.464145 61.843200 0 CFG=1
M  V30 20 C 36.791194 36.923964 60.391437 0
M  V30 21 O 37.006627 25.400083 55.714620 0
M  V30 22 C 36.313847 38.646105 62.260551 0
M  V30 23 C 37.457096 23.824067 57.446437 0
M  V30 24 C 37.861575 24.821470 56.377897 0
M  V30 25 S 38.456667 36.821406 62.417424 0
M  V30 26 C 39.417388 33.348041 60.570741 0
M  V30 27 C 40.898815 34.992020 61.867582 0
M  V30 28 C 38.504281 29.436228 54.789391 0
M  V30 29 O 38.045274 28.505426 55.761629 0
M  V30 30 O 41.067174 26.824493 57.085635 0
M  V30 31 N 40.738265 34.124827 63.083388 0 CFG=1 CHG=1
M  V30 32 C 40.153930 27.268628 56.099525 0 CFG=2
M  V30 33 N 38.478069 35.487408 61.329449 0
M  V30 34 C 39.432393 29.210815 57.642216 0
M  V30 35 H 40.451139 32.114210 63.623788 0
M  V30 36 H 39.825186 24.524273 56.804386 0
M  V30 37 H 39.992104 27.673106 59.105565 0
M  V30 38 H 40.841932 29.174369 59.281964 0
M  V30 39 H 38.404096 27.374783 57.376174 0
M  V30 40 H 36.164840 36.519099 62.429367 0
M  V30 41 H 42.608737 33.816153 64.069122 0
M  V30 42 H 37.871627 28.760655 59.929714 0
M  V30 43 H 39.857896 30.126415 63.211181 0
M  V30 44 H 41.836310 33.941795 66.366778 0
M  V30 45 H 40.268912 34.547547 65.902348 0
M  V30 46 H 40.700951 32.874449 65.580947 0
M  V30 47 H 39.990004 35.298762 59.904605 0
M  V30 48 H 42.669643 35.986358 65.298217 0
M  V30 49 H 42.659758 36.207622 63.566948 0
M  V30 50 H 41.163679 36.420987 64.493961 0
M  V30 51 H 37.972498 35.581701 59.352637 0
M  V30 52 H 39.004465 26.307503 54.520631 0
M  V30 53 H 40.577283 25.620493 54.787415 0
M  V30 54 H 41.801782 31.046867 61.868326 0
M  V30 55 H 42.133920 32.565447 61.092851 0
M  V30 56 H 42.776898 32.211101 62.685208 0
M  V30 57 H 38.682555 28.067065 62.169669 0
M  V30 58 H 40.347479 28.167082 61.585874 0
M  V30 59 H 38.471786 32.726564 62.419279 0
M  V30 60 H 35.806715 36.889740 59.933766 0
M  V30 61 H 37.361512 37.688955 59.862109 0
M  V30 62 H 36.268871 38.791624 63.338930 0
M  V30 63 H 36.916762 39.432155 61.808254 0
M  V30 64 H 38.305673 23.274184 57.853212 0
M  V30 65 H 36.986385 24.377869 58.256345 0
M  V30 66 H 36.730503 23.116031 57.044545 0
M  V30 67 H 40.209663 32.973308 59.927158 0
M  V30 68 H 38.504416 33.232102 59.986622 0
M  V30 69 H 41.834510 34.743407 61.370251 0
M  V30 70 H 41.009416 36.045425 62.114529 0
M  V30 71 H 37.665831 29.723894 54.155583 0
M  V30 72 H 38.898610 30.345655 55.242464 0
M  V30 73 H 39.262685 29.006858 54.136622 0
M  V30 74 H 41.707872 26.238088 56.694584 0
M  V30 75 H 40.703900 27.942865 55.453496 0
M  V30 76 H 40.254871 29.739232 57.161955 0
M  V30 77 H 38.622410 29.937464 57.714761 0
M  V30 78 H 36.831623 34.874212 60.334534 0
M  V30 79 H 38.577732 31.212228 59.546657 0
M  V30 80 H 39.838443 34.395657 63.456026 0
M  V30 END ATOM
M  V30 BEGIN BOND
M  V30 1 2 6 1
M  V30 2 1 10 5
M  V30 3 1 10 6
M  V30 4 1 11 1
M  V30 5 1 12 9
M  V30 6 1 14 9
M  V30 7 1 16 3
M  V30 8 1 17 2
M  V30 9 1 18 10
M  V30 10 1 18 11
M  V30 11 1 19 1
M  V30 12 1 19 2
M  V30 13 1 20 8
M  V30 14 1 20 15
M  V30 15 1 22 4
M  V30 16 1 22 8
M  V30 17 1 24 3
M  V30 18 2 24 21
M  V30 19 1 24 23
M  V30 20 1 25 8
M  V30 21 1 26 13
M  V30 22 1 26 19
M  V30 23 1 27 13
M  V30 24 1 29 7
M  V30 25 1 29 28
M  V30 26 1 31 2
M  V30 27 1 31 9
M  V30 28 1 31 27
M  V30 29 1 32 7
M  V30 30 1 32 16
M  V30 31 1 32 30
M  V30 32 1 33 13
M  V30 33 1 33 15
M  V30 34 1 33 25
M  V30 35 1 34 5
M  V30 36 1 34 7
M  V30 37 1 2 35 CFG=1
M  V30 38 1 36 3
M  V30 39 1 37 5
M  V30 40 1 38 5
M  V30 41 1 7 39 CFG=1
M  V30 42 1 8 40 CFG=1
M  V30 43 1 41 9
M  V30 44 1 10 42 CFG=3
M  V30 45 1 43 11
M  V30 46 1 44 12
M  V30 47 1 45 12
M  V30 48 1 46 12
M  V30 49 1 13 47 CFG=3
M  V30 50 1 48 14
M  V30 51 1 49 14
M  V30 52 1 50 14
M  V30 53 1 51 15
M  V30 54 1 52 16
M  V30 55 1 53 16
M  V30 56 1 54 17
M  V30 57 1 55 17
M  V30 58 1 56 17
M  V30 59 1 57 18
M  V30 60 1 58 18
M  V30 61 1 19 59 CFG=1
M  V30 62 1 60 20
M  V30 63 1 61 20
M  V30 64 1 62 22
M  V30 65 1 63 22
M  V30 66 1 64 23
M  V30 67 1 65 23
M  V30 68 1 66 23
M  V30 69 1 67 26
M  V30 70 1 68 26
M  V30 71 1 69 27
M  V30 72 1 70 27
M  V30 73 1 71 28
M  V30 74 1 72 28
M  V30 75 1 73 28
M  V30 76 1 74 30
M  V30 77 1 32 75 CFG=3
M  V30 78 1 76 34
M  V30 79 1 77 34
M  V30 80 1 78 15
M  V30 81 1 79 6
M  V30 82 1 31 80 CFG=1
M  V30 END BOND
M  V30 END CTAB
M  END
>  <i_epik_Tot_Q>  (1) 
3

>  <i_epik_Tot_abs_Q>  (1) 
3

>  <i_i_glide_confnum>  (1) 
383

>  <i_i_glide_lignum>  (1) 
16

>  <i_i_glide_posenum>  (1) 
214

>  <i_i_glide_rotatable_bonds>  (1) 
13

>  <i_lp_mmshare_version>  (1) 
72125

>  <i_m_source_file_index>  (1) 
6

>  <i_f3d_flags>  (1) 
0

>  <num_sample>  (1) 
50

>  <b_lp_Chiralities_Consistent>  (1) 
1

>  <r_epik_Charging_Adjusted_Penalty>  (1) 
0.16301919670703535

>  <r_epik_Ionization_Penalty>  (1) 
0.082191666583868089

>  <r_epik_Ionization_Penalty_Charging>  (1) 
0.082191230012028396

>  <r_epik_Ionization_Penalty_Neutral>  (1) 
4.3657183969654913e-07

>  <r_epik_State_Penalty>  (1) 
0.080827966695006942

>  <r_glide_ring_energy>  (1) 
0

>  <r_i_docking_score>  (1) 
-7.5632383299172732

>  <r_i_glide_ecoul>  (1) 
-3.6487958329095154

>  <r_i_glide_eff_state_penalty>  (1) 
0.080827966695006942

>  <r_i_glide_einternal>  (1) 
5.6750174685409362

>  <r_i_glide_emodel>  (1) 
-65.386179164313489

>  <r_i_glide_emodel_strain>  (1) 
1.3967690374294364

>  <r_i_glide_energy>  (1) 
-43.547830985840264

>  <r_i_glide_erotb>  (1) 
0.63983490757673345

>  <r_i_glide_esite>  (1) 
0

>  <r_i_glide_evdw>  (1) 
-39.89903515293075

>  <r_i_glide_gscore>  (1) 
-7.6440662966122801

>  <r_i_glide_gscore_strain>  (1) 
0

>  <r_i_glide_hbond>  (1) 
-0.30706545319277212

>  <r_i_glide_ligand_efficiency>  (1) 
-0.22244818617403744

>  <r_i_glide_ligand_efficiency_ln>  (1) 
-1.6709314887281632

>  <r_i_glide_ligand_efficiency_sa>  (1) 
-0.72064576910218248

>  <r_i_glide_lipo>  (1) 
-4.2803109941433197

>  <r_i_glide_metal>  (1) 
-0

>  <r_i_glide_rewards>  (1) 
-1.1542536242699559

>  <r_lp_Energy>  (1) 
52.952152999999996

>  <s_epik_Chemistry_Notes>  (1) 
This compound has an imine and may undergo hydrolysis. This compound has a N-S or N-O group and may undergo hydrolysis at high or low pH.

>  <s_epik_cmdline>  (1) 
J2VwaWtfcHl0aG9uJywgJy1waHQnLCAnMS4wJywgJy1waCcsICc3LjQnLCAnLXRuJywgJzgnLCAnLW1hJywgJzUwMCcsICctaW1hZScsICc8aW5maWxlLm1hZT4nLCAnLW9tYWUnLCAnPG91dGZpbGUubWFlPic=

>  <s_epik_input>  (1) 
RltDSDJdW0NASF0xW0NIMl1bTkhdTihTMSlbQ0BASF0oW0NIMl1OMltDSF0oW0NIM10pW0NIM10pW0NIMl1bQ0BASF0oW0NASF0yW0NIM10pQzM9TltDQEhdKFtDSDJdW05IXTMpW0NIMl1bQ0gyXVtDQEBIXShPW0NIM10pW0NAQEhdKFtPSF0pW0NIMl1bTkhdQyg9TylbQ0gzXQ==

>  <s_glide_docking_method>  (1) 
confgen

>  <s_i_glide_gridfile>  (1) 
gpcr_5ht2c_6bqh_protein_autoprepared_prepared

>  <s_lp_Force_Field>  (1) 
S-OPLS

>  <s_lp_Variant>  (1) 
DiffSBDD_5_num_sample_50-3

>  <s_m_source_file>  (1) 
generated__ligand_DiffSBDD_2026-05-06_prepared.sdf

>  <GenAI_Model>  (1) 
DiffSBDD

>  <Protein>  (1) 
GPCR_5HT2C

$$$$
DiffSBDD_25_num_sample_50
     RDKit          3D

  0  0  0  0  0  0  0  0  0  0999 V3000
M  V30 BEGIN CTAB
M  V30 COUNTS 59 60 0 0 1
M  V30 BEGIN ATOM
M  V30 1 C 38.898490 29.032652 53.561304 0 CFG=2
M  V30 2 C 39.769835 27.574578 55.463776 0
M  V30 3 C 37.939112 36.804305 62.715713 0
M  V30 4 C 38.904497 36.850990 63.912684 0
M  V30 5 C 38.250693 31.941808 57.668617 0 CFG=1
M  V30 6 C 38.756888 27.845755 54.516316 0
M  V30 7 C 38.230860 30.288650 54.154494 0
M  V30 8 C 37.607705 27.030017 54.470237 0
M  V30 9 C 37.716618 34.706705 60.177001 0
M  V30 10 C 38.466714 25.705976 56.327793 0
M  V30 11 C 38.091918 31.915472 56.125945 0 CFG=1
M  V30 12 C 40.173148 37.191900 61.944808 0
M  V30 13 N 38.378509 33.223870 55.525279 0 CHG=1
M  V30 14 C 37.998018 33.392039 59.478804 0
M  V30 15 C 39.622551 26.506670 56.368520 0
M  V30 16 C 38.879471 30.775384 55.467735 0
M  V30 17 N 40.267397 36.821429 63.364040 0 CHG=1
M  V30 18 N 37.885668 33.235626 58.222467 0
M  V30 19 C 38.823285 36.645561 61.469746 0 CFG=1
M  V30 20 C 39.199947 27.562907 51.454838 0
M  V30 21 C 38.949000 35.197112 60.957189 0
M  V30 22 C 37.467291 25.960678 55.374460 0
M  V30 23 C 38.462838 28.741558 52.106711 0
M  V30 24 Cl 38.268073 24.421443 57.453375 0
M  V30 25 O 37.467404 30.894990 58.203330 0
M  V30 26 H 39.944425 29.288342 53.496500 0
M  V30 27 H 40.652334 28.195126 55.504691 0
M  V30 28 H 37.384229 37.740332 62.654447 0
M  V30 29 H 37.189678 36.021473 62.808230 0
M  V30 30 H 38.767851 37.752096 64.502543 0
M  V30 31 H 38.772538 36.021432 64.592894 0
M  V30 32 H 39.295121 31.738965 57.896181 0
M  V30 33 H 37.169880 30.081117 54.306361 0
M  V30 34 H 38.283898 31.116090 53.453485 0
M  V30 35 H 36.829007 27.229755 53.749809 0
M  V30 36 H 37.422976 35.447519 59.431127 0
M  V30 37 H 36.862851 34.580611 60.842964 0
M  V30 38 H 37.067400 31.742196 55.853471 0
M  V30 39 H 41.027858 36.825985 61.373503 0
M  V30 40 H 40.157838 38.278627 61.871285 0
M  V30 41 H 39.351503 33.460834 55.639876 0
M  V30 42 H 38.108396 33.221420 54.552940 0
M  V30 43 H 38.313873 32.577685 60.138454 0
M  V30 44 H 40.393070 26.307714 57.099793 0
M  V30 45 H 39.921457 31.057663 55.310228 0
M  V30 46 H 38.894519 29.947395 56.173238 0
M  V30 47 H 40.893191 37.436469 63.883840 0
M  V30 48 H 38.432895 37.262279 60.658808 0
M  V30 49 H 38.843287 27.390598 50.439254 0
M  V30 50 H 40.267360 27.768063 51.393480 0
M  V30 51 H 39.066345 26.635342 52.011246 0
M  V30 52 H 39.160768 34.520774 61.787031 0
M  V30 53 H 39.816098 35.142572 60.294977 0
M  V30 54 H 36.583363 25.341981 55.344871 0
M  V30 55 H 37.387596 28.573932 52.049442 0
M  V30 56 H 38.667396 29.620826 51.497071 0
M  V30 57 H 36.574657 31.043854 57.884056 0
M  V30 58 H 40.613939 35.875105 63.423975 0
M  V30 59 H 37.804350 33.886924 56.032300 0
M  V30 END ATOM
M  V30 BEGIN BOND
M  V30 1 1 4 3
M  V30 2 1 6 1
M  V30 3 1 6 2
M  V30 4 1 7 1
M  V30 5 2 8 6
M  V30 6 1 11 5
M  V30 7 1 13 11
M  V30 8 1 14 9
M  V30 9 2 15 2
M  V30 10 1 15 10
M  V30 11 1 16 7
M  V30 12 1 16 11
M  V30 13 1 17 4
M  V30 14 1 17 12
M  V30 15 1 18 5
M  V30 16 2 18 14
M  V30 17 1 19 3
M  V30 18 1 19 12
M  V30 19 1 21 9
M  V30 20 1 21 19
M  V30 21 1 22 8
M  V30 22 2 22 10
M  V30 23 1 23 1
M  V30 24 1 23 20
M  V30 25 1 24 10
M  V30 26 1 25 5
M  V30 27 1 1 26 CFG=3
M  V30 28 1 27 2
M  V30 29 1 28 3
M  V30 30 1 29 3
M  V30 31 1 30 4
M  V30 32 1 31 4
M  V30 33 1 5 32 CFG=3
M  V30 34 1 33 7
M  V30 35 1 34 7
M  V30 36 1 35 8
M  V30 37 1 36 9
M  V30 38 1 37 9
M  V30 39 1 11 38 CFG=1
M  V30 40 1 39 12
M  V30 41 1 40 12
M  V30 42 1 41 13
M  V30 43 1 42 13
M  V30 44 1 43 14
M  V30 45 1 44 15
M  V30 46 1 45 16
M  V30 47 1 46 16
M  V30 48 1 47 17
M  V30 49 1 19 48 CFG=3
M  V30 50 1 49 20
M  V30 51 1 50 20
M  V30 52 1 51 20
M  V30 53 1 52 21
M  V30 54 1 53 21
M  V30 55 1 54 22
M  V30 56 1 55 23
M  V30 57 1 56 23
M  V30 58 1 57 25
M  V30 59 1 58 17
M  V30 60 1 59 13
M  V30 END BOND
M  V30 END CTAB
M  END
>  <i_epik_Tot_Q>  (1) 
2

>  <i_epik_Tot_abs_Q>  (1) 
2

>  <i_i_glide_confnum>  (1) 
64

>  <i_i_glide_lignum>  (1) 
66

>  <i_i_glide_posenum>  (1) 
127

>  <i_i_glide_rotatable_bonds>  (1) 
11

>  <i_lp_mmshare_version>  (1) 
72125

>  <i_m_source_file_index>  (1) 
26

>  <i_f3d_flags>  (1) 
0

>  <num_sample>  (1) 
50

>  <b_lp_Chiralities_Consistent>  (1) 
1

>  <r_epik_Charging_Adjusted_Penalty>  (1) 
0.45127827763218775

>  <r_epik_Ionization_Penalty>  (1) 
0.041210974459634293

>  <r_epik_Ionization_Penalty_Charging>  (1) 
0.040598438679583813

>  <r_epik_Ionization_Penalty_Neutral>  (1) 
0.0006125357800504809

>  <r_epik_State_Penalty>  (1) 
0.41067983895260396

>  <r_glide_ring_energy>  (1) 
0

>  <r_i_docking_score>  (1) 
-7.5631904102990477

>  <r_i_glide_ecoul>  (1) 
-8.650263631724183

>  <r_i_glide_eff_state_penalty>  (1) 
0.41067983895260396

>  <r_i_glide_einternal>  (1) 
5.1328099792655753

>  <r_i_glide_emodel>  (1) 
-65.492487268582352

>  <r_i_glide_emodel_strain>  (1) 
1.1450745938835922

>  <r_i_glide_energy>  (1) 
-41.991101509116803

>  <r_i_glide_erotb>  (1) 
0.99595821917536853

>  <r_i_glide_esite>  (1) 
-0.14922113820975866

>  <r_i_glide_evdw>  (1) 
-33.340837877392623

>  <r_i_glide_gscore>  (1) 
-7.973870249251652

>  <r_i_glide_gscore_strain>  (1) 
0

>  <r_i_glide_hbond>  (1) 
-0.16

>  <r_i_glide_ligand_efficiency>  (1) 
-0.30252761641196191

>  <r_i_glide_ligand_efficiency_ln>  (1) 
-1.7927027777678961

>  <r_i_glide_ligand_efficiency_sa>  (1) 
-0.88459611668783444

>  <r_i_glide_lipo>  (1) 
-4.1210352089585705

>  <r_i_glide_metal>  (1) 
-0

>  <r_i_glide_rewards>  (1) 
-1.5749906826304332

>  <r_lp_Energy>  (1) 
33.902127

>  <r_lp_tautomer_probability>  (1) 
0.49999300000000002

>  <s_epik_Chemistry_Notes>  (1) 
This compound has an imine and may undergo hydrolysis. This compound contains an acetal/aminal-like group ( X-CH(R)-Y where X, Y are N, S, or O) that may be acid/base labile, releasing an aldehyde.

>  <s_epik_cmdline>  (1) 
J2VwaWtfcHl0aG9uJywgJy1waHQnLCAnMS4wJywgJy1waCcsICc3LjQnLCAnLXRuJywgJzgnLCAnLW1hJywgJzUwMCcsICctaW1hZScsICc8aW5maWxlLm1hZT4nLCAnLW9tYWUnLCAnPG91dGZpbGUubWFlPic=

>  <s_epik_input>  (1) 
W2NIXTFbY0hdYyhDbClbY0hdW2NIXWMxW0NAQEhdKFtDSDJdW0NIM10pW0NIMl1bQ0gyXVtDQEhdKFtOSDJdKVtDQEhdKFtPSF0pXE49W0NIXVxbQ0gyXVtDSDJdW0NASF0yW0NIMl1bQ0gyXVtOSF1bQ0gyXTI=

>  <s_glide_docking_method>  (1) 
confgen

>  <s_i_glide_gridfile>  (1) 
gpcr_5ht2c_6bqh_protein_autoprepared_prepared

>  <s_lp_Force_Field>  (1) 
S-OPLS

>  <s_lp_Variant>  (1) 
DiffSBDD_25_num_sample_50-1

>  <s_m_source_file>  (1) 
generated__ligand_DiffSBDD_2026-05-06_prepared.sdf

>  <GenAI_Model>  (1) 
DiffSBDD

>  <Protein>  (1) 
GPCR_5HT2C

$$$$
DiffSBDD_23_num_sample_50
     RDKit          3D

  0  0  0  0  0  0  0  0  0  0999 V3000
M  V30 BEGIN CTAB
M  V30 COUNTS 61 65 0 0 1
M  V30 BEGIN ATOM
M  V30 1 C 44.949456 30.760525 66.026819 0
M  V30 2 C 37.644919 27.348186 53.238372 0 CFG=2
M  V30 3 C 41.044543 29.936970 63.345943 0
M  V30 4 C 40.406399 28.233023 59.572916 0 CFG=1
M  V30 5 S 38.338704 30.564336 55.399043 0
M  V30 6 C 42.038674 29.494788 64.230202 0
M  V30 7 C 43.728784 29.879377 66.042730 0
M  V30 8 N 39.467565 31.031690 53.130882 0
M  V30 9 C 38.572344 29.254434 54.279741 0
M  V30 10 C 39.397040 28.826458 51.911371 0
M  V30 11 S 38.896729 26.760205 57.784599 0
M  V30 12 O 39.694983 25.621501 58.250439 0
M  V30 13 C 41.273000 32.201573 64.201665 0
M  V30 14 C 38.136933 27.893247 54.574251 0 CFG=2
M  V30 15 N 39.119578 28.088267 58.868738 0
M  V30 16 C 40.662709 31.283455 63.327950 0
M  V30 17 C 42.665672 30.401003 65.114531 0
M  V30 18 C 38.331982 30.195771 59.858143 0
M  V30 19 C 44.779793 31.772502 67.132771 0
M  V30 20 O 45.476707 31.697476 68.141712 0
M  V30 21 Cl 41.689672 28.421597 58.341939 0
M  V30 22 C 42.875977 32.850791 66.026709 0
M  V30 23 S 40.267412 28.786483 62.257614 0
M  V30 24 N 39.669039 27.416226 56.408054 0
M  V30 25 O 37.467467 26.624928 57.464899 0
M  V30 26 N 43.823567 32.740774 66.892048 0
M  V30 27 C 38.409788 29.339362 58.600032 0
M  V30 28 C 39.145322 29.676878 53.115025 0
M  V30 29 C 39.067272 31.621420 54.253711 0
M  V30 30 O 39.646884 30.530050 60.253636 0
M  V30 31 C 42.280327 31.787472 65.109146 0
M  V30 32 N 39.232679 27.098164 55.127254 0
M  V30 33 N 37.067840 26.021443 53.453506 0 CHG=1
M  V30 34 C 40.456066 29.407690 60.580019 0 CFG=2
M  V30 35 C 38.736729 27.419641 52.109404 0
M  V30 36 H 45.135272 31.218257 65.054668 0
M  V30 37 H 45.831231 30.161819 66.260129 0
M  V30 38 H 36.806587 27.970618 52.918147 0
M  V30 39 H 40.612725 27.300648 60.086195 0
M  V30 40 H 42.326784 28.453165 64.234894 0
M  V30 41 H 44.029192 28.884437 65.713605 0
M  V30 42 H 43.310306 29.732672 67.041062 0
M  V30 43 H 38.963291 29.306467 51.033224 0
M  V30 44 H 40.465459 28.729520 51.715136 0
M  V30 45 H 40.966985 33.237366 64.180887 0
M  V30 46 H 37.321302 27.912614 55.286723 0
M  V30 47 H 39.894621 31.618120 62.645974 0
M  V30 48 H 37.814699 29.672143 60.653550 0
M  V30 49 H 37.777716 31.113860 59.655550 0
M  V30 50 H 42.411888 33.835214 65.916737 0
M  V30 51 H 40.684357 27.322754 56.471291 0
M  V30 52 H 37.413859 29.133845 58.206046 0
M  V30 53 H 38.968230 29.886606 57.849062 0
M  V30 54 H 39.205198 32.678291 54.403026 0
M  V30 55 H 39.034725 26.102093 55.069347 0
M  V30 56 H 37.791816 25.356696 53.679756 0
M  V30 57 H 36.393841 26.056843 54.204008 0
M  V30 58 H 41.467326 29.792823 60.570314 0
M  V30 59 H 38.328780 27.076264 51.157965 0
M  V30 60 H 39.526060 26.710052 52.357401 0
M  V30 61 H 36.607283 25.747052 52.584817 0
M  V30 END ATOM
M  V30 BEGIN BOND
M  V30 1 2 6 3
M  V30 2 1 7 1
M  V30 3 1 9 5
M  V30 4 2 12 11
M  V30 5 1 14 2
M  V30 6 1 14 9
M  V30 7 1 15 4
M  V30 8 1 15 11
M  V30 9 1 16 3
M  V30 10 2 16 13
M  V30 11 1 17 6
M  V30 12 1 17 7
M  V30 13 1 19 1
M  V30 14 2 20 19
M  V30 15 1 21 4
M  V30 16 1 23 3
M  V30 17 1 24 11
M  V30 18 2 25 11
M  V30 19 1 26 19
M  V30 20 2 26 22
M  V30 21 1 27 15
M  V30 22 1 27 18
M  V30 23 1 28 8
M  V30 24 2 28 9
M  V30 25 1 28 10
M  V30 26 1 29 5
M  V30 27 2 29 8
M  V30 28 1 30 18
M  V30 29 1 31 13
M  V30 30 2 31 17
M  V30 31 1 31 22
M  V30 32 1 32 14
M  V30 33 1 32 24
M  V30 34 1 33 2
M  V30 35 1 34 4
M  V30 36 1 34 23
M  V30 37 1 34 30
M  V30 38 1 35 2
M  V30 39 1 35 10
M  V30 40 1 36 1
M  V30 41 1 37 1
M  V30 42 1 2 38 CFG=3
M  V30 43 1 4 39 CFG=1
M  V30 44 1 40 6
M  V30 45 1 41 7
M  V30 46 1 42 7
M  V30 47 1 43 10
M  V30 48 1 44 10
M  V30 49 1 45 13
M  V30 50 1 14 46 CFG=1
M  V30 51 1 47 16
M  V30 52 1 48 18
M  V30 53 1 49 18
M  V30 54 1 50 22
M  V30 55 1 51 24
M  V30 56 1 52 27
M  V30 57 1 53 27
M  V30 58 1 54 29
M  V30 59 1 55 32
M  V30 60 1 56 33
M  V30 61 1 57 33
M  V30 62 1 34 58 CFG=1
M  V30 63 1 59 35
M  V30 64 1 60 35
M  V30 65 1 61 33
M  V30 END BOND
M  V30 END CTAB
M  END
>  <i_epik_Tot_Q>  (1) 
1

>  <i_epik_Tot_abs_Q>  (1) 
1

>  <i_i_glide_confnum>  (1) 
143

>  <i_i_glide_lignum>  (1) 
63

>  <i_i_glide_posenum>  (1) 
369

>  <i_i_glide_rotatable_bonds>  (1) 
6

>  <i_lp_mmshare_version>  (1) 
72125

>  <i_m_source_file_index>  (1) 
24

>  <i_f3d_flags>  (1) 
0

>  <num_sample>  (1) 
50

>  <b_lp_Chiralities_Consistent>  (1) 
1

>  <r_epik_Charging_Adjusted_Penalty>  (1) 
0.20786405117440027

>  <r_epik_Ionization_Penalty>  (1) 
0.17784020352230567

>  <r_epik_Ionization_Penalty_Charging>  (1) 
0.046839863378715332

>  <r_epik_Ionization_Penalty_Neutral>  (1) 
0.13100034014359035

>  <r_epik_State_Penalty>  (1) 
0.16102418779568495

>  <r_glide_ring_energy>  (1) 
0.36391509760431284

>  <r_i_docking_score>  (1) 
-7.5539373861574894

>  <r_i_glide_ecoul>  (1) 
-3.8991075686022283

>  <r_i_glide_eff_state_penalty>  (1) 
0.16102418779568495

>  <r_i_glide_einternal>  (1) 
10.82844579037652

>  <r_i_glide_emodel>  (1) 
-81.009723673568999

>  <r_i_glide_emodel_strain>  (1) 
1.3173517779289696

>  <r_i_glide_energy>  (1) 
-57.030983201109379

>  <r_i_glide_erotb>  (1) 
0.32266353053763186

>  <r_i_glide_esite>  (1) 
0

>  <r_i_glide_evdw>  (1) 
-53.131875632507153

>  <r_i_glide_gscore>  (1) 
-7.7149615739531745

>  <r_i_glide_gscore_strain>  (1) 
0

>  <r_i_glide_hbond>  (1) 
0

>  <r_i_glide_ligand_efficiency>  (1) 
-0.21582678246164255

>  <r_i_glide_ligand_efficiency_ln>  (1) 
-1.6582569068690791

>  <r_i_glide_ligand_efficiency_sa>  (1) 
-0.70598371694668061

>  <r_i_glide_lipo>  (1) 
-3.113055117526204

>  <r_i_glide_metal>  (1) 
-0

>  <r_i_glide_rewards>  (1) 
-1.683110070048911

>  <r_lp_Energy>  (1) 
39.045392999999997

>  <s_epik_Chemistry_Notes>  (1) 
This compound has an imine and may undergo hydrolysis. This compound contains an acetal/aminal-like group ( X-CH(R)-Y where X, Y are N, S, or O) that may be acid/base labile, releasing an aldehyde.

>  <s_epik_cmdline>  (1) 
J2VwaWtfcHl0aG9uJywgJy1waHQnLCAnMS4wJywgJy1waCcsICc3LjQnLCAnLXRuJywgJzgnLCAnLW1hJywgJzUwMCcsICctaW1hZScsICc8aW5maWxlLm1hZT4nLCAnLW9tYWUnLCAnPG91dGZpbGUubWFlPic=

>  <s_epik_input>  (1) 
W0NIMl0xW0NIMl1DKD1PKU49W0NIXWMoYzEyKVtjSF1bY0hdYyhbY0hdMilTW0NAQEhdM09bQ0gyXVtDSDJdTihbQ0BIXTNDbClTKD1PKSg9TylbTkhdW05IXVtDQEBIXTRbQ0BASF0oW05IMl0pW0NIMl1bQ0gyXWMoYzQ1KW5bY0hdczU=

>  <s_glide_docking_method>  (1) 
confgen

>  <s_i_glide_gridfile>  (1) 
gpcr_5ht2c_6bqh_protein_autoprepared_prepared

>  <s_lp_Force_Field>  (1) 
S-OPLS

>  <s_lp_Variant>  (1) 
DiffSBDD_23_num_sample_50-2

>  <s_m_source_file>  (1) 
generated__ligand_DiffSBDD_2026-05-06_prepared.sdf

>  <GenAI_Model>  (1) 
DiffSBDD

>  <Protein>  (1) 
GPCR_5HT2C

$$$$
DiffSBDD_28_num_sample_50
     RDKit          3D

  0  0  0  0  0  0  0  0  0  0999 V3000
M  V30 BEGIN CTAB
M  V30 COUNTS 94 99 0 0 1
M  V30 BEGIN ATOM
M  V30 1 C 38.987095 27.435769 54.137406 0
M  V30 2 C 37.502958 31.103448 61.474142 0
M  V30 3 O 41.068317 25.618750 68.322547 0
M  V30 4 C 41.619671 33.393914 65.386031 0 CFG=1
M  V30 5 C 38.935107 30.841472 61.922830 0 CFG=2
M  V30 6 C 42.577749 34.021972 67.618620 0
M  V30 7 C 38.311423 30.891377 56.930735 0
M  V30 8 O 42.537830 30.823710 67.802275 0
M  V30 9 C 37.722753 28.074693 53.587233 0
M  V30 10 C 41.642192 25.960437 67.071461 0 CFG=2
M  V30 11 C 38.991835 32.108026 56.633119 0
M  V30 12 N 40.254700 33.158829 61.866987 0
M  V30 13 C 41.035010 27.203435 65.114910 0
M  V30 14 C 39.570912 36.759465 62.213812 0
M  V30 15 C 40.855037 25.739867 64.753239 0
M  V30 16 C 37.856220 32.511418 61.037531 0 CFG=1
M  V30 17 C 37.652033 31.098488 58.117153 0
M  V30 18 O 39.516032 34.415477 61.902896 0
M  V30 19 O 42.433093 30.863122 69.259982 0
M  V30 20 O 40.952374 29.570135 62.008112 0
M  V30 21 C 38.302567 29.641512 56.096909 0
M  V30 22 C 42.612992 34.274901 66.120724 0
M  V30 23 C 41.450900 33.805901 63.909210 0 CFG=2
M  V30 24 C 40.628085 29.485651 67.461860 0
M  V30 25 O 41.182317 31.083523 65.846100 0
M  V30 26 N 37.878980 32.403365 58.525840 0
M  V30 27 C 38.709017 33.004715 57.618053 0
M  V30 28 C 39.344317 32.178346 61.240568 0 CFG=2
M  V30 29 C 40.903122 35.236543 63.718468 0
M  V30 30 C 42.829292 25.270245 66.445414 0
M  V30 31 C 39.641599 29.567850 61.482863 0
M  V30 32 C 40.392027 35.468768 62.278357 0 CFG=2
M  V30 33 O 41.463211 35.631422 61.386434 0
M  V30 34 O 35.087332 32.495038 60.432721 0
M  V30 35 N 41.065103 27.229936 66.595305 0 CFG=2 CHG=1
M  V30 36 C 35.790157 33.196639 59.707819 0
M  V30 37 C 37.320339 33.053020 59.709026 0 CFG=1
M  V30 38 C 41.419443 25.010057 65.929806 0 CFG=1
M  V30 39 C 40.490574 32.818777 63.259938 0
M  V30 40 C 41.223428 30.867351 67.251361 0 CFG=2
M  V30 41 C 38.965520 28.909607 53.802157 0
M  V30 42 C 41.693227 28.428829 67.146368 0
M  V30 43 O 42.214247 32.101848 65.464731 0
M  V30 44 O 39.015040 29.852879 54.877843 0
M  V30 45 H 39.526364 26.773693 53.463398 0
M  V30 46 H 39.012387 27.143069 55.184028 0
M  V30 47 H 37.154518 30.429718 60.703648 0
M  V30 48 H 36.767466 31.215451 62.252063 0
M  V30 49 H 40.431630 26.261731 68.620790 0
M  V30 50 H 40.660526 33.415269 65.903311 0
M  V30 51 H 38.899144 30.890700 63.010044 0
M  V30 52 H 43.460622 34.421423 68.074098 0
M  V30 53 H 41.697503 34.429141 68.104539 0
M  V30 54 H 42.606177 32.995017 67.876916 0
M  V30 55 H 36.871005 28.161024 54.252622 0
M  V30 56 H 37.456504 27.865269 52.554926 0
M  V30 57 H 39.614468 32.309857 55.771122 0
M  V30 58 H 40.268017 27.854745 64.704724 0
M  V30 59 H 41.994413 27.528871 64.713747 0
M  V30 60 H 39.213424 36.951831 61.205661 0
M  V30 61 H 38.694492 36.698670 62.856871 0
M  V30 62 H 40.154807 37.619639 62.543279 0
M  V30 63 H 39.797043 25.489866 64.655319 0
M  V30 64 H 41.403213 25.460705 63.855469 0
M  V30 65 H 37.531683 33.164863 61.850547 0
M  V30 66 H 37.011415 30.449280 58.684613 0
M  V30 67 H 42.533824 29.948432 69.475350 0
M  V30 68 H 40.896152 29.714426 62.940920 0
M  V30 69 H 38.715585 28.823043 56.683449 0
M  V30 70 H 37.252468 29.430760 55.906288 0
M  V30 71 H 43.591659 34.014929 65.723544 0
M  V30 72 H 42.455141 35.340619 65.948189 0
M  V30 73 H 42.416084 33.739192 63.404175 0
M  V30 74 H 40.302924 29.360830 68.494117 0
M  V30 75 H 39.739329 29.371183 66.836149 0
M  V30 76 H 39.015139 34.019815 57.752782 0
M  V30 77 H 39.782502 31.950250 60.267594 0
M  V30 78 H 40.084979 35.400442 64.418056 0
M  V30 79 H 41.653853 35.986166 63.972303 0
M  V30 80 H 43.300834 24.491174 67.045397 0
M  V30 81 H 43.514160 25.882543 65.855826 0
M  V30 82 H 39.116268 28.683233 61.841778 0
M  V30 83 H 39.696274 29.509708 60.395183 0
M  V30 84 H 41.738633 36.535636 61.403117 0
M  V30 85 H 35.388388 33.949334 59.032446 0
M  V30 86 H 37.663958 34.084790 59.646203 0
M  V30 87 H 40.952814 24.054912 66.122740 0
M  V30 88 H 40.923122 31.820980 63.322134 0
M  V30 89 H 39.541949 32.816381 63.796210 0
M  V30 90 H 40.628785 31.645463 67.727661 0
M  V30 91 H 39.530523 29.252061 52.937082 0
M  V30 92 H 42.445947 28.799474 66.446768 0
M  V30 93 H 42.239450 28.189656 68.059351 0
M  V30 94 H 40.105721 27.227056 66.911088 0
M  V30 END ATOM
M  V30 BEGIN BOND
M  V30 1 1 5 2
M  V30 2 1 9 1
M  V30 3 1 10 3 CFG=1
M  V30 4 1 11 7
M  V30 5 1 15 13
M  V30 6 1 16 2
M  V30 7 2 17 7
M  V30 8 1 18 12
M  V30 9 1 19 8
M  V30 10 1 21 7
M  V30 11 1 22 4
M  V30 12 1 22 6
M  V30 13 1 23 4
M  V30 14 1 26 17
M  V30 15 2 27 11
M  V30 16 1 27 26
M  V30 17 1 28 5
M  V30 18 1 28 12
M  V30 19 1 28 16
M  V30 20 1 29 23
M  V30 21 1 30 10
M  V30 22 1 31 5
M  V30 23 1 31 20
M  V30 24 1 32 14
M  V30 25 1 32 18
M  V30 26 1 32 29
M  V30 27 1 32 33 CFG=3
M  V30 28 1 35 10
M  V30 29 1 35 13
M  V30 30 2 36 34
M  V30 31 1 37 16
M  V30 32 1 37 26
M  V30 33 1 37 36
M  V30 34 1 38 10
M  V30 35 1 38 15
M  V30 36 1 38 30
M  V30 37 1 39 12
M  V30 38 1 39 23
M  V30 39 1 40 8
M  V30 40 1 40 24
M  V30 41 1 40 25
M  V30 42 1 41 1
M  V30 43 1 41 9
M  V30 44 1 42 24
M  V30 45 1 42 35
M  V30 46 1 43 4
M  V30 47 1 43 25
M  V30 48 1 44 21
M  V30 49 1 44 41
M  V30 50 1 45 1
M  V30 51 1 46 1
M  V30 52 1 47 2
M  V30 53 1 48 2
M  V30 54 1 49 3
M  V30 55 1 4 50 CFG=1
M  V30 56 1 5 51 CFG=1
M  V30 57 1 52 6
M  V30 58 1 53 6
M  V30 59 1 54 6
M  V30 60 1 55 9
M  V30 61 1 56 9
M  V30 62 1 57 11
M  V30 63 1 58 13
M  V30 64 1 59 13
M  V30 65 1 60 14
M  V30 66 1 61 14
M  V30 67 1 62 14
M  V30 68 1 63 15
M  V30 69 1 64 15
M  V30 70 1 16 65 CFG=1
M  V30 71 1 66 17
M  V30 72 1 67 19
M  V30 73 1 68 20
M  V30 74 1 69 21
M  V30 75 1 70 21
M  V30 76 1 71 22
M  V30 77 1 72 22
M  V30 78 1 23 73 CFG=3
M  V30 79 1 74 24
M  V30 80 1 75 24
M  V30 81 1 76 27
M  V30 82 1 28 77 CFG=3
M  V30 83 1 78 29
M  V30 84 1 79 29
M  V30 85 1 80 30
M  V30 86 1 81 30
M  V30 87 1 82 31
M  V30 88 1 83 31
M  V30 89 1 84 33
M  V30 90 1 85 36
M  V30 91 1 37 86 CFG=3
M  V30 92 1 38 87 CFG=1
M  V30 93 1 88 39
M  V30 94 1 89 39
M  V30 95 1 40 90 CFG=1
M  V30 96 1 91 41
M  V30 97 1 92 42
M  V30 98 1 93 42
M  V30 99 1 35 94 CFG=1
M  V30 END BOND
M  V30 END CTAB
M  END
>  <i_epik_Tot_Q>  (1) 
1

>  <i_epik_Tot_abs_Q>  (1) 
1

>  <i_i_glide_confnum>  (1) 
6286

>  <i_i_glide_lignum>  (1) 
72

>  <i_i_glide_posenum>  (1) 
281

>  <i_i_glide_rotatable_bonds>  (1) 
21

>  <i_lp_mmshare_version>  (1) 
72125

>  <i_m_source_file_index>  (1) 
29

>  <i_f3d_flags>  (1) 
2

>  <num_sample>  (1) 
50

>  <b_lp_Chiralities_Consistent>  (1) 
0

>  <r_epik_Charging_Adjusted_Penalty>  (1) 
1.2455417737221615

>  <r_epik_Ionization_Penalty>  (1) 
0.6411459992377706

>  <r_epik_Ionization_Penalty_Charging>  (1) 
0.62277088686108073

>  <r_epik_Ionization_Penalty_Neutral>  (1) 
0.018375112376689838

>  <r_epik_State_Penalty>  (1) 
0.62277088686108073

>  <r_glide_ring_energy>  (1) 
0

>  <r_i_docking_score>  (1) 
-7.548760899827637

>  <r_i_glide_ecoul>  (1) 
-11.631049964503214

>  <r_i_glide_eff_state_penalty>  (1) 
0.62277088686108073

>  <r_i_glide_einternal>  (1) 
24.690869730593548

>  <r_i_glide_emodel>  (1) 
-54.649365132191456

>  <r_i_glide_emodel_strain>  (1) 
5.5275445633578073

>  <r_i_glide_energy>  (1) 
-50.285059026776111

>  <r_i_glide_erotb>  (1) 
0.67661073285980611

>  <r_i_glide_esite>  (1) 
-0.13955742106561742

>  <r_i_glide_evdw>  (1) 
-38.654009062272898

>  <r_i_glide_gscore>  (1) 
-8.1715317866887176

>  <r_i_glide_gscore_strain>  (1) 
0.38188614083945183

>  <r_i_glide_hbond>  (1) 
-0.67026561157007802

>  <r_i_glide_ligand_efficiency>  (1) 
-0.17156274772335539

>  <r_i_glide_ligand_efficiency_ln>  (1) 
-1.5778557033587286

>  <r_i_glide_ligand_efficiency_sa>  (1) 
-0.60567626082911308

>  <r_i_glide_lipo>  (1) 
-3.6502918787476126

>  <r_i_glide_metal>  (1) 
-0

>  <r_i_glide_rewards>  (1) 
-1.0925558012155387

>  <r_lp_Energy>  (1) 
40.866444999999999

>  <s_epik_Chemistry_Notes>  (1) 
This compound contains an acetal/aminal-like group ( X-CH(R)-Y where X, Y are N, S, or O) that may be acid/base labile, releasing an aldehyde. This compound has a N-S or N-O group and may undergo hydrolysis at high or low pH.

>  <s_epik_cmdline>  (1) 
J2VwaWtfcHl0aG9uJywgJy1waHQnLCAnMS4wJywgJy1waCcsICc3LjQnLCAnLXRuJywgJzgnLCAnLW1hJywgJzUwMCcsICctaW1hZScsICc8aW5maWxlLm1hZT4nLCAnLW9tYWUnLCAnPG91dGZpbGUubWFlPic=

>  <s_epik_input>  (1) 
W0NIMl0xW0NIMl1bQ0hdMU9bQ0gyXWMyW2NIXVtjSF1uKFtjSF0yKVtDQEBIXShbQ0hdPU8pW0NAQEhdKFtDSDJdW0NASF0zW0NIMl1bT0hdKVtDQEhdM04oT1tDQF00KFtDSDNdKVtPSF0pW0NIMl1bQ0BASF0oW0NIMl00KVtDQEhdKFtDSDJdW0NIM10pT09bQ0BIXShPW09IXSlbQ0gyXVtDSDJdTjVbQ0gyXVtDSDJdW0NASF0oW0NIMl02KVtDQEBdNTZbT0hd

>  <s_glide_docking_method>  (1) 
confgen

>  <s_i_glide_gridfile>  (1) 
gpcr_5ht2c_6bqh_protein_autoprepared_prepared

>  <s_lp_Force_Field>  (1) 
S-OPLS

>  <s_lp_Variant>  (1) 
DiffSBDD_28_num_sample_50-2

>  <s_m_source_file>  (1) 
generated__ligand_DiffSBDD_2026-05-06_prepared.sdf

>  <GenAI_Model>  (1) 
DiffSBDD

>  <Protein>  (1) 
GPCR_5HT2C

$$$$
DiffSBDD_13_num_sample_50
     RDKit          3D

  0  0  0  0  0  0  0  0  0  0999 V3000
M  V30 BEGIN CTAB
M  V30 COUNTS 68 71 0 0 1
M  V30 BEGIN ATOM
M  V30 1 C 37.112885 30.331921 59.694284 0
M  V30 2 C 39.807011 29.867277 50.843555 0
M  V30 3 N 39.052779 36.389023 62.382652 0
M  V30 4 C 39.304913 29.026984 53.471736 0
M  V30 5 C 41.213191 36.423067 62.618134 0
M  V30 6 N 37.867438 28.800737 55.553105 0 CFG=2 CHG=1
M  V30 7 F 41.466565 30.424616 49.453497 0
M  V30 8 C 38.734932 34.143067 61.453385 0
M  V30 9 C 38.172979 26.752849 56.843868 0 CFG=1
M  V30 10 C 38.408030 31.253474 62.276926 0
M  V30 11 C 37.873275 28.253486 56.938479 0
M  V30 12 C 39.630987 35.243271 62.002819 0
M  V30 13 C 37.799833 31.706428 59.740898 0 CFG=1
M  V30 14 N 38.095073 36.961073 61.517893 0
M  V30 15 N 39.527315 26.627052 56.354705 0
M  V30 16 O 37.506705 34.237675 61.401271 0
M  V30 17 O 35.867230 30.367851 59.053505 0
M  V30 18 C 39.166184 28.525978 54.894194 0 CFG=1
M  V30 19 C 38.255481 31.628863 57.260939 0
M  V30 20 C 40.140321 30.298247 49.453669 0
M  V30 21 C 39.913617 30.271096 53.231949 0
M  V30 22 C 38.262323 25.904449 58.093942 0
M  V30 23 C 40.167119 30.684984 51.922718 0
M  V30 24 C 37.316963 30.177931 55.445292 0
M  V30 25 N 40.880283 35.057712 62.103855 0
M  V30 26 C 39.385516 24.918698 57.748307 0
M  V30 27 C 38.899481 28.219324 52.383838 0
M  V30 28 C 39.155182 28.640194 51.070594 0
M  V30 29 O 40.014931 37.280834 62.788380 0
M  V30 30 C 38.203780 31.294388 55.989830 0
M  V30 31 C 38.854223 31.759529 60.886843 0 CFG=1
M  V30 32 O 39.437026 33.048864 61.055537 0
M  V30 33 C 39.521947 27.012698 54.963049 0
M  V30 34 C 38.455625 32.185124 58.437396 0
M  V30 35 O 39.732815 25.220582 56.412044 0
M  V30 36 H 36.833865 30.021427 60.689890 0
M  V30 37 H 37.767965 29.557204 59.309830 0
M  V30 38 H 41.762113 36.358273 63.558783 0
M  V30 39 H 41.867386 36.888442 61.892101 0
M  V30 40 H 37.472920 26.266919 56.160299 0
M  V30 41 H 38.271183 30.172447 62.305456 0
M  V30 42 H 39.165690 31.477612 63.029373 0
M  V30 43 H 37.479573 31.727530 62.595693 0
M  V30 44 H 38.652448 28.751344 57.516873 0
M  V30 45 H 36.930121 28.427934 57.453539 0
M  V30 46 H 37.002064 32.415035 59.951186 0
M  V30 47 H 37.470062 36.223503 61.192889 0
M  V30 48 H 37.544206 37.638109 62.041307 0
M  V30 49 H 35.867490 30.990223 58.323020 0
M  V30 50 H 39.929578 29.051716 55.472306 0
M  V30 51 H 39.867115 29.562482 48.700574 0
M  V30 52 H 39.682020 31.263125 49.225392 0
M  V30 53 H 40.236569 30.885995 54.056548 0
M  V30 54 H 38.510025 26.492513 58.978646 0
M  V30 55 H 37.313119 25.392260 58.253619 0
M  V30 56 H 40.667454 31.621435 51.743452 0
M  V30 57 H 36.325108 30.178221 55.885920 0
M  V30 58 H 37.136198 30.403060 54.394359 0
M  V30 59 H 39.087400 23.874184 57.853169 0
M  V30 60 H 40.266642 25.117834 58.360702 0
M  V30 61 H 38.425986 27.265753 52.555661 0
M  V30 62 H 38.873107 28.012278 50.238558 0
M  V30 63 H 38.801410 31.820778 55.264898 0
M  V30 64 H 39.681074 31.118327 60.581223 0
M  V30 65 H 40.512890 26.821385 54.550647 0
M  V30 66 H 38.817941 26.387537 54.413398 0
M  V30 67 H 39.117267 33.033344 58.528776 0
M  V30 68 H 37.201616 28.233239 55.048893 0
M  V30 END ATOM
M  V30 BEGIN BOND
M  V30 1 1 11 6
M  V30 2 1 11 9
M  V30 3 1 12 3
M  V30 4 1 12 8
M  V30 5 1 13 1
M  V30 6 1 14 3
M  V30 7 1 15 9
M  V30 8 2 16 8
M  V30 9 1 17 1
M  V30 10 1 18 4
M  V30 11 1 18 6
M  V30 12 1 20 2
M  V30 13 1 20 7
M  V30 14 1 21 4
M  V30 15 1 22 9
M  V30 16 1 23 2
M  V30 17 2 23 21
M  V30 18 1 24 6
M  V30 19 1 25 5
M  V30 20 2 25 12
M  V30 21 1 26 22
M  V30 22 2 27 4
M  V30 23 2 28 2
M  V30 24 1 28 27
M  V30 25 1 29 3
M  V30 26 1 29 5
M  V30 27 2 30 19
M  V30 28 1 30 24
M  V30 29 1 31 10
M  V30 30 1 31 13
M  V30 31 1 32 8
M  V30 32 1 32 31
M  V30 33 1 33 15
M  V30 34 1 33 18
M  V30 35 1 34 13
M  V30 36 2 34 19
M  V30 37 1 35 15
M  V30 38 1 35 26
M  V30 39 1 36 1
M  V30 40 1 37 1
M  V30 41 1 38 5
M  V30 42 1 39 5
M  V30 43 1 9 40 CFG=3
M  V30 44 1 41 10
M  V30 45 1 42 10
M  V30 46 1 43 10
M  V30 47 1 44 11
M  V30 48 1 45 11
M  V30 49 1 13 46 CFG=1
M  V30 50 1 47 14
M  V30 51 1 48 14
M  V30 52 1 49 17
M  V30 53 1 18 50 CFG=1
M  V30 54 1 51 20
M  V30 55 1 52 20
M  V30 56 1 53 21
M  V30 57 1 54 22
M  V30 58 1 55 22
M  V30 59 1 56 23
M  V30 60 1 57 24
M  V30 61 1 58 24
M  V30 62 1 59 26
M  V30 63 1 60 26
M  V30 64 1 61 27
M  V30 65 1 62 28
M  V30 66 1 63 30
M  V30 67 1 31 64 CFG=3
M  V30 68 1 65 33
M  V30 69 1 66 33
M  V30 70 1 67 34
M  V30 71 1 6 68 CFG=3
M  V30 END BOND
M  V30 END CTAB
M  END
>  <i_epik_Tot_Q>  (1) 
1

>  <i_epik_Tot_abs_Q>  (1) 
1

>  <i_i_glide_confnum>  (1) 
914

>  <i_i_glide_lignum>  (1) 
44

>  <i_i_glide_posenum>  (1) 
327

>  <i_i_glide_rotatable_bonds>  (1) 
11

>  <i_lp_mmshare_version>  (1) 
72125

>  <i_m_source_file_index>  (1) 
14

>  <i_f3d_flags>  (1) 
0

>  <num_sample>  (1) 
50

>  <b_lp_Chiralities_Consistent>  (1) 
1

>  <r_epik_Charging_Adjusted_Penalty>  (1) 
1.4651263053542571

>  <r_epik_Ionization_Penalty>  (1) 
0.72306607658712641

>  <r_epik_Ionization_Penalty_Charging>  (1) 
0.72300917426663169

>  <r_epik_Ionization_Penalty_Neutral>  (1) 
5.6902320494737884e-05

>  <r_epik_State_Penalty>  (1) 
0.74211713108762534

>  <r_glide_ring_energy>  (1) 
0

>  <r_i_docking_score>  (1) 
-7.5248941045618372

>  <r_i_glide_ecoul>  (1) 
-5.2156535919860625

>  <r_i_glide_eff_state_penalty>  (1) 
0.74211713108762534

>  <r_i_glide_einternal>  (1) 
9.1806317549536516

>  <r_i_glide_emodel>  (1) 
-65.772823360307996

>  <r_i_glide_emodel_strain>  (1) 
2.9926494308497809

>  <r_i_glide_energy>  (1) 
-49.858206172748886

>  <r_i_glide_erotb>  (1) 
0.76112016271400151

>  <r_i_glide_esite>  (1) 
0

>  <r_i_glide_evdw>  (1) 
-44.642552580762825

>  <r_i_glide_gscore>  (1) 
-8.2670112356494627

>  <r_i_glide_gscore_strain>  (1) 
0

>  <r_i_glide_hbond>  (1) 
-0.16

>  <r_i_glide_ligand_efficiency>  (1) 
-0.21499697441605248

>  <r_i_glide_ligand_efficiency_ln>  (1) 
-1.6518812619779275

>  <r_i_glide_ligand_efficiency_sa>  (1) 
-0.70326935980482752

>  <r_i_glide_lipo>  (1) 
-3.4098728156963225

>  <r_i_glide_metal>  (1) 
-0

>  <r_i_glide_rewards>  (1) 
-2.4437829148310901

>  <r_lp_Energy>  (1) 
-5.3362069999999999

>  <s_epik_Chemistry_Notes>  (1) 
This compound has an ester and may undergo hydrolysis at high or low pH. This compound has an imine and may undergo hydrolysis. This compound contains an acetal/aminal-like group ( X-CH(R)-Y where X, Y are N, S, or O) that may be acid/base labile, releasing an aldehyde. This compound has a N-S or N-O group and may undergo hydrolysis at high or low pH.

>  <s_epik_cmdline>  (1) 
J2VwaWtfcHl0aG9uJywgJy1waHQnLCAnMS4wJywgJy1waCcsICc3LjQnLCAnLXRuJywgJzgnLCAnLW1hJywgJzUwMCcsICctaW1hZScsICc8aW5maWxlLm1hZT4nLCAnLW9tYWUnLCAnPG91dGZpbGUubWFlPic=

>  <s_epik_input>  (1) 
TzFbQ0gyXU49QyhOMVtOSDJdKUMoPU8pT1tDQEBIXShbQ0gzXSlbQ0BIXShbQ0gyXVtPSF0pW0NIXT1DPVtDSF1bQ0gyXU4oW0NIMl0yKVtDQEhdKGMoW2NIXVtjSF0zKVtjSF1bY0hdYzNbQ0gyXUYpW0NIMl1OKFtDQEhdMjQpT1tDSDJdW0NIMl00

>  <s_glide_docking_method>  (1) 
confgen

>  <s_i_glide_gridfile>  (1) 
gpcr_5ht2c_6bqh_protein_autoprepared_prepared

>  <s_lp_Force_Field>  (1) 
S-OPLS

>  <s_lp_Variant>  (1) 
DiffSBDD_13_num_sample_50-3

>  <s_m_source_file>  (1) 
generated__ligand_DiffSBDD_2026-05-06_prepared.sdf

>  <GenAI_Model>  (1) 
DiffSBDD

>  <Protein>  (1) 
GPCR_5HT2C

$$$$
DiffSBDD_25_num_sample_50
     RDKit          3D

  0  0  0  0  0  0  0  0  0  0999 V3000
M  V30 BEGIN CTAB
M  V30 COUNTS 59 60 0 0 1
M  V30 BEGIN ATOM
M  V30 1 C 39.061556 27.265060 57.100969 0 CFG=2
M  V30 2 C 38.912184 26.716675 54.607026 0
M  V30 3 C 40.192505 34.412964 62.842712 0
M  V30 4 C 41.152633 35.170937 63.749770 0
M  V30 5 C 37.484256 31.683330 58.975816 0 CFG=1
M  V30 6 C 39.065534 27.693875 55.611214 0
M  V30 7 C 37.984715 27.888914 58.030360 0
M  V30 8 C 39.231279 29.057125 55.234913 0
M  V30 9 C 38.287980 34.231944 60.119046 0
M  V30 10 C 39.066731 28.429408 52.881632 0
M  V30 11 C 37.066809 30.182226 58.974263 0 CFG=1
M  V30 12 C 39.759902 36.791788 62.792566 0
M  V30 13 N 35.642518 30.020086 58.660147 0 CHG=1
M  V30 14 C 39.076317 32.930264 60.188561 0
M  V30 15 C 38.922058 27.088212 53.251456 0
M  V30 16 C 37.910226 29.409409 57.959488 0
M  V30 17 N 40.461632 36.419921 64.030301 0 CHG=1
M  V30 18 N 38.626414 31.800101 59.838739 0
M  V30 19 C 39.235150 35.466076 62.231520 0 CFG=1
M  V30 20 C 41.346158 28.357694 57.819420 0
M  V30 21 C 39.055422 35.445507 60.695192 0
M  V30 22 C 39.212660 29.422042 53.871474 0
M  V30 23 C 40.453582 27.115708 57.770587 0
M  V30 24 Cl 39.085003 28.853605 51.213690 0
M  V30 25 O 37.867382 32.126540 57.678522 0
M  V30 26 H 38.736007 26.224157 57.051961 0
M  V30 27 H 38.791933 25.678129 54.877746 0
M  V30 28 H 39.620576 33.666447 63.398273 0
M  V30 29 H 40.819890 33.898270 62.127313 0
M  V30 30 H 41.428959 34.627989 64.652853 0
M  V30 31 H 42.063601 35.413996 63.198112 0
M  V30 32 H 36.654173 32.293984 59.334549 0
M  V30 33 H 38.208795 27.581174 59.049768 0
M  V30 34 H 37.012994 27.460282 57.783245 0
M  V30 35 H 39.371799 29.818143 55.981241 0
M  V30 36 H 38.034701 34.425893 59.077696 0
M  V30 37 H 37.341468 34.120936 60.645624 0
M  V30 38 H 37.195922 29.761857 59.976620 0
M  V30 39 H 40.488848 37.236241 62.112896 0
M  V30 40 H 38.971681 37.520134 62.989393 0
M  V30 41 H 35.436088 30.421427 57.751535 0
M  V30 42 H 35.382672 29.048482 58.634503 0
M  V30 43 H 40.085485 33.029471 60.558907 0
M  V30 44 H 38.817257 26.342625 52.489411 0
M  V30 45 H 37.514954 29.674533 56.980473 0
M  V30 46 H 38.936884 29.763000 58.039455 0
M  V30 47 H 39.791404 36.276229 64.770198 0
M  V30 48 H 38.250701 35.324459 62.650510 0
M  V30 49 H 42.340838 28.073471 58.164427 0
M  V30 50 H 41.423246 28.800962 56.827438 0
M  V30 51 H 40.991264 29.097791 58.533734 0
M  V30 52 H 40.020978 35.539825 60.207201 0
M  V30 53 H 38.506251 36.342133 60.403966 0
M  V30 54 H 39.324651 30.461187 53.587498 0
M  V30 55 H 40.311945 26.742915 58.788448 0
M  V30 56 H 41.004658 26.336047 57.243641 0
M  V30 57 H 37.078147 32.219470 57.150760 0
M  V30 58 H 41.125025 37.148737 64.315003 0
M  V30 59 H 35.078253 30.486860 59.353707 0
M  V30 END ATOM
M  V30 BEGIN BOND
M  V30 1 1 4 3
M  V30 2 1 6 1
M  V30 3 1 6 2
M  V30 4 1 7 1
M  V30 5 2 8 6
M  V30 6 1 11 5
M  V30 7 1 13 11
M  V30 8 1 14 9
M  V30 9 2 15 2
M  V30 10 1 15 10
M  V30 11 1 16 7
M  V30 12 1 16 11
M  V30 13 1 17 4
M  V30 14 1 17 12
M  V30 15 1 18 5
M  V30 16 2 18 14
M  V30 17 1 19 3
M  V30 18 1 19 12
M  V30 19 1 21 9
M  V30 20 1 21 19
M  V30 21 1 22 8
M  V30 22 2 22 10
M  V30 23 1 23 1
M  V30 24 1 23 20
M  V30 25 1 24 10
M  V30 26 1 25 5
M  V30 27 1 1 26 CFG=3
M  V30 28 1 27 2
M  V30 29 1 28 3
M  V30 30 1 29 3
M  V30 31 1 30 4
M  V30 32 1 31 4
M  V30 33 1 5 32 CFG=1
M  V30 34 1 33 7
M  V30 35 1 34 7
M  V30 36 1 35 8
M  V30 37 1 36 9
M  V30 38 1 37 9
M  V30 39 1 11 38 CFG=1
M  V30 40 1 39 12
M  V30 41 1 40 12
M  V30 42 1 41 13
M  V30 43 1 42 13
M  V30 44 1 43 14
M  V30 45 1 44 15
M  V30 46 1 45 16
M  V30 47 1 46 16
M  V30 48 1 47 17
M  V30 49 1 19 48 CFG=1
M  V30 50 1 49 20
M  V30 51 1 50 20
M  V30 52 1 51 20
M  V30 53 1 52 21
M  V30 54 1 53 21
M  V30 55 1 54 22
M  V30 56 1 55 23
M  V30 57 1 56 23
M  V30 58 1 57 25
M  V30 59 1 58 17
M  V30 60 1 59 13
M  V30 END BOND
M  V30 END CTAB
M  END
>  <i_epik_Tot_Q>  (1) 
2

>  <i_epik_Tot_abs_Q>  (1) 
2

>  <i_i_glide_confnum>  (1) 
283

>  <i_i_glide_lignum>  (1) 
67

>  <i_i_glide_posenum>  (1) 
335

>  <i_i_glide_rotatable_bonds>  (1) 
11

>  <i_lp_mmshare_version>  (1) 
72125

>  <i_m_source_file_index>  (1) 
26

>  <i_f3d_flags>  (1) 
0

>  <num_sample>  (1) 
50

>  <b_lp_Chiralities_Consistent>  (1) 
1

>  <r_epik_Charging_Adjusted_Penalty>  (1) 
0.45127827763218775

>  <r_epik_Ionization_Penalty>  (1) 
0.041210974459634293

>  <r_epik_Ionization_Penalty_Charging>  (1) 
0.040598438679583813

>  <r_epik_Ionization_Penalty_Neutral>  (1) 
0.0006125357800504809

>  <r_epik_State_Penalty>  (1) 
0.41067983895260396

>  <r_glide_ring_energy>  (1) 
0

>  <r_i_docking_score>  (1) 
-7.5244041985342918

>  <r_i_glide_ecoul>  (1) 
-12.444779437701062

>  <r_i_glide_eff_state_penalty>  (1) 
0.41067983895260396

>  <r_i_glide_einternal>  (1) 
5.8120301005930948

>  <r_i_glide_emodel>  (1) 
-65.333306062815467

>  <r_i_glide_emodel_strain>  (1) 
2.221404388092445

>  <r_i_glide_energy>  (1) 
-41.465716296422634

>  <r_i_glide_erotb>  (1) 
0.99595821917536853

>  <r_i_glide_esite>  (1) 
-0.20809152315559654

>  <r_i_glide_evdw>  (1) 
-29.020936858721573

>  <r_i_glide_gscore>  (1) 
-7.9350840374868961

>  <r_i_glide_gscore_strain>  (1) 
0

>  <r_i_glide_hbond>  (1) 
-0.33899965626088369

>  <r_i_glide_ligand_efficiency>  (1) 
-0.30097616794137166

>  <r_i_glide_ligand_efficiency_ln>  (1) 
-1.7835092832506765

>  <r_i_glide_ligand_efficiency_sa>  (1) 
-0.88005965383990536

>  <r_i_glide_lipo>  (1) 
-3.5849971674549486

>  <r_i_glide_metal>  (1) 
-0

>  <r_i_glide_rewards>  (1) 
-1.4811901511995971

>  <r_lp_Energy>  (1) 
32.149031000000001

>  <r_lp_tautomer_probability>  (1) 
0.49999300000000002

>  <s_epik_Chemistry_Notes>  (1) 
This compound has an imine and may undergo hydrolysis. This compound contains an acetal/aminal-like group ( X-CH(R)-Y where X, Y are N, S, or O) that may be acid/base labile, releasing an aldehyde.

>  <s_epik_cmdline>  (1) 
J2VwaWtfcHl0aG9uJywgJy1waHQnLCAnMS4wJywgJy1waCcsICc3LjQnLCAnLXRuJywgJzgnLCAnLW1hJywgJzUwMCcsICctaW1hZScsICc8aW5maWxlLm1hZT4nLCAnLW9tYWUnLCAnPG91dGZpbGUubWFlPic=

>  <s_epik_input>  (1) 
W2NIXTFbY0hdYyhDbClbY0hdW2NIXWMxW0NAQEhdKFtDSDJdW0NIM10pW0NIMl1bQ0gyXVtDQEhdKFtOSDJdKVtDQEhdKFtPSF0pL049W0NIXVxbQ0gyXVtDSDJdW0NASF0yW0NIMl1bQ0gyXVtOSF1bQ0gyXTI=

>  <s_glide_docking_method>  (1) 
confgen

>  <s_i_glide_gridfile>  (1) 
gpcr_5ht2c_6bqh_protein_autoprepared_prepared

>  <s_lp_Force_Field>  (1) 
S-OPLS

>  <s_lp_Variant>  (1) 
DiffSBDD_25_num_sample_50-2

>  <s_m_source_file>  (1) 
generated__ligand_DiffSBDD_2026-05-06_prepared.sdf

>  <GenAI_Model>  (1) 
DiffSBDD

>  <Protein>  (1) 
GPCR_5HT2C

$$$$
DiffSBDD_31_num_sample_50
     RDKit          3D

  0  0  0  0  0  0  0  0  0  0999 V3000
M  V30 BEGIN CTAB
M  V30 COUNTS 35 36 0 0 1
M  V30 BEGIN ATOM
M  V30 1 C 38.791684 28.021431 51.670112 0
M  V30 2 C 38.437571 28.811777 52.782978 0
M  V30 3 C 40.497028 29.649793 51.053502 0
M  V30 4 C 38.267403 27.663029 55.967670 0
M  V30 5 C 38.605868 26.645271 56.889549 0
M  V30 6 C 37.308554 28.372560 53.692601 0
M  V30 7 C 37.702582 27.306770 54.707094 0
M  V30 8 O 38.711675 24.323022 57.453501 0
M  V30 9 O 37.867403 30.997920 57.559694 0
M  V30 10 C 40.149473 30.436561 52.166735 0
M  V30 11 C 37.490279 25.948861 54.396964 0
M  V30 12 C 38.515270 29.129688 56.331228 0 CFG=2
M  V30 13 C 40.014603 29.433187 56.380931 0
M  V30 14 C 39.124629 30.018412 53.035336 0
M  V30 15 C 39.821529 28.440697 50.808149 0
M  V30 16 F 39.143670 26.966782 58.092622 0
M  V30 17 N 37.858246 29.541866 57.565206 0
M  V30 18 C 37.830295 24.948210 55.321515 0
M  V30 19 C 38.385472 25.295055 56.563042 0
M  V30 20 H 38.267403 27.097068 51.473926 0
M  V30 21 H 41.283980 29.974623 50.388397 0
M  V30 22 H 36.535648 27.945617 53.052714 0
M  V30 23 H 36.807084 29.225136 54.147166 0
M  V30 24 H 39.121660 24.693420 58.220736 0
M  V30 25 H 36.936765 31.221427 57.453500 0
M  V30 26 H 40.667403 31.364380 52.353029 0
M  V30 27 H 37.061914 25.674453 53.445409 0
M  V30 28 H 38.084248 29.773635 55.579537 0
M  V30 29 H 40.502685 29.134836 55.453502 0
M  V30 30 H 40.185449 30.502218 56.498918 0
M  V30 31 H 40.512587 28.913317 57.199663 0
M  V30 32 H 38.856491 30.632240 53.879817 0
M  V30 33 H 40.089529 27.837882 49.956201 0
M  V30 34 H 38.385113 29.339209 58.403694 0
M  V30 35 H 37.663774 23.909510 55.076315 0
M  V30 END ATOM
M  V30 BEGIN BOND
M  V30 1 1 2 1
M  V30 2 1 5 4
M  V30 3 1 6 2
M  V30 4 2 7 4
M  V30 5 1 7 6
M  V30 6 2 10 3
M  V30 7 1 11 7
M  V30 8 1 12 4
M  V30 9 1 13 12
M  V30 10 2 14 2
M  V30 11 1 14 10
M  V30 12 2 15 1
M  V30 13 1 15 3
M  V30 14 1 16 5
M  V30 15 1 17 9
M  V30 16 1 17 12
M  V30 17 2 18 11
M  V30 18 2 19 5
M  V30 19 1 19 8
M  V30 20 1 19 18
M  V30 21 1 20 1
M  V30 22 1 21 3
M  V30 23 1 22 6
M  V30 24 1 23 6
M  V30 25 1 24 8
M  V30 26 1 25 9
M  V30 27 1 26 10
M  V30 28 1 27 11
M  V30 29 1 12 28 CFG=3
M  V30 30 1 29 13
M  V30 31 1 30 13
M  V30 32 1 31 13
M  V30 33 1 32 14
M  V30 34 1 33 15
M  V30 35 1 34 17
M  V30 36 1 35 18
M  V30 END BOND
M  V30 END CTAB
M  END
>  <i_epik_Tot_Q>  (1) 
0

>  <i_epik_Tot_abs_Q>  (1) 
0

>  <i_i_glide_confnum>  (1) 
40

>  <i_i_glide_lignum>  (1) 
83

>  <i_i_glide_posenum>  (1) 
393

>  <i_i_glide_rotatable_bonds>  (1) 
6

>  <i_lp_mmshare_version>  (1) 
72125

>  <i_m_source_file_index>  (1) 
32

>  <i_f3d_flags>  (1) 
0

>  <num_sample>  (1) 
50

>  <b_lp_Chiralities_Consistent>  (1) 
1

>  <r_epik_Charging_Adjusted_Penalty>  (1) 
0.023527113832685478

>  <r_epik_Ionization_Penalty>  (1) 
0.024468661873060751

>  <r_epik_Ionization_Penalty_Charging>  (1) 
0

>  <r_epik_Ionization_Penalty_Neutral>  (1) 
0.024468661873060751

>  <r_epik_State_Penalty>  (1) 
0.023527113832685478

>  <r_glide_ring_energy>  (1) 
0

>  <r_i_docking_score>  (1) 
-7.5231393705915766

>  <r_i_glide_ecoul>  (1) 
-4.5691095546847915

>  <r_i_glide_eff_state_penalty>  (1) 
0.023527113832685478

>  <r_i_glide_einternal>  (1) 
2.4730706770507878

>  <r_i_glide_emodel>  (1) 
-51.023128711702562

>  <r_i_glide_emodel_strain>  (1) 
0.27494253044962313

>  <r_i_glide_energy>  (1) 
-33.351081917141705

>  <r_i_glide_erotb>  (1) 
1.038060136543584

>  <r_i_glide_esite>  (1) 
-0.1432843679965102

>  <r_i_glide_evdw>  (1) 
-28.781972362456916

>  <r_i_glide_gscore>  (1) 
-7.5466664844242617

>  <r_i_glide_gscore_strain>  (1) 
0

>  <r_i_glide_hbond>  (1) 
-0.16

>  <r_i_glide_ligand_efficiency>  (1) 
-0.39595470371534613

>  <r_i_glide_ligand_efficiency_ln>  (1) 
-1.9072774126629806

>  <r_i_glide_ligand_efficiency_sa>  (1) 
-1.056566184213239

>  <r_i_glide_lipo>  (1) 
-3.5826516359537255

>  <r_i_glide_metal>  (1) 
-0

>  <r_i_glide_rewards>  (1) 
-2.5743255656920452

>  <r_lp_Energy>  (1) 
22.995338

>  <r_lp_tautomer_probability>  (1) 
0.99999999999736477

>  <s_epik_Chemistry_Notes>  (1) 
This compound has a N-S or N-O group and may undergo hydrolysis at high or low pH.

>  <s_epik_cmdline>  (1) 
J2VwaWtfcHl0aG9uJywgJy1waHQnLCAnMS4wJywgJy1waCcsICc3LjQnLCAnLXRuJywgJzgnLCAnLW1hJywgJzUwMCcsICctaW1hZScsICc8aW5maWxlLm1hZT4nLCAnLW9tYWUnLCAnPG91dGZpbGUubWFlPic=

>  <s_epik_input>  (1) 
W2NIXTFbY0hdW2NIXVtjSF1bY0hdYzFbQ0gyXWMyW2NIXVtjSF1jKFtPSF0pYyhGKWMyW0NASF0oW0NIM10pW05IXVtPSF0=

>  <s_glide_docking_method>  (1) 
confgen

>  <s_i_glide_gridfile>  (1) 
gpcr_5ht2c_6bqh_protein_autoprepared_prepared

>  <s_lp_Force_Field>  (1) 
S-OPLS

>  <s_lp_Variant>  (1) 
DiffSBDD_31_num_sample_50-1

>  <s_m_source_file>  (1) 
generated__ligand_DiffSBDD_2026-05-06_prepared.sdf

>  <GenAI_Model>  (1) 
DiffSBDD

>  <Protein>  (1) 
GPCR_5HT2C

$$$$
DiffSBDD_4_num_sample_50
     RDKit          3D

  0  0  0  0  0  0  0  0  0  0999 V3000
M  V30 BEGIN CTAB
M  V30 COUNTS 72 74 0 0 1
M  V30 BEGIN ATOM
M  V30 1 C 38.386602 28.908971 52.601647 0
M  V30 2 C 38.997815 33.244657 61.007353 0
M  V30 3 C 36.823093 33.532588 60.045931 0
M  V30 4 N 39.283321 31.043224 61.135430 0
M  V30 5 C 37.152551 24.050435 55.205100 0
M  V30 6 C 36.975024 34.942624 60.117896 0
M  V30 7 C 39.904335 32.214786 61.401336 0
M  V30 8 N 39.727800 26.630761 56.127568 0
M  V30 9 C 39.840169 28.965003 58.952448 0
M  V30 10 C 38.042753 26.895713 54.280438 0
M  V30 11 O 38.492126 28.480312 56.602814 0
M  V30 12 C 39.859358 29.722987 61.394750 0
M  V30 13 F 39.067415 31.123530 50.253521 0
M  V30 14 C 39.938276 27.685896 51.206058 0
M  V30 15 C 37.859388 31.174561 60.529507 0
M  V30 16 C 39.831525 30.145192 50.732820 0
M  V30 17 N 39.467407 26.821435 52.287348 0 CHG=1
M  V30 18 C 39.212410 34.641153 61.100063 0
M  V30 19 C 40.544218 28.214316 57.806890 0
M  V30 20 C 38.977751 27.693067 53.352150 0 CFG=1
M  V30 21 C 37.867275 32.721086 60.515201 0
M  V30 22 O 35.682036 32.980412 59.532052 0
M  V30 23 C 38.175796 35.501061 60.653480 0
M  V30 24 C 39.035281 28.899380 51.191168 0 CFG=2
M  V30 25 C 37.858340 25.084946 56.106517 0
M  V30 26 C 39.495798 27.789384 56.781663 0
M  V30 27 N 38.724039 26.027705 55.308381 0
M  V30 28 C 38.648125 24.301024 57.178865 0
M  V30 29 C 40.506203 35.222754 61.659642 0
M  V30 30 N 40.540777 35.232950 63.108974 0
M  V30 31 F 40.608352 30.614307 51.708300 0
M  V30 32 C 40.685354 29.199610 60.203223 0
M  V30 33 C 36.776751 25.838514 56.872720 0
M  V30 34 O 41.026235 32.382099 61.882023 0
M  V30 35 H 37.304247 28.814985 52.511676 0
M  V30 36 H 38.585085 29.833983 53.144328 0
M  V30 37 H 36.479921 24.508009 54.482284 0
M  V30 38 H 37.867458 23.449531 54.653489 0
M  V30 39 H 36.547219 23.359855 55.793771 0
M  V30 40 H 36.185667 35.590840 59.767341 0
M  V30 41 H 35.805565 32.441187 58.754685 0
M  V30 42 H 40.568199 26.097035 56.305271 0
M  V30 43 H 38.939395 28.422078 59.247655 0
M  V30 44 H 39.509445 29.926766 58.563703 0
M  V30 45 H 37.391279 26.277711 53.664430 0
M  V30 46 H 37.367816 27.595726 54.765462 0
M  V30 47 H 40.491201 29.771374 62.283872 0
M  V30 48 H 39.067384 29.015668 61.640269 0
M  V30 49 H 39.964540 27.158706 50.253484 0
M  V30 50 H 40.946968 28.021436 51.445162 0
M  V30 51 H 37.085632 30.778110 61.186016 0
M  V30 52 H 37.757029 30.769817 59.524832 0
M  V30 53 H 40.497854 29.895010 49.906157 0
M  V30 54 H 40.186602 26.198523 52.624653 0
M  V30 55 H 41.311115 28.821225 57.333822 0
M  V30 56 H 41.039125 27.325174 58.199655 0
M  V30 57 H 39.820384 28.062167 53.928371 0
M  V30 58 H 38.296417 36.573309 60.710829 0
M  V30 59 H 38.267385 28.680224 50.458144 0
M  V30 60 H 39.071272 24.955567 57.939353 0
M  V30 61 H 38.005535 23.601783 57.713634 0
M  V30 62 H 39.467382 23.738894 56.747737 0
M  V30 63 H 41.386958 34.727551 61.253438 0
M  V30 64 H 40.579445 36.257439 61.322888 0
M  V30 65 H 41.242279 34.576960 63.422723 0
M  V30 66 H 40.839758 36.141050 63.439291 0
M  V30 67 H 41.467395 29.906708 59.946395 0
M  V30 68 H 41.179044 28.271152 60.493648 0
M  V30 69 H 36.267342 26.421427 56.134343 0
M  V30 70 H 36.039539 25.202367 57.352151 0
M  V30 71 H 37.169532 26.506065 57.638576 0
M  V30 72 H 38.686609 26.284275 51.937409 0
M  V30 END ATOM
M  V30 BEGIN BOND
M  V30 1 1 6 3
M  V30 2 1 7 2
M  V30 3 1 7 4
M  V30 4 1 12 4
M  V30 5 1 15 4
M  V30 6 1 16 13
M  V30 7 1 17 14
M  V30 8 2 18 2
M  V30 9 1 19 9
M  V30 10 1 20 1
M  V30 11 1 20 10
M  V30 12 1 20 17
M  V30 13 1 21 2
M  V30 14 2 21 3
M  V30 15 1 21 15
M  V30 16 1 22 3
M  V30 17 2 23 6
M  V30 18 1 23 18
M  V30 19 1 24 1
M  V30 20 1 24 14
M  V30 21 1 24 16
M  V30 22 1 25 5
M  V30 23 1 26 8
M  V30 24 2 26 11
M  V30 25 1 26 19
M  V30 26 1 27 8
M  V30 27 1 27 10
M  V30 28 1 27 25
M  V30 29 1 28 25
M  V30 30 1 29 18
M  V30 31 1 30 29
M  V30 32 1 31 16
M  V30 33 1 32 9
M  V30 34 1 32 12
M  V30 35 1 33 25
M  V30 36 2 34 7
M  V30 37 1 35 1
M  V30 38 1 36 1
M  V30 39 1 37 5
M  V30 40 1 38 5
M  V30 41 1 39 5
M  V30 42 1 40 6
M  V30 43 1 41 22
M  V30 44 1 42 8
M  V30 45 1 43 9
M  V30 46 1 44 9
M  V30 47 1 45 10
M  V30 48 1 46 10
M  V30 49 1 47 12
M  V30 50 1 48 12
M  V30 51 1 49 14
M  V30 52 1 50 14
M  V30 53 1 51 15
M  V30 54 1 52 15
M  V30 55 1 53 16
M  V30 56 1 54 17
M  V30 57 1 55 19
M  V30 58 1 56 19
M  V30 59 1 20 57 CFG=1
M  V30 60 1 58 23
M  V30 61 1 24 59 CFG=3
M  V30 62 1 60 28
M  V30 63 1 61 28
M  V30 64 1 62 28
M  V30 65 1 63 29
M  V30 66 1 64 29
M  V30 67 1 65 30
M  V30 68 1 66 30
M  V30 69 1 67 32
M  V30 70 1 68 32
M  V30 71 1 69 33
M  V30 72 1 70 33
M  V30 73 1 71 33
M  V30 74 1 72 17
M  V30 END BOND
M  V30 END CTAB
M  END
>  <i_epik_Tot_Q>  (1) 
1

>  <i_epik_Tot_abs_Q>  (1) 
1

>  <i_i_glide_confnum>  (1) 
1073

>  <i_i_glide_lignum>  (1) 
13

>  <i_i_glide_posenum>  (1) 
69

>  <i_i_glide_rotatable_bonds>  (1) 
13

>  <i_lp_mmshare_version>  (1) 
72125

>  <i_m_source_file_index>  (1) 
5

>  <i_f3d_flags>  (1) 
0

>  <num_sample>  (1) 
50

>  <b_lp_Chiralities_Consistent>  (1) 
1

>  <r_epik_Charging_Adjusted_Penalty>  (1) 
1.2595029471344665

>  <r_epik_Ionization_Penalty>  (1) 
1.2628522822174981

>  <r_epik_Ionization_Penalty_Charging>  (1) 
0.002090266189742528

>  <r_epik_Ionization_Penalty_Neutral>  (1) 
1.2607620160277555

>  <r_epik_State_Penalty>  (1) 
1.2574126809447239

>  <r_glide_ring_energy>  (1) 
0

>  <r_i_docking_score>  (1) 
-7.5175066716493335

>  <r_i_glide_ecoul>  (1) 
-3.9346077801478065

>  <r_i_glide_eff_state_penalty>  (1) 
1.2574126809447239

>  <r_i_glide_einternal>  (1) 
9.2484965167051207

>  <r_i_glide_emodel>  (1) 
-66.696947721917084

>  <r_i_glide_emodel_strain>  (1) 
4.1881196114673997

>  <r_i_glide_energy>  (1) 
-48.823905036597218

>  <r_i_glide_erotb>  (1) 
0.78424635180538971

>  <r_i_glide_esite>  (1) 
0

>  <r_i_glide_evdw>  (1) 
-44.88929725644941

>  <r_i_glide_gscore>  (1) 
-8.7749193525940576

>  <r_i_glide_gscore_strain>  (1) 
0.047029902866849937

>  <r_i_glide_hbond>  (1) 
-0.16

>  <r_i_glide_ligand_efficiency>  (1) 
-0.22110313740145099

>  <r_i_glide_ligand_efficiency_ln>  (1) 
-1.6608280826872099

>  <r_i_glide_ligand_efficiency_sa>  (1) 
-0.71628833322521757

>  <r_i_glide_lipo>  (1) 
-4.7562129080207534

>  <r_i_glide_metal>  (1) 
-0

>  <r_i_glide_rewards>  (1) 
-1.8553266694009021

>  <r_lp_Energy>  (1) 
25.577957999999999

>  <r_lp_tautomer_probability>  (1) 
0.99999999999736477

>  <s_epik_cmdline>  (1) 
J2VwaWtfcHl0aG9uJywgJy1waHQnLCAnMS4wJywgJy1waCcsICc3LjQnLCAnLXRuJywgJzgnLCAnLW1hJywgJzUwMCcsICctaW1hZScsICc8aW5maWxlLm1hZT4nLCAnLW9tYWUnLCAnPG91dGZpbGUubWFlPic=

>  <s_epik_input>  (1) 
RltDSF0oRilbQ0BASF0oW0NIMl1bTkhdMSlbQ0gyXVtDQEhdMVtDSDJdTihDKFtDSDNdKShbQ0gzXSlbQ0gzXSlbTkhdQyg9TylbQ0gyXVtDSDJdW0NIMl1bQ0gyXU4oQzI9TylbQ0gyXUMoPUMyMylDKD1PKVtDSDJdW0NIXT1DM1tDSDJdW05IMl0=

>  <s_glide_docking_method>  (1) 
confgen

>  <s_i_glide_gridfile>  (1) 
gpcr_5ht2c_6bqh_protein_autoprepared_prepared

>  <s_lp_Force_Field>  (1) 
S-OPLS

>  <s_lp_Variant>  (1) 
DiffSBDD_4_num_sample_50-2

>  <s_m_source_file>  (1) 
generated__ligand_DiffSBDD_2026-05-06_prepared.sdf

>  <GenAI_Model>  (1) 
DiffSBDD

>  <Protein>  (1) 
GPCR_5HT2C

$$$$
DiffSBDD_29_num_sample_50
     RDKit          3D

  0  0  0  0  0  0  0  0  0  0999 V3000
M  V30 BEGIN CTAB
M  V30 COUNTS 79 81 0 0 1
M  V30 BEGIN ATOM
M  V30 1 C 41.067529 35.057329 65.909947 0
M  V30 2 C 40.463202 28.257529 59.957259 0
M  V30 3 C 41.731876 35.621456 64.650557 0
M  V30 4 C 37.669569 26.751434 54.327975 0
M  V30 5 C 36.457949 33.549067 59.836418 0
M  V30 6 C 39.067382 28.890896 54.429110 0
M  V30 7 C 39.983722 33.411086 61.418532 0 CFG=2
M  V30 8 N 38.347250 29.321182 59.054102 0 CHG=1
M  V30 9 C 37.845604 33.068466 60.110463 0 CFG=1
M  V30 10 N 39.216685 28.760227 55.694138 0
M  V30 11 C 38.467844 33.426771 61.482033 0
M  V30 12 C 38.367932 30.801324 58.943664 0 CFG=2
M  V30 13 O 38.667402 26.445924 58.504977 0
M  V30 14 O 40.639151 33.328579 62.692076 0
M  V30 15 C 35.533816 32.635354 59.751118 0
M  V30 16 C 39.485330 27.209966 52.609918 0
M  V30 17 C 36.216042 35.038581 59.591205 0
M  V30 18 C 40.348359 35.768067 62.530256 0
M  V30 19 C 37.516462 31.487774 60.037159 0 CFG=2
M  V30 20 C 38.439209 26.395008 55.599870 0
M  V30 21 C 40.315921 36.043847 66.820765 0
M  V30 22 F 40.014463 35.461982 67.982923 0
M  V30 23 O 40.667486 30.327195 61.232030 0
M  V30 24 O 37.467403 28.421279 52.653952 0
M  V30 25 C 36.667402 36.030043 60.668131 0
M  V30 26 C 39.625822 28.651072 58.699525 0 CFG=2
M  V30 27 F 41.067403 37.115233 67.063141 0
M  V30 28 C 35.942929 31.226706 59.926164 0
M  V30 29 C 40.229457 28.994220 61.291354 0
M  V30 30 C 39.381723 27.420741 57.769901 0 CFG=2
M  V30 31 C 40.712994 36.267754 63.722682 0
M  V30 32 F 39.179101 36.438184 66.249410 0
M  V30 33 C 38.599287 27.677051 56.450205 0 CFG=1
M  V30 34 O 41.135591 33.858514 66.182530 0
M  V30 35 C 40.876817 34.517332 61.933956 0 CFG=2
M  V30 36 C 38.413179 27.833677 53.523588 0 CFG=1
M  V30 37 C 38.043701 31.242022 57.507109 0
M  V30 38 H 41.523360 28.284959 59.701818 0
M  V30 39 H 40.267401 27.221421 60.199015 0
M  V30 40 H 42.253310 34.813036 64.138587 0
M  V30 41 H 42.491820 36.350317 64.932686 0
M  V30 42 H 36.688158 27.126397 54.620646 0
M  V30 43 H 37.485020 25.863786 53.722239 0
M  V30 44 H 39.421325 29.782095 53.904065 0
M  V30 45 H 40.415974 32.770423 60.655713 0
M  V30 46 H 37.620400 28.974118 58.445525 0
M  V30 47 H 38.484787 33.410969 59.295223 0
M  V30 48 H 38.153023 34.391211 61.853442 0
M  V30 49 H 38.140275 32.731566 62.254261 0
M  V30 50 H 39.380947 31.124677 59.163195 0
M  V30 51 H 38.655072 25.642022 58.005848 0
M  V30 52 H 34.502370 32.867438 59.527510 0
M  V30 53 H 40.259865 26.704066 53.187195 0
M  V30 54 H 39.066919 26.471717 51.926702 0
M  V30 55 H 39.975297 27.966960 51.994626 0
M  V30 56 H 36.705353 35.298644 58.653528 0
M  V30 57 H 35.149544 35.179983 59.412087 0
M  V30 58 H 39.618586 36.303721 61.944324 0
M  V30 59 H 37.826359 31.028222 60.976259 0
M  V30 60 H 39.412130 25.966372 55.355202 0
M  V30 61 H 37.886329 25.630366 56.145591 0
M  V30 62 H 40.565543 30.719882 62.090265 0
M  V30 63 H 37.132390 27.749203 52.075592 0
M  V30 64 H 36.267315 37.023149 60.465975 0
M  V30 65 H 36.337037 35.729749 61.663723 0
M  V30 66 H 37.750057 36.140779 60.662127 0
M  V30 67 H 40.229385 29.355846 58.125852 0
M  V30 68 H 35.655876 30.624333 59.063393 0
M  V30 69 H 35.508191 30.821422 60.839445 0
M  V30 70 H 40.795542 28.495916 62.080022 0
M  V30 71 H 39.183868 28.957321 61.598407 0
M  V30 72 H 40.353765 26.992696 57.515437 0
M  V30 73 H 40.267024 37.189822 64.067282 0
M  V30 74 H 37.597877 28.008577 56.728205 0
M  V30 75 H 41.867353 34.607267 61.496952 0
M  V30 76 H 37.780894 32.297114 57.439278 0
M  V30 77 H 38.900300 31.094870 56.851268 0
M  V30 78 H 37.212126 30.670837 57.094731 0
M  V30 79 H 38.117929 29.057279 59.999289 0
M  V30 END ATOM
M  V30 BEGIN BOND
M  V30 1 1 3 1
M  V30 2 1 9 5
M  V30 3 2 10 6
M  V30 4 1 11 7
M  V30 5 1 11 9
M  V30 6 1 12 8
M  V30 7 1 14 7
M  V30 8 2 15 5
M  V30 9 1 17 5
M  V30 10 1 19 9
M  V30 11 1 19 12
M  V30 12 1 20 4
M  V30 13 1 21 1
M  V30 14 1 22 21
M  V30 15 1 25 17
M  V30 16 1 26 2
M  V30 17 1 26 8
M  V30 18 1 27 21
M  V30 19 1 28 15
M  V30 20 1 28 19
M  V30 21 1 29 2
M  V30 22 1 29 23
M  V30 23 1 30 13
M  V30 24 1 30 26
M  V30 25 1 31 3
M  V30 26 2 31 18
M  V30 27 1 32 21
M  V30 28 1 33 10
M  V30 29 1 33 20
M  V30 30 1 33 30
M  V30 31 2 34 1
M  V30 32 1 35 7
M  V30 33 1 35 14
M  V30 34 1 35 18
M  V30 35 1 36 4
M  V30 36 1 36 6
M  V30 37 1 36 16
M  V30 38 1 36 24 CFG=3
M  V30 39 1 37 12
M  V30 40 1 38 2
M  V30 41 1 39 2
M  V30 42 1 40 3
M  V30 43 1 41 3
M  V30 44 1 42 4
M  V30 45 1 43 4
M  V30 46 1 44 6
M  V30 47 1 7 45 CFG=3
M  V30 48 1 46 8
M  V30 49 1 9 47 CFG=3
M  V30 50 1 48 11
M  V30 51 1 49 11
M  V30 52 1 12 50 CFG=1
M  V30 53 1 51 13
M  V30 54 1 52 15
M  V30 55 1 53 16
M  V30 56 1 54 16
M  V30 57 1 55 16
M  V30 58 1 56 17
M  V30 59 1 57 17
M  V30 60 1 58 18
M  V30 61 1 19 59 CFG=1
M  V30 62 1 60 20
M  V30 63 1 61 20
M  V30 64 1 62 23
M  V30 65 1 63 24
M  V30 66 1 64 25
M  V30 67 1 65 25
M  V30 68 1 66 25
M  V30 69 1 26 67 CFG=3
M  V30 70 1 68 28
M  V30 71 1 69 28
M  V30 72 1 70 29
M  V30 73 1 71 29
M  V30 74 1 30 72 CFG=3
M  V30 75 1 73 31
M  V30 76 1 33 74 CFG=1
M  V30 77 1 35 75 CFG=3
M  V30 78 1 76 37
M  V30 79 1 77 37
M  V30 80 1 78 37
M  V30 81 1 79 8
M  V30 END BOND
M  V30 END CTAB
M  END
>  <i_epik_Tot_Q>  (1) 
1

>  <i_epik_Tot_abs_Q>  (1) 
1

>  <i_i_glide_confnum>  (1) 
2821

>  <i_i_glide_lignum>  (1) 
76

>  <i_i_glide_posenum>  (1) 
259

>  <i_i_glide_rotatable_bonds>  (1) 
17

>  <i_lp_mmshare_version>  (1) 
72125

>  <i_m_source_file_index>  (1) 
30

>  <i_f3d_flags>  (1) 
0

>  <num_sample>  (1) 
50

>  <b_lp_Chiralities_Consistent>  (1) 
1

>  <r_epik_Charging_Adjusted_Penalty>  (1) 
0.073066720001252791

>  <r_epik_Ionization_Penalty>  (1) 
0.041882768558209021

>  <r_epik_Ionization_Penalty_Charging>  (1) 
0.011280877963412759

>  <r_epik_Ionization_Penalty_Neutral>  (1) 
0.030601890594796264

>  <r_epik_State_Penalty>  (1) 
0.061785842037840037

>  <r_glide_ring_energy>  (1) 
0

>  <r_i_docking_score>  (1) 
-7.5100234113079303

>  <r_i_glide_ecoul>  (1) 
-5.8022144659798291

>  <r_i_glide_eff_state_penalty>  (1) 
0.061785842037840037

>  <r_i_glide_einternal>  (1) 
27.206331781548435

>  <r_i_glide_emodel>  (1) 
-57.731619433788381

>  <r_i_glide_emodel_strain>  (1) 
4.6025816123121217

>  <r_i_glide_energy>  (1) 
-51.845992617301619

>  <r_i_glide_erotb>  (1) 
0.87550365807384167

>  <r_i_glide_esite>  (1) 
-0.021259246599738126

>  <r_i_glide_evdw>  (1) 
-46.043778151321789

>  <r_i_glide_gscore>  (1) 
-7.5718092533457702

>  <r_i_glide_gscore_strain>  (1) 
0.15064540307803043

>  <r_i_glide_hbond>  (1) 
-0.47750153549139451

>  <r_i_glide_ligand_efficiency>  (1) 
-0.20297360571102513

>  <r_i_glide_ligand_efficiency_ln>  (1) 
-1.6287480179843747

>  <r_i_glide_ligand_efficiency_sa>  (1) 
-0.67635308425764795

>  <r_i_glide_lipo>  (1) 
-3.3106912179250712

>  <r_i_glide_metal>  (1) 
-0

>  <r_i_glide_rewards>  (1) 
-1.6159852370183738

>  <r_lp_Energy>  (1) 
32.688037999999999

>  <s_epik_Chemistry_Notes>  (1) 
This compound has an imine and may undergo hydrolysis.

>  <s_epik_cmdline>  (1) 
J2VwaWtfcHl0aG9uJywgJy1waHQnLCAnMS4wJywgJy1waCcsICc3LjQnLCAnLXRuJywgJzgnLCAnLW1hJywgJzUwMCcsICctaW1hZScsICc8aW5maWxlLm1hZT4nLCAnLW9tYWUnLCAnPG91dGZpbGUubWFlPic=

>  <s_epik_input>  (1) 
RkMoRikoRilDKD1PKVtDSDJdL1tDSF09W0NIXVxbQ0BIXTFPW0NASF0xW0NIMl1bQ0BIXTJbQ0BIXShbQ0gyXVtDSF09QzJbQ0gyXVtDSDNdKVtDQEhdKFtDSDNdKVtOSF1bQ0BASF0oW0NIMl1bQ0gyXVtPSF0pW0NAQEhdKFtPSF0pW0NAQEhdKE49W0NIXTMpW0NIMl1bQ0gyXVtDQEBdMyhbQ0gzXSlbT0hd

>  <s_glide_docking_method>  (1) 
confgen

>  <s_i_glide_gridfile>  (1) 
gpcr_5ht2c_6bqh_protein_autoprepared_prepared

>  <s_lp_Force_Field>  (1) 
S-OPLS

>  <s_lp_Variant>  (1) 
DiffSBDD_29_num_sample_50-4

>  <s_m_source_file>  (1) 
generated__ligand_DiffSBDD_2026-05-06_prepared.sdf

>  <GenAI_Model>  (1) 
DiffSBDD

>  <Protein>  (1) 
GPCR_5HT2C

$$$$
DiffSBDD_31_num_sample_50
     RDKit          3D

  0  0  0  0  0  0  0  0  0  0999 V3000
M  V30 BEGIN CTAB
M  V30 COUNTS 35 36 0 0 1
M  V30 BEGIN ATOM
M  V30 1 C 38.802214 28.021816 51.670721 0
M  V30 2 C 38.445246 28.812813 52.782337 0
M  V30 3 C 40.503527 29.654203 51.053502 0
M  V30 4 C 38.267403 27.653729 55.965504 0
M  V30 5 C 38.592840 26.632799 56.888910 0
M  V30 6 C 37.315944 28.373288 53.690550 0
M  V30 7 C 37.701520 27.303281 54.703569 0
M  V30 8 O 38.667413 24.304960 57.453501 0
M  V30 9 O 37.867403 30.990527 57.553412 0
M  V30 10 C 40.152903 30.441277 52.165358 0
M  V30 11 C 37.477412 25.947965 54.391726 0
M  V30 12 C 38.525031 29.118273 56.331319 0 CFG=2
M  V30 13 C 40.026099 29.411166 56.389039 0
M  V30 14 C 39.128984 30.021269 53.033776 0
M  V30 15 C 39.831650 28.442817 50.809112 0
M  V30 16 F 39.128463 26.951347 58.094112 0
M  V30 17 N 37.860379 29.533853 57.560616 0
M  V30 18 C 37.804005 24.943220 55.316395 0
M  V30 19 C 38.358423 25.283108 56.561345 0
M  V30 20 H 38.280178 27.096141 51.475037 0
M  V30 21 H 41.289831 29.980617 50.388492 0
M  V30 22 H 36.542246 27.952100 53.047768 0
M  V30 23 H 36.816845 29.225705 54.148043 0
M  V30 24 H 38.344148 23.450686 57.217785 0
M  V30 25 H 36.936301 31.214572 57.453469 0
M  V30 26 H 40.667540 31.370894 52.350636 0
M  V30 27 H 37.048427 25.678776 53.438728 0
M  V30 28 H 38.104159 29.766051 55.577370 0
M  V30 29 H 40.513375 29.126885 55.456317 0
M  V30 30 H 40.202003 30.476947 56.526200 0
M  V30 31 H 40.519733 28.874225 57.199407 0
M  V30 32 H 38.858328 30.635647 53.877191 0
M  V30 33 H 40.101767 27.839888 49.958021 0
M  V30 34 H 38.383788 29.331922 58.401574 0
M  V30 35 H 37.626638 23.907109 55.068340 0
M  V30 END ATOM
M  V30 BEGIN BOND
M  V30 1 1 2 1
M  V30 2 1 5 4
M  V30 3 1 6 2
M  V30 4 2 7 4
M  V30 5 1 7 6
M  V30 6 2 10 3
M  V30 7 1 11 7
M  V30 8 1 12 4
M  V30 9 1 13 12
M  V30 10 2 14 2
M  V30 11 1 14 10
M  V30 12 2 15 1
M  V30 13 1 15 3
M  V30 14 1 16 5
M  V30 15 1 17 9
M  V30 16 1 17 12
M  V30 17 2 18 11
M  V30 18 2 19 5
M  V30 19 1 19 8
M  V30 20 1 19 18
M  V30 21 1 20 1
M  V30 22 1 21 3
M  V30 23 1 22 6
M  V30 24 1 23 6
M  V30 25 1 24 8
M  V30 26 1 25 9
M  V30 27 1 26 10
M  V30 28 1 27 11
M  V30 29 1 12 28 CFG=3
M  V30 30 1 29 13
M  V30 31 1 30 13
M  V30 32 1 31 13
M  V30 33 1 32 14
M  V30 34 1 33 15
M  V30 35 1 34 17
M  V30 36 1 35 18
M  V30 END BOND
M  V30 END CTAB
M  END
>  <i_epik_Tot_Q>  (1) 
0

>  <i_epik_Tot_abs_Q>  (1) 
0

>  <i_i_glide_confnum>  (1) 
40

>  <i_i_glide_lignum>  (1) 
83

>  <i_i_glide_posenum>  (1) 
62

>  <i_i_glide_rotatable_bonds>  (1) 
6

>  <i_lp_mmshare_version>  (1) 
72125

>  <i_m_source_file_index>  (1) 
32

>  <i_f3d_flags>  (1) 
0

>  <num_sample>  (1) 
50

>  <b_lp_Chiralities_Consistent>  (1) 
1

>  <r_epik_Charging_Adjusted_Penalty>  (1) 
0.023527113832685478

>  <r_epik_Ionization_Penalty>  (1) 
0.024468661873060751

>  <r_epik_Ionization_Penalty_Charging>  (1) 
0

>  <r_epik_Ionization_Penalty_Neutral>  (1) 
0.024468661873060751

>  <r_epik_State_Penalty>  (1) 
0.023527113832685478

>  <r_glide_ring_energy>  (1) 
0

>  <r_i_docking_score>  (1) 
-7.5096981253362642

>  <r_i_glide_ecoul>  (1) 
-4.5001199743475642

>  <r_i_glide_eff_state_penalty>  (1) 
0.023527113832685478

>  <r_i_glide_einternal>  (1) 
2.8172966792330203

>  <r_i_glide_emodel>  (1) 
-50.633592693531639

>  <r_i_glide_emodel_strain>  (1) 
0.37566097022002154

>  <r_i_glide_energy>  (1) 
-33.268544804420294

>  <r_i_glide_erotb>  (1) 
1.038060136543584

>  <r_i_glide_esite>  (1) 
-0.14291604856804827

>  <r_i_glide_evdw>  (1) 
-28.768424830072728

>  <r_i_glide_gscore>  (1) 
-7.5332252391689494

>  <r_i_glide_gscore_strain>  (1) 
0

>  <r_i_glide_hbond>  (1) 
-0.16

>  <r_i_glide_ligand_efficiency>  (1) 
-0.39524726975454022

>  <r_i_glide_ligand_efficiency_ln>  (1) 
-1.9038697682992813

>  <r_i_glide_ligand_efficiency_sa>  (1) 
-1.0546784662658626

>  <r_i_glide_lipo>  (1) 
-3.5838959388937042

>  <r_i_glide_metal>  (1) 
-0

>  <r_i_glide_rewards>  (1) 
-2.5710341505950094

>  <r_lp_Energy>  (1) 
22.995338

>  <r_lp_tautomer_probability>  (1) 
0.99999999999736477

>  <s_epik_Chemistry_Notes>  (1) 
This compound has a N-S or N-O group and may undergo hydrolysis at high or low pH.

>  <s_epik_cmdline>  (1) 
J2VwaWtfcHl0aG9uJywgJy1waHQnLCAnMS4wJywgJy1waCcsICc3LjQnLCAnLXRuJywgJzgnLCAnLW1hJywgJzUwMCcsICctaW1hZScsICc8aW5maWxlLm1hZT4nLCAnLW9tYWUnLCAnPG91dGZpbGUubWFlPic=

>  <s_epik_input>  (1) 
W2NIXTFbY0hdW2NIXVtjSF1bY0hdYzFbQ0gyXWMyW2NIXVtjSF1jKFtPSF0pYyhGKWMyW0NASF0oW0NIM10pW05IXVtPSF0=

>  <s_glide_docking_method>  (1) 
confgen

>  <s_i_glide_gridfile>  (1) 
gpcr_5ht2c_6bqh_protein_autoprepared_prepared

>  <s_lp_Force_Field>  (1) 
S-OPLS

>  <s_lp_Variant>  (1) 
DiffSBDD_31_num_sample_50-1

>  <s_m_source_file>  (1) 
generated__ligand_DiffSBDD_2026-05-06_prepared.sdf

>  <GenAI_Model>  (1) 
DiffSBDD

>  <Protein>  (1) 
GPCR_5HT2C

$$$$
DiffSBDD_29_num_sample_50
     RDKit          3D

  0  0  0  0  0  0  0  0  0  0999 V3000
M  V30 BEGIN CTAB
M  V30 COUNTS 79 81 0 0 1
M  V30 BEGIN ATOM
M  V30 1 C 41.532628 33.889660 66.795154 0
M  V30 2 C 39.314790 30.488971 59.983665 0
M  V30 3 C 42.141155 33.865331 65.388669 0
M  V30 4 C 39.362459 26.340005 57.544932 0
M  V30 5 C 36.630296 35.647298 61.881553 0
M  V30 6 C 39.217349 28.375742 56.015861 0
M  V30 7 C 39.642987 36.481108 61.667964 0 CFG=2
M  V30 8 N 37.166288 31.745966 59.445185 0 CHG=1
M  V30 9 C 37.480970 35.476863 60.668226 0 CFG=1
M  V30 10 N 38.245898 28.849779 56.687893 0
M  V30 11 C 38.979684 35.300563 61.002752 0
M  V30 12 C 37.682066 33.131187 59.364140 0 CFG=2
M  V30 13 O 35.908040 29.621435 58.572196 0
M  V30 14 O 41.067404 36.426724 61.589889 0
M  V30 15 C 35.867406 34.637568 62.199080 0
M  V30 16 C 41.421770 27.676259 56.963280 0
M  V30 17 C 36.674731 36.982526 62.635395 0
M  V30 18 C 40.853901 35.190811 63.667734 0
M  V30 19 C 36.776416 34.112598 60.157561 0 CFG=1
M  V30 20 C 38.775230 27.271411 58.599401 0
M  V30 21 C 42.064145 32.865187 67.800972 0
M  V30 22 F 41.822404 31.632305 67.355662 0
M  V30 23 O 40.235089 29.977791 62.149306 0
M  V30 24 O 40.267403 26.313041 55.359449 0
M  V30 25 C 35.615507 37.193588 63.734681 0
M  V30 26 C 38.077167 30.640427 59.043606 0 CFG=2
M  V30 27 F 43.379263 33.023116 67.953208 0
M  V30 28 C 35.923165 33.445206 61.335572 0
M  V30 29 C 39.070826 29.853230 61.363430 0
M  V30 30 C 37.250296 29.327865 58.890756 0 CFG=2
M  V30 31 C 41.806538 35.123667 64.610436 0
M  V30 32 F 41.473283 33.019132 68.986563 0
M  V30 33 C 37.777963 28.239056 57.927003 0 CFG=1
M  V30 34 O 40.652603 34.695549 67.102710 0
M  V30 35 C 40.519118 36.417038 62.904338 0 CFG=2
M  V30 36 C 40.055010 27.176237 56.456354 0 CFG=1
M  V30 37 C 37.869512 33.570421 57.899056 0
M  V30 38 H 39.802103 31.444786 60.158147 0
M  V30 39 H 40.071437 29.903115 59.464393 0
M  V30 40 H 41.755892 32.992294 64.861221 0
M  V30 41 H 43.223666 33.754493 65.453560 0
M  V30 42 H 38.556919 25.742696 57.114450 0
M  V30 43 H 40.061698 25.634376 57.996524 0
M  V30 44 H 39.519790 28.817457 55.062236 0
M  V30 45 H 39.230675 37.458238 61.429201 0
M  V30 46 H 36.357812 31.683003 58.831438 0
M  V30 47 H 37.325211 36.291319 59.959079 0
M  V30 48 H 39.537006 35.114976 60.085770 0
M  V30 49 H 39.112992 34.419581 61.627499 0
M  V30 50 H 38.653397 33.121273 59.835826 0
M  V30 51 H 35.867224 29.987804 57.692919 0
M  V30 52 H 35.205843 34.647390 63.046457 0
M  V30 53 H 41.340512 28.238667 57.891865 0
M  V30 54 H 42.107719 26.850194 57.147603 0
M  V30 55 H 41.886396 28.353941 56.253493 0
M  V30 56 H 37.648377 37.123016 63.098181 0
M  V30 57 H 36.559410 37.771747 61.891522 0
M  V30 58 H 40.283511 34.305425 63.435658 0
M  V30 59 H 36.009501 34.443685 59.452615 0
M  V30 60 H 39.567533 27.800292 59.120014 0
M  V30 61 H 38.267523 26.681725 59.360129 0
M  V30 62 H 40.083566 29.543611 62.978856 0
M  V30 63 H 39.432090 25.969104 55.081026 0
M  V30 64 H 35.517405 38.250322 63.981024 0
M  V30 65 H 34.621044 36.853082 63.453502 0
M  V30 66 H 35.894871 36.669580 64.647704 0
M  V30 67 H 38.448123 30.934719 58.063604 0
M  V30 68 H 34.932301 33.119673 61.014816 0
M  V30 69 H 36.442448 32.642290 61.855651 0
M  V30 70 H 38.853435 28.789536 61.272918 0
M  V30 71 H 38.242626 30.334116 61.884050 0
M  V30 72 H 37.157758 28.861935 59.853526 0
M  V30 73 H 42.382294 36.007709 64.850308 0
M  V30 74 H 36.931030 27.600725 57.670272 0
M  V30 75 H 40.667052 37.339489 63.453513 0
M  V30 76 H 37.867389 34.650961 57.797036 0
M  V30 77 H 38.804982 33.196026 57.483001 0
M  V30 78 H 37.067403 33.221198 57.256352 0
M  V30 79 H 36.846405 31.570268 60.383757 0
M  V30 END ATOM
M  V30 BEGIN BOND
M  V30 1 1 3 1
M  V30 2 1 9 5
M  V30 3 2 10 6
M  V30 4 1 11 7
M  V30 5 1 11 9
M  V30 6 1 12 8
M  V30 7 1 14 7
M  V30 8 2 15 5
M  V30 9 1 17 5
M  V30 10 1 19 9
M  V30 11 1 19 12
M  V30 12 1 20 4
M  V30 13 1 21 1
M  V30 14 1 22 21
M  V30 15 1 25 17
M  V30 16 1 26 2
M  V30 17 1 26 8
M  V30 18 1 27 21
M  V30 19 1 28 15
M  V30 20 1 28 19
M  V30 21 1 29 2
M  V30 22 1 29 23
M  V30 23 1 30 13
M  V30 24 1 30 26
M  V30 25 1 31 3
M  V30 26 2 31 18
M  V30 27 1 32 21
M  V30 28 1 33 10
M  V30 29 1 33 20
M  V30 30 1 33 30
M  V30 31 2 34 1
M  V30 32 1 35 7
M  V30 33 1 35 14
M  V30 34 1 35 18
M  V30 35 1 36 4
M  V30 36 1 36 6
M  V30 37 1 36 16
M  V30 38 1 36 24 CFG=3
M  V30 39 1 37 12
M  V30 40 1 38 2
M  V30 41 1 39 2
M  V30 42 1 40 3
M  V30 43 1 41 3
M  V30 44 1 42 4
M  V30 45 1 43 4
M  V30 46 1 44 6
M  V30 47 1 7 45 CFG=1
M  V30 48 1 46 8
M  V30 49 1 9 47 CFG=3
M  V30 50 1 48 11
M  V30 51 1 49 11
M  V30 52 1 12 50 CFG=1
M  V30 53 1 51 13
M  V30 54 1 52 15
M  V30 55 1 53 16
M  V30 56 1 54 16
M  V30 57 1 55 16
M  V30 58 1 56 17
M  V30 59 1 57 17
M  V30 60 1 58 18
M  V30 61 1 19 59 CFG=3
M  V30 62 1 60 20
M  V30 63 1 61 20
M  V30 64 1 62 23
M  V30 65 1 63 24
M  V30 66 1 64 25
M  V30 67 1 65 25
M  V30 68 1 66 25
M  V30 69 1 26 67 CFG=3
M  V30 70 1 68 28
M  V30 71 1 69 28
M  V30 72 1 70 29
M  V30 73 1 71 29
M  V30 74 1 30 72 CFG=1
M  V30 75 1 73 31
M  V30 76 1 33 74 CFG=3
M  V30 77 1 35 75 CFG=1
M  V30 78 1 76 37
M  V30 79 1 77 37
M  V30 80 1 78 37
M  V30 81 1 79 8
M  V30 END BOND
M  V30 END CTAB
M  END
>  <i_epik_Tot_Q>  (1) 
1

>  <i_epik_Tot_abs_Q>  (1) 
1

>  <i_i_glide_confnum>  (1) 
6570

>  <i_i_glide_lignum>  (1) 
73

>  <i_i_glide_posenum>  (1) 
18

>  <i_i_glide_rotatable_bonds>  (1) 
17

>  <i_lp_mmshare_version>  (1) 
72125

>  <i_m_source_file_index>  (1) 
30

>  <i_f3d_flags>  (1) 
0

>  <num_sample>  (1) 
50

>  <b_lp_Chiralities_Consistent>  (1) 
1

>  <r_epik_Charging_Adjusted_Penalty>  (1) 
0.073066720001252791

>  <r_epik_Ionization_Penalty>  (1) 
0.041882768558209021

>  <r_epik_Ionization_Penalty_Charging>  (1) 
0.011280877963412759

>  <r_epik_Ionization_Penalty_Neutral>  (1) 
0.030601890594796264

>  <r_epik_State_Penalty>  (1) 
0.061785842037840037

>  <r_glide_ring_energy>  (1) 
0

>  <r_i_docking_score>  (1) 
-7.5028644820054282

>  <r_i_glide_ecoul>  (1) 
-6.2709226262590629

>  <r_i_glide_eff_state_penalty>  (1) 
0.061785842037840037

>  <r_i_glide_einternal>  (1) 
12.636622144879766

>  <r_i_glide_emodel>  (1) 
-58.473347580200809

>  <r_i_glide_emodel_strain>  (1) 
2.8380837863688697

>  <r_i_glide_energy>  (1) 
-45.402985095113273

>  <r_i_glide_erotb>  (1) 
0.87550365807384167

>  <r_i_glide_esite>  (1) 
-0.080248139626984683

>  <r_i_glide_evdw>  (1) 
-39.132062468854208

>  <r_i_glide_gscore>  (1) 
-7.5646503240432681

>  <r_i_glide_gscore_strain>  (1) 
0

>  <r_i_glide_hbond>  (1) 
-0.2386706731025921

>  <r_i_glide_ligand_efficiency>  (1) 
-0.20278012113528185

>  <r_i_glide_ligand_efficiency_ln>  (1) 
-1.6271954140477767

>  <r_i_glide_ligand_efficiency_sa>  (1) 
-0.67570835072639968

>  <r_i_glide_lipo>  (1) 
-3.3383016906203253

>  <r_i_glide_metal>  (1) 
-0

>  <r_i_glide_rewards>  (1) 
-1.8856919613856382

>  <r_lp_Energy>  (1) 
29.690287999999999

>  <s_epik_Chemistry_Notes>  (1) 
This compound has an imine and may undergo hydrolysis.

>  <s_epik_cmdline>  (1) 
J2VwaWtfcHl0aG9uJywgJy1waHQnLCAnMS4wJywgJy1waCcsICc3LjQnLCAnLXRuJywgJzgnLCAnLW1hJywgJzUwMCcsICctaW1hZScsICc8aW5maWxlLm1hZT4nLCAnLW9tYWUnLCAnPG91dGZpbGUubWFlPic=

>  <s_epik_input>  (1) 
RkMoRikoRilDKD1PKVtDSDJdXFtDSF09W0NIXVxbQ0BIXTFPW0NASF0xW0NIMl1bQ0BIXTJbQ0BIXShbQ0gyXVtDSF09QzJbQ0gyXVtDSDNdKVtDQEhdKFtDSDNdKVtOSF1bQ0BASF0oW0NIMl1bQ0gyXVtPSF0pW0NAQEhdKFtPSF0pW0NAQEhdKE49W0NIXTMpW0NIMl1bQ0gyXVtDQEBdMyhbQ0gzXSlbT0hd

>  <s_glide_docking_method>  (1) 
confgen

>  <s_i_glide_gridfile>  (1) 
gpcr_5ht2c_6bqh_protein_autoprepared_prepared

>  <s_lp_Force_Field>  (1) 
S-OPLS

>  <s_lp_Variant>  (1) 
DiffSBDD_29_num_sample_50-1

>  <s_m_source_file>  (1) 
generated__ligand_DiffSBDD_2026-05-06_prepared.sdf

>  <GenAI_Model>  (1) 
DiffSBDD

>  <Protein>  (1) 
GPCR_5HT2C

$$$$
DiffSBDD_22_num_sample_50
     RDKit          3D

  0  0  0  0  0  0  0  0  0  0999 V3000
M  V30 BEGIN CTAB
M  V30 COUNTS 70 72 0 0 1
M  V30 BEGIN ATOM
M  V30 1 O 37.467434 29.220288 55.054228 0
M  V30 2 C 36.268329 38.477645 62.158353 0
M  V30 3 N 37.867603 30.814240 57.082452 0
M  V30 4 O 39.677365 30.494033 55.256471 0
M  V30 5 C 39.821913 26.525059 55.653036 0
M  V30 6 C 38.852499 34.815537 60.823195 0 CFG=2
M  V30 7 C 38.222361 27.787624 57.757982 0
M  V30 8 C 36.234005 33.874881 58.852574 0
M  V30 9 C 40.837175 32.775076 64.290838 0
M  V30 10 C 37.492385 33.501601 59.133240 0
M  V30 11 C 41.111305 34.070659 63.803758 0
M  V30 12 C 41.711645 35.026463 64.651429 0
M  V30 13 C 39.902977 37.330971 62.644988 0
M  V30 14 C 41.156983 32.439167 65.620555 0
M  V30 15 N 38.667412 31.592161 57.931704 0
M  V30 16 F 38.405074 24.653997 55.806770 0
M  V30 17 C 38.267205 33.674234 56.664972 0
M  V30 18 C 40.314375 27.746692 56.448080 0
M  V30 19 C 41.751174 33.396190 66.465458 0
M  V30 20 Cl 42.141180 32.984600 68.095242 0
M  V30 21 C 38.028789 33.525817 60.560133 0 CFG=1
M  V30 22 C 38.969448 36.114002 62.875837 0 CFG=2
M  V30 23 S 38.544373 29.789337 55.876314 0
M  V30 24 C 42.027895 34.688800 65.980038 0
M  V30 25 C 40.758108 34.433417 62.369942 0
M  V30 26 N 39.175648 28.553384 56.926463 0
M  V30 27 C 38.886376 25.671183 56.518813 0
M  V30 28 O 37.083277 37.621579 62.950605 0
M  V30 29 N 39.366275 34.873203 62.199970 0
M  V30 30 C 38.716203 32.206254 60.957733 0
M  V30 31 S 37.763203 36.272858 60.604238 0
M  V30 32 C 37.546261 36.411222 62.380100 0 CFG=1
M  V30 33 C 38.473933 33.034580 58.051713 0 CFG=1
M  V30 34 C 37.721119 26.524946 57.030754 0
M  V30 35 H 35.981405 39.341802 62.757135 0
M  V30 36 H 36.814547 38.855418 61.293514 0
M  V30 37 H 35.347202 38.021697 61.812587 0
M  V30 38 H 36.905337 31.167205 56.934687 0
M  V30 39 H 40.669800 25.927795 55.318078 0
M  V30 40 H 39.299561 26.856933 54.754441 0
M  V30 41 H 39.673442 34.900307 60.110494 0
M  V30 42 H 38.720102 27.508285 58.687147 0
M  V30 43 H 37.378555 28.417296 58.040157 0
M  V30 44 H 35.561976 34.201725 59.632275 0
M  V30 45 H 35.864409 33.860145 57.852604 0
M  V30 46 H 40.380775 32.040014 63.646316 0
M  V30 47 H 41.928251 36.018265 64.285581 0
M  V30 48 H 39.729407 38.072545 63.419240 0
M  V30 49 H 40.959253 37.092573 62.710235 0
M  V30 50 H 39.753470 37.819297 61.683874 0
M  V30 51 H 40.945595 31.447274 65.992748 0
M  V30 52 H 38.776150 31.150371 58.841895 0
M  V30 53 H 38.044617 34.735440 56.731763 0
M  V30 54 H 39.160341 33.560237 56.051054 0
M  V30 55 H 37.465426 33.206530 56.106276 0
M  V30 56 H 40.985223 28.364909 55.853428 0
M  V30 57 H 40.896088 27.414370 57.309319 0
M  V30 58 H 37.153354 33.588313 61.208297 0
M  V30 59 H 38.951149 35.949527 63.950965 0
M  V30 60 H 42.483768 35.422423 66.627135 0
M  V30 61 H 40.937367 33.543388 61.768184 0
M  V30 62 H 41.458031 35.172233 61.982213 0
M  V30 63 H 39.436292 25.235279 57.354162 0
M  V30 64 H 38.096904 31.348295 60.695317 0
M  V30 65 H 39.685678 32.088318 60.475250 0
M  V30 66 H 38.866969 32.159091 62.033888 0
M  V30 67 H 36.845650 35.621796 62.653429 0
M  V30 68 H 39.433701 33.423695 58.391017 0
M  V30 69 H 37.093807 25.937694 57.702204 0
M  V30 70 H 37.088413 26.805923 56.188939 0
M  V30 END ATOM
M  V30 BEGIN BOND
M  V30 1 2 10 8
M  V30 2 1 11 9
M  V30 3 2 12 11
M  V30 4 2 14 9
M  V30 5 1 15 3
M  V30 6 1 18 5
M  V30 7 1 19 14
M  V30 8 1 20 19
M  V30 9 1 21 6
M  V30 10 1 21 10
M  V30 11 1 22 13
M  V30 12 2 23 1
M  V30 13 1 23 3
M  V30 14 2 23 4
M  V30 15 1 24 12
M  V30 16 2 24 19
M  V30 17 1 25 11
M  V30 18 1 26 7
M  V30 19 1 26 18
M  V30 20 1 26 23
M  V30 21 1 27 5
M  V30 22 1 27 16
M  V30 23 1 28 2
M  V30 24 1 29 6
M  V30 25 1 29 22
M  V30 26 1 29 25
M  V30 27 1 30 21
M  V30 28 1 31 6
M  V30 29 1 32 22
M  V30 30 1 32 28
M  V30 31 1 32 31
M  V30 32 1 33 10
M  V30 33 1 33 15
M  V30 34 1 33 17
M  V30 35 1 34 7
M  V30 36 1 34 27
M  V30 37 1 35 2
M  V30 38 1 36 2
M  V30 39 1 37 2
M  V30 40 1 38 3
M  V30 41 1 39 5
M  V30 42 1 40 5
M  V30 43 1 6 41 CFG=3
M  V30 44 1 42 7
M  V30 45 1 43 7
M  V30 46 1 44 8
M  V30 47 1 45 8
M  V30 48 1 46 9
M  V30 49 1 47 12
M  V30 50 1 48 13
M  V30 51 1 49 13
M  V30 52 1 50 13
M  V30 53 1 51 14
M  V30 54 1 52 15
M  V30 55 1 53 17
M  V30 56 1 54 17
M  V30 57 1 55 17
M  V30 58 1 56 18
M  V30 59 1 57 18
M  V30 60 1 21 58 CFG=1
M  V30 61 1 22 59 CFG=1
M  V30 62 1 60 24
M  V30 63 1 61 25
M  V30 64 1 62 25
M  V30 65 1 63 27
M  V30 66 1 64 30
M  V30 67 1 65 30
M  V30 68 1 66 30
M  V30 69 1 32 67 CFG=1
M  V30 70 1 33 68 CFG=1
M  V30 71 1 69 34
M  V30 72 1 70 34
M  V30 END BOND
M  V30 END CTAB
M  END
>  <i_epik_Tot_Q>  (1) 
0

>  <i_epik_Tot_abs_Q>  (1) 
0

>  <i_i_glide_confnum>  (1) 
1214

>  <i_i_glide_lignum>  (1) 
61

>  <i_i_glide_posenum>  (1) 
159

>  <i_i_glide_rotatable_bonds>  (1) 
10

>  <i_lp_mmshare_version>  (1) 
72125

>  <i_m_source_file_index>  (1) 
23

>  <i_f3d_flags>  (1) 
0

>  <num_sample>  (1) 
50

>  <b_lp_Chiralities_Consistent>  (1) 
1

>  <r_epik_Charging_Adjusted_Penalty>  (1) 
0.021675413420737664

>  <r_epik_Ionization_Penalty>  (1) 
0.0077503222149327006

>  <r_epik_Ionization_Penalty_Charging>  (1) 
0

>  <r_epik_Ionization_Penalty_Neutral>  (1) 
0.0077503222149327006

>  <r_epik_State_Penalty>  (1) 
0.021675413420737664

>  <r_glide_ring_energy>  (1) 
0

>  <r_i_docking_score>  (1) 
-7.4968572243700917

>  <r_i_glide_ecoul>  (1) 
-5.5326796724120184

>  <r_i_glide_eff_state_penalty>  (1) 
0.021675413420737664

>  <r_i_glide_einternal>  (1) 
14.00530279330917

>  <r_i_glide_emodel>  (1) 
-60.170051440731832

>  <r_i_glide_emodel_strain>  (1) 
5.6535164965850768

>  <r_i_glide_energy>  (1) 
-52.463328939974531

>  <r_i_glide_erotb>  (1) 
0.57664372935484776

>  <r_i_glide_esite>  (1) 
-0.10050432686099001

>  <r_i_glide_evdw>  (1) 
-46.930649267562515

>  <r_i_glide_gscore>  (1) 
-7.5185326377908295

>  <r_i_glide_gscore_strain>  (1) 
0.41337912414626921

>  <r_i_glide_hbond>  (1) 
-0.16

>  <r_i_glide_ligand_efficiency>  (1) 
-0.22049580071676741

>  <r_i_glide_ligand_efficiency_ln>  (1) 
-1.656266040585848

>  <r_i_glide_ligand_efficiency_sa>  (1) 
-0.71432079813416793

>  <r_i_glide_lipo>  (1) 
-4.165966829593259

>  <r_i_glide_metal>  (1) 
-0

>  <r_i_glide_rewards>  (1) 
-0.90564992059776772

>  <r_lp_Energy>  (1) 
18.856047999999998

>  <s_epik_Chemistry_Notes>  (1) 
This compound contains an acetal/aminal-like group ( X-CH(R)-Y where X, Y are N, S, or O) that may be acid/base labile, releasing an aldehyde.

>  <s_epik_cmdline>  (1) 
J2VwaWtfcHl0aG9uJywgJy1waHQnLCAnMS4wJywgJy1waCcsICc3LjQnLCAnLXRuJywgJzgnLCAnLW1hJywgJzUwMCcsICctaW1hZScsICc8aW5maWxlLm1hZT4nLCAnLW9tYWUnLCAnPG91dGZpbGUubWFlPic=

>  <s_epik_input>  (1) 
W0NIMl0xW0NIMl1bQ0hdKEYpW0NIMl1bQ0gyXU4xUyg9TykoPU8pW05IXVtOSF1bQ0BASF0oW0NIM10pQyg9W0NIMl0pW0NAQEhdKFtDSDNdKVtDQEBIXTJOKFtDQEBIXShbQ0gzXSlbQ0BIXShTMilPW0NIM10pW0NIMl1jM1tjSF1bY0hdYyhDbClbY0hdW2NIXTM=

>  <s_glide_docking_method>  (1) 
confgen

>  <s_i_glide_gridfile>  (1) 
gpcr_5ht2c_6bqh_protein_autoprepared_prepared

>  <s_lp_Force_Field>  (1) 
S-OPLS

>  <s_lp_Variant>  (1) 
DiffSBDD_22_num_sample_50-1

>  <s_m_source_file>  (1) 
generated__ligand_DiffSBDD_2026-05-06_prepared.sdf

>  <GenAI_Model>  (1) 
DiffSBDD

>  <Protein>  (1) 
GPCR_5HT2C

$$$$
DiffSBDD_6_num_sample_50
     RDKit          3D

  0  0  0  0  0  0  0  0  0  0999 V3000
M  V30 BEGIN CTAB
M  V30 COUNTS 65 68 0 0 1
M  V30 BEGIN ATOM
M  V30 1 N 38.706731 35.399579 61.760323 0
M  V30 2 N 39.359694 32.917203 62.603922 0
M  V30 3 C 39.867827 31.791740 62.947745 0
M  V30 4 C 37.789867 39.033107 61.054301 0
M  V30 5 C 37.554927 26.094476 54.971927 0
M  V30 6 N 39.067397 30.824191 59.895873 0
M  V30 7 N 39.537667 30.691366 62.255998 0
M  V30 8 N 37.096993 30.432100 58.442892 0
M  V30 9 C 37.066076 35.458231 59.965128 0
M  V30 10 C 37.488218 24.074653 56.922117 0
M  V30 11 N 38.014201 33.267863 60.708993 0 CHG=1
M  V30 12 O 38.468056 27.605261 56.584141 0
M  V30 13 C 40.567116 29.389182 58.942847 0
M  V30 14 C 43.338965 28.421568 57.658073 0
M  V30 15 F 37.464749 23.104864 57.854905 0
M  V30 16 C 38.584200 30.949176 61.244521 0 CFG=1
M  V30 17 C 38.015333 26.359170 56.269883 0
M  V30 18 C 39.539134 37.398044 62.863585 0
M  V30 19 C 41.929631 27.859960 57.452224 0
M  V30 20 F 37.576483 27.069529 54.032113 0
M  V30 21 C 37.054887 24.824717 54.652838 0
M  V30 22 C 37.367299 32.650184 59.493163 0
M  V30 23 C 38.649267 36.745198 61.817344 0
M  V30 24 C 37.018147 23.814462 55.624486 0
M  V30 25 C 37.014019 36.855272 60.035034 0
M  V30 26 C 41.057112 27.959816 58.712970 0
M  V30 27 C 38.100801 31.383283 58.921390 0 CFG=1
M  V30 28 C 37.819435 37.518676 60.969061 0
M  V30 29 O 39.353704 29.436796 59.672972 0
M  V30 30 F 38.434087 25.588638 58.501759 0
M  V30 31 C 37.580645 29.707562 57.274890 0
M  V30 32 C 37.986742 25.342405 57.247571 0
M  V30 33 C 38.634591 32.443474 61.526481 0
M  V30 34 C 37.663212 28.214780 57.575705 0
M  V30 35 C 37.941223 34.759168 60.839568 0
M  V30 36 H 40.563167 31.660211 63.778355 0
M  V30 37 H 39.828220 29.742126 62.444576 0
M  V30 38 H 37.468353 39.449540 60.105413 0
M  V30 39 H 38.768559 39.470745 61.236266 0
M  V30 40 H 37.069210 39.351853 61.811197 0
M  V30 41 H 36.319610 30.983079 58.058506 0
M  V30 42 H 36.447247 34.941397 59.253023 0
M  V30 43 H 40.398232 29.864058 57.977185 0
M  V30 44 H 41.347689 29.949084 59.459553 0
M  V30 45 H 43.815261 28.687905 56.716525 0
M  V30 46 H 43.961901 27.688609 58.169718 0
M  V30 47 H 43.318108 29.331621 58.253225 0
M  V30 48 H 40.015388 38.306372 62.511767 0
M  V30 49 H 40.346109 36.727246 63.156824 0
M  V30 50 H 38.959822 37.621993 63.758171 0
M  V30 51 H 41.440327 28.368024 56.620130 0
M  V30 52 H 42.003187 26.822117 57.140791 0
M  V30 53 H 36.679545 24.629802 53.659855 0
M  V30 54 H 37.400726 33.357293 58.667007 0
M  V30 55 H 36.327947 32.455083 59.760098 0
M  V30 56 H 36.629687 22.838110 55.375075 0
M  V30 57 H 36.365277 37.410520 59.376646 0
M  V30 58 H 40.209428 27.290330 58.599530 0
M  V30 59 H 41.600724 27.621347 59.594587 0
M  V30 60 H 38.697053 31.739222 58.079122 0
M  V30 61 H 36.890085 29.878832 56.448033 0
M  V30 62 H 38.542675 30.073375 56.919462 0
M  V30 63 H 36.667403 27.790421 57.608478 0
M  V30 64 H 38.061048 27.986692 58.555529 0
M  V30 65 H 37.603069 30.513637 61.433203 0
M  V30 END ATOM
M  V30 BEGIN BOND
M  V30 1 2 3 2
M  V30 2 1 7 3
M  V30 3 1 15 10
M  V30 4 1 16 6
M  V30 5 1 16 7
M  V30 6 2 17 5
M  V30 7 1 17 12
M  V30 8 1 19 14
M  V30 9 1 20 5
M  V30 10 1 21 5
M  V30 11 1 22 11
M  V30 12 1 23 1
M  V30 13 1 23 18
M  V30 14 1 24 10
M  V30 15 2 24 21
M  V30 16 2 25 9
M  V30 17 1 26 13
M  V30 18 1 26 19
M  V30 19 1 27 6
M  V30 20 1 27 8
M  V30 21 1 27 22
M  V30 22 1 28 4
M  V30 23 2 28 23
M  V30 24 1 28 25
M  V30 25 1 29 6
M  V30 26 1 29 13
M  V30 27 1 31 8
M  V30 28 2 32 10
M  V30 29 1 32 17
M  V30 30 1 32 30
M  V30 31 1 33 2
M  V30 32 2 33 11
M  V30 33 1 33 16
M  V30 34 1 34 12
M  V30 35 1 34 31
M  V30 36 2 35 1
M  V30 37 1 35 9
M  V30 38 1 35 11
M  V30 39 1 36 3
M  V30 40 1 37 7
M  V30 41 1 38 4
M  V30 42 1 39 4
M  V30 43 1 40 4
M  V30 44 1 41 8
M  V30 45 1 42 9
M  V30 46 1 43 13
M  V30 47 1 44 13
M  V30 48 1 45 14
M  V30 49 1 46 14
M  V30 50 1 47 14
M  V30 51 1 48 18
M  V30 52 1 49 18
M  V30 53 1 50 18
M  V30 54 1 51 19
M  V30 55 1 52 19
M  V30 56 1 53 21
M  V30 57 1 54 22
M  V30 58 1 55 22
M  V30 59 1 56 24
M  V30 60 1 57 25
M  V30 61 1 58 26
M  V30 62 1 59 26
M  V30 63 1 27 60 CFG=3
M  V30 64 1 61 31
M  V30 65 1 62 31
M  V30 66 1 63 34
M  V30 67 1 64 34
M  V30 68 1 16 65 CFG=3
M  V30 END BOND
M  V30 END CTAB
M  END
>  <i_epik_Tot_Q>  (1) 
1

>  <i_epik_Tot_abs_Q>  (1) 
1

>  <i_i_glide_confnum>  (1) 
368

>  <i_i_glide_lignum>  (1) 
21

>  <i_i_glide_posenum>  (1) 
180

>  <i_i_glide_rotatable_bonds>  (1) 
10

>  <i_lp_mmshare_version>  (1) 
72125

>  <i_m_source_file_index>  (1) 
7

>  <i_f3d_flags>  (1) 
0

>  <num_sample>  (1) 
50

>  <b_lp_Chiralities_Consistent>  (1) 
1

>  <r_epik_Charging_Adjusted_Penalty>  (1) 
0.81638474559902796

>  <r_epik_Ionization_Penalty>  (1) 
6.3086919552564762

>  <r_epik_Ionization_Penalty_Charging>  (1) 
0

>  <r_epik_Ionization_Penalty_Neutral>  (1) 
6.3086919552564762

>  <r_epik_State_Penalty>  (1) 
0.81638474559902796

>  <r_glide_ring_energy>  (1) 
0

>  <r_i_docking_score>  (1) 
-7.4832514117841979

>  <r_i_glide_ecoul>  (1) 
-5.0604431250979767

>  <r_i_glide_eff_state_penalty>  (1) 
0.81638474559902796

>  <r_i_glide_einternal>  (1) 
28.64164802196359

>  <r_i_glide_emodel>  (1) 
-51.641958429344655

>  <r_i_glide_emodel_strain>  (1) 
2.3072056905205613

>  <r_i_glide_energy>  (1) 
-44.223199761732182

>  <r_i_glide_erotb>  (1) 
0.67408029721787976

>  <r_i_glide_esite>  (1) 
-0.050816111395201591

>  <r_i_glide_evdw>  (1) 
-39.162756636634207

>  <r_i_glide_gscore>  (1) 
-8.299636157383226

>  <r_i_glide_gscore_strain>  (1) 
0

>  <r_i_glide_hbond>  (1) 
-0.16

>  <r_i_glide_ligand_efficiency>  (1) 
-0.21380718319383424

>  <r_i_glide_ligand_efficiency_ln>  (1) 
-1.6427397667034647

>  <r_i_glide_ligand_efficiency_sa>  (1) 
-0.69937747382167126

>  <r_i_glide_lipo>  (1) 
-4.0382721861586228

>  <r_i_glide_metal>  (1) 
-0

>  <r_i_glide_rewards>  (1) 
-2.0074238564508748

>  <r_lp_Energy>  (1) 
46.442794999999997

>  <r_lp_tautomer_probability>  (1) 
0.23620936778007409

>  <s_epik_Chemistry_Notes>  (1) 
This compound has an imine and may undergo hydrolysis. This compound contains an acetal/aminal-like group ( X-CH(R)-Y where X, Y are N, S, or O) that may be acid/base labile, releasing an aldehyde. This compound has a N-S or N-O group and may undergo hydrolysis at high or low pH.

>  <s_epik_cmdline>  (1) 
J2VwaWtfcHl0aG9uJywgJy1waHQnLCAnMS4wJywgJy1waCcsICc3LjQnLCAnLXRuJywgJzgnLCAnLW1hJywgJzUwMCcsICctaW1hZScsICc8aW5maWxlLm1hZT4nLCAnLW9tYWUnLCAnPG91dGZpbGUubWFlPic=

>  <s_epik_input>  (1) 
W0NIM11jMVtjSF1bY0hdYyhuYzFbQ0gzXSlOKEMoQzIzKT1OW0NIMl1OPTMpW0NIMl1bQ0BASF0oTjJPW0NIMl1bQ0gyXVtDSDJdW0NIM10pW05IXVtDSDJdW0NIMl1PYyhjNEYpYyhGKWMoRilbY0hdW2NIXTQ=

>  <s_glide_docking_method>  (1) 
confgen

>  <s_i_glide_gridfile>  (1) 
gpcr_5ht2c_6bqh_protein_autoprepared_prepared

>  <s_lp_Force_Field>  (1) 
S-OPLS

>  <s_lp_Variant>  (1) 
DiffSBDD_6_num_sample_50-2

>  <s_m_source_file>  (1) 
generated__ligand_DiffSBDD_2026-05-06_prepared.sdf

>  <GenAI_Model>  (1) 
DiffSBDD

>  <Protein>  (1) 
GPCR_5HT2C

$$$$
DiffSBDD_37_num_sample_50
     RDKit          3D

  0  0  0  0  0  0  0  0  0  0999 V3000
M  V30 BEGIN CTAB
M  V30 COUNTS 62 64 0 0 1
M  V30 BEGIN ATOM
M  V30 1 C 38.685073 27.781995 54.303898 0
M  V30 2 F 40.281193 30.559696 50.688993 0
M  V30 3 C 37.231373 33.302691 59.943720 0
M  V30 4 C 38.211309 27.272184 57.206774 0
M  V30 5 C 38.099205 26.448847 54.756596 0
M  V30 6 N 39.568183 29.455692 51.101030 0
M  V30 7 C 40.091900 32.804223 62.458310 0 CFG=1
M  V30 8 C 38.402209 29.787821 57.509998 0
M  V30 9 C 41.397372 33.185690 63.140731 0
M  V30 10 C 39.614073 30.008944 54.771845 0
M  V30 11 C 39.079057 28.783344 55.246750 0
M  V30 12 C 38.962105 28.544509 56.771376 0 CFG=2
M  V30 13 S 38.808694 25.851088 56.297709 0
M  V30 14 O 41.197149 34.181111 64.122357 0
M  V30 15 C 39.388841 29.241326 52.468828 0
M  V30 16 C 39.503792 35.184978 61.399665 0
M  V30 17 C 39.761256 30.235077 53.393375 0
M  V30 18 C 39.183295 33.717839 61.630610 0 CFG=1
M  V30 19 C 36.092263 30.302593 59.602343 0
M  V30 20 C 39.973561 28.358321 60.447894 0
M  V30 21 C 37.571886 30.713703 59.671140 0 CFG=2
M  V30 22 C 39.793622 29.610967 59.583357 0
M  V30 23 C 38.844255 28.023089 52.924137 0
M  V30 24 F 39.467323 28.383414 50.253499 0
M  V30 25 C 37.830257 32.147324 59.125400 0
M  V30 26 O 40.131511 32.821837 61.033942 0
M  V30 27 N 38.423393 29.688811 58.997546 0 CFG=2 CHG=1
M  V30 28 O 39.488900 31.642816 62.989936 0
M  V30 29 C 37.696370 33.408413 61.408162 0
M  V30 30 H 36.144529 33.214399 59.928447 0
M  V30 31 H 37.447503 34.241416 59.432649 0
M  V30 32 H 38.348947 27.068690 58.266591 0
M  V30 33 H 37.137906 27.365513 57.053555 0
M  V30 34 H 37.020450 26.550885 54.861346 0
M  V30 35 H 38.266497 25.695204 53.987970 0
M  V30 36 H 37.385485 29.965773 57.157111 0
M  V30 37 H 38.970830 30.679235 57.260355 0
M  V30 38 H 42.095932 33.571097 62.398316 0
M  V30 39 H 41.862542 32.306915 63.588872 0
M  V30 40 H 39.926279 30.772064 55.464816 0
M  V30 41 H 39.998288 28.400589 57.076383 0
M  V30 42 H 40.905521 34.978323 63.705525 0
M  V30 43 H 38.942240 35.810764 62.093671 0
M  V30 44 H 40.566318 35.380529 61.541981 0
M  V30 45 H 39.247367 35.474793 60.380945 0
M  V30 46 H 40.178179 31.169689 53.044936 0
M  V30 47 H 35.483740 30.893280 60.287726 0
M  V30 48 H 35.670749 30.421617 58.609661 0
M  V30 49 H 35.961913 29.252486 59.853501 0
M  V30 50 H 40.955967 28.355649 60.921333 0
M  V30 51 H 39.225980 28.306399 61.240560 0
M  V30 52 H 39.908206 27.448043 59.853503 0
M  V30 53 H 37.835198 30.681776 60.728781 0
M  V30 54 H 40.562740 29.621410 58.811885 0
M  V30 55 H 40.001344 30.484220 60.198793 0
M  V30 56 H 38.553839 27.263968 52.210974 0
M  V30 57 H 37.426572 32.232598 58.115879 0
M  V30 58 H 38.898676 32.319952 59.008976 0
M  V30 59 H 40.164587 31.012404 63.187502 0
M  V30 60 H 37.401694 32.517404 61.958279 0
M  V30 61 H 37.119783 34.216516 61.853503 0
M  V30 62 H 37.990975 28.804167 59.218608 0
M  V30 END ATOM
M  V30 BEGIN BOND
M  V30 1 1 5 1
M  V30 2 1 6 2
M  V30 3 1 9 7
M  V30 4 2 11 1
M  V30 5 1 11 10
M  V30 6 1 12 4
M  V30 7 1 12 8
M  V30 8 1 12 11
M  V30 9 1 13 4
M  V30 10 1 13 5
M  V30 11 1 14 9
M  V30 12 1 15 6
M  V30 13 2 17 10
M  V30 14 1 17 15
M  V30 15 1 18 7
M  V30 16 1 18 16 CFG=1
M  V30 17 1 21 19
M  V30 18 1 22 20
M  V30 19 1 23 1
M  V30 20 2 23 15
M  V30 21 1 24 6
M  V30 22 1 25 3
M  V30 23 1 25 21
M  V30 24 1 26 7
M  V30 25 1 26 18
M  V30 26 1 27 8
M  V30 27 1 27 21
M  V30 28 1 27 22
M  V30 29 1 7 28 CFG=3
M  V30 30 1 29 3
M  V30 31 1 29 18
M  V30 32 1 30 3
M  V30 33 1 31 3
M  V30 34 1 32 4
M  V30 35 1 33 4
M  V30 36 1 34 5
M  V30 37 1 35 5
M  V30 38 1 36 8
M  V30 39 1 37 8
M  V30 40 1 38 9
M  V30 41 1 39 9
M  V30 42 1 40 10
M  V30 43 1 12 41 CFG=1
M  V30 44 1 42 14
M  V30 45 1 43 16
M  V30 46 1 44 16
M  V30 47 1 45 16
M  V30 48 1 46 17
M  V30 49 1 47 19
M  V30 50 1 48 19
M  V30 51 1 49 19
M  V30 52 1 50 20
M  V30 53 1 51 20
M  V30 54 1 52 20
M  V30 55 1 21 53 CFG=1
M  V30 56 1 54 22
M  V30 57 1 55 22
M  V30 58 1 56 23
M  V30 59 1 57 25
M  V30 60 1 58 25
M  V30 61 1 59 28
M  V30 62 1 60 29
M  V30 63 1 61 29
M  V30 64 1 27 62 CFG=3
M  V30 END BOND
M  V30 END CTAB
M  END
>  <i_epik_Tot_Q>  (1) 
1

>  <i_epik_Tot_abs_Q>  (1) 
1

>  <i_i_glide_confnum>  (1) 
1415

>  <i_i_glide_lignum>  (1) 
91

>  <i_i_glide_posenum>  (1) 
260

>  <i_i_glide_rotatable_bonds>  (1) 
12

>  <i_lp_mmshare_version>  (1) 
72125

>  <i_m_source_file_index>  (1) 
38

>  <i_f3d_flags>  (1) 
0

>  <num_sample>  (1) 
50

>  <b_lp_Chiralities_Consistent>  (1) 
1

>  <r_epik_Charging_Adjusted_Penalty>  (1) 
0.031037112904587178

>  <r_epik_Ionization_Penalty>  (1) 
0.015538636701717824

>  <r_epik_Ionization_Penalty_Charging>  (1) 
0.015518556452293627

>  <r_epik_Ionization_Penalty_Neutral>  (1) 
2.0080249424197063e-05

>  <r_epik_State_Penalty>  (1) 
0.015518556452293551

>  <r_glide_ring_energy>  (1) 
0

>  <r_i_docking_score>  (1) 
-7.4736260023716765

>  <r_i_glide_ecoul>  (1) 
-0.52795910731995166

>  <r_i_glide_eff_state_penalty>  (1) 
0.015518556452293551

>  <r_i_glide_einternal>  (1) 
5.4119499679817906

>  <r_i_glide_emodel>  (1) 
-62.070625988419529

>  <r_i_glide_emodel_strain>  (1) 
0.66303515547857472

>  <r_i_glide_energy>  (1) 
-41.597768239931206

>  <r_i_glide_erotb>  (1) 
0.85436837262661747

>  <r_i_glide_esite>  (1) 
0

>  <r_i_glide_evdw>  (1) 
-41.069809132611255

>  <r_i_glide_gscore>  (1) 
-7.4891445588239698

>  <r_i_glide_gscore_strain>  (1) 
0

>  <r_i_glide_hbond>  (1) 
0

>  <r_i_glide_ligand_efficiency>  (1) 
-0.25771124146109231

>  <r_i_glide_ligand_efficiency_ln>  (1) 
-1.7112708397394785

>  <r_i_glide_ligand_efficiency_sa>  (1) 
-0.79177058330930217

>  <r_i_glide_lipo>  (1) 
-3.5329230313319759

>  <r_i_glide_metal>  (1) 
-0

>  <r_i_glide_rewards>  (1) 
-2.6779055773900562

>  <r_lp_Energy>  (1) 
43.254267999999996

>  <s_epik_cmdline>  (1) 
J2VwaWtfcHl0aG9uJywgJy1waHQnLCAnMS4wJywgJy1waCcsICc3LjQnLCAnLXRuJywgJzgnLCAnLW1hJywgJzUwMCcsICctaW1hZScsICc8aW5maWxlLm1hZT4nLCAnLW9tYWUnLCAnPG91dGZpbGUubWFlPic=

>  <s_epik_input>  (1) 
Rk4oRiljKFtjSF0xKVtjSF1bY0hdYyhjMTIpW0NASF0oW0NIMl1TW0NIMl0yKVtDSDJdTihbQ0gyXVtDSDNdKVtDQEhdKFtDSDNdKVtDSDJdW0NIMl1bQ0gyXVtDQEBdKE8zKShbQ0gzXSlDMyhbT0hdKVtDSDJdW09IXQ==

>  <s_glide_docking_method>  (1) 
confgen

>  <s_i_glide_gridfile>  (1) 
gpcr_5ht2c_6bqh_protein_autoprepared_prepared

>  <s_lp_Force_Field>  (1) 
S-OPLS

>  <s_lp_Variant>  (1) 
DiffSBDD_37_num_sample_50-1

>  <s_m_source_file>  (1) 
generated__ligand_DiffSBDD_2026-05-06_prepared.sdf

>  <GenAI_Model>  (1) 
DiffSBDD

>  <Protein>  (1) 
GPCR_5HT2C

$$$$
DiffSBDD_42_num_sample_50
     RDKit          3D

  0  0  0  0  0  0  0  0  0  0999 V3000
M  V30 BEGIN CTAB
M  V30 COUNTS 35 37 0 0 1
M  V30 BEGIN ATOM
M  V30 1 C 40.108768 25.580032 56.762978 0
M  V30 2 F 40.239962 30.068128 50.248149 0
M  V30 3 C 39.911066 30.606228 52.593257 0
M  V30 4 O 38.524737 29.336661 59.875129 0 CHG=-1
M  V30 5 C 39.749472 29.223346 59.653564 0
M  V30 6 C 39.115867 28.463168 51.651657 0
M  V30 7 O 40.667404 29.621432 60.402331 0
M  V30 8 C 38.658614 28.172893 52.930891 0
M  V30 9 C 38.898995 26.463255 56.659600 0 CFG=1
M  V30 10 C 39.413650 30.209004 53.872887 0
M  V30 11 O 39.199561 25.475286 55.662676 0
M  V30 12 S 37.867833 26.821433 53.454424 0
M  V30 13 C 40.164309 28.529826 58.351935 0
M  V30 14 C 38.204886 28.256503 55.081060 0 CFG=1
M  V30 15 C 39.767198 29.714363 51.467035 0
M  V30 16 C 37.643141 26.279774 57.497704 0
M  V30 17 N 39.161597 27.807234 56.121734 0
M  V30 18 C 39.171773 28.816712 57.190104 0
M  V30 19 C 37.203340 24.827491 57.694460 0
M  V30 20 F 38.950293 27.594310 50.626780 0
M  V30 21 C 38.799400 28.960054 53.945639 0
M  V30 22 H 41.067400 26.021462 56.511133 0
M  V30 23 H 40.106914 24.732263 57.443568 0
M  V30 24 H 40.397171 31.562505 52.470887 0
M  V30 25 H 39.510653 30.845100 54.740600 0
M  V30 26 H 40.215708 27.475664 58.612846 0
M  V30 27 H 41.175311 28.823480 58.069565 0
M  V30 28 H 37.294746 28.714707 55.462169 0
M  V30 29 H 37.838237 26.727681 58.471645 0
M  V30 30 H 36.816526 26.821532 57.053159 0
M  V30 31 H 39.426861 29.784741 56.759167 0
M  V30 32 H 38.151851 28.924785 57.561225 0
M  V30 33 H 36.270215 24.821421 58.253574 0
M  V30 34 H 37.026388 24.332652 56.739244 0
M  V30 35 H 37.932371 24.242945 58.253134 0
M  V30 END ATOM
M  V30 BEGIN BOND
M  V30 1 1 5 4
M  V30 2 2 7 5
M  V30 3 1 8 6
M  V30 4 1 9 1
M  V30 5 2 10 3
M  V30 6 1 11 1
M  V30 7 1 11 9
M  V30 8 1 12 8
M  V30 9 1 13 5
M  V30 10 1 14 12
M  V30 11 1 15 2
M  V30 12 1 15 3
M  V30 13 2 15 6
M  V30 14 1 16 9
M  V30 15 1 9 17 CFG=3
M  V30 16 1 17 14
M  V30 17 1 18 13
M  V30 18 1 18 17
M  V30 19 1 19 16
M  V30 20 1 20 6
M  V30 21 2 21 8
M  V30 22 1 21 10
M  V30 23 1 21 14
M  V30 24 1 22 1
M  V30 25 1 23 1
M  V30 26 1 24 3
M  V30 27 1 25 10
M  V30 28 1 26 13
M  V30 29 1 27 13
M  V30 30 1 14 28 CFG=1
M  V30 31 1 29 16
M  V30 32 1 30 16
M  V30 33 1 31 18
M  V30 34 1 32 18
M  V30 35 1 33 19
M  V30 36 1 34 19
M  V30 37 1 35 19
M  V30 END BOND
M  V30 END CTAB
M  END
>  <i_epik_Tot_Q>  (1) 
-1

>  <i_epik_Tot_abs_Q>  (1) 
1

>  <i_i_glide_confnum>  (1) 
74

>  <i_i_glide_lignum>  (1) 
100

>  <i_i_glide_posenum>  (1) 
235

>  <i_i_glide_rotatable_bonds>  (1) 
6

>  <i_lp_mmshare_version>  (1) 
72125

>  <i_m_source_file_index>  (1) 
43

>  <i_f3d_flags>  (1) 
0

>  <num_sample>  (1) 
50

>  <b_lp_Chiralities_Consistent>  (1) 
1

>  <r_epik_Charging_Adjusted_Penalty>  (1) 
0.013340690829019033

>  <r_epik_Ionization_Penalty>  (1) 
0.013340690850919951

>  <r_epik_Ionization_Penalty_Charging>  (1) 
0.00047956300676926659

>  <r_epik_Ionization_Penalty_Neutral>  (1) 
0.012861127844150685

>  <r_epik_State_Penalty>  (1) 
0.012861127822249767

>  <r_glide_ring_energy>  (1) 
0

>  <r_i_docking_score>  (1) 
-7.46812315060816

>  <r_i_glide_ecoul>  (1) 
-1.3339838766019889

>  <r_i_glide_eff_state_penalty>  (1) 
0.012861127822249767

>  <r_i_glide_einternal>  (1) 
10.244078658298575

>  <r_i_glide_emodel>  (1) 
-40.82559488101095

>  <r_i_glide_emodel_strain>  (1) 
1.4321947718194394

>  <r_i_glide_energy>  (1) 
-30.719954958915395

>  <r_i_glide_erotb>  (1) 
0.75246386740588744

>  <r_i_glide_esite>  (1) 
0

>  <r_i_glide_evdw>  (1) 
-29.385971082313407

>  <r_i_glide_gscore>  (1) 
-7.4809842784304097

>  <r_i_glide_gscore_strain>  (1) 
0

>  <r_i_glide_hbond>  (1) 
-0.077461590369850827

>  <r_i_glide_ligand_efficiency>  (1) 
-0.35562491193372192

>  <r_i_glide_ligand_efficiency_ln>  (1) 
-1.8464783582241198

>  <r_i_glide_ligand_efficiency_sa>  (1) 
-0.98114216725735237

>  <r_i_glide_lipo>  (1) 
-3.3984113439995167

>  <r_i_glide_metal>  (1) 
-0

>  <r_i_glide_rewards>  (1) 
-3.0881790758609586

>  <r_lp_Energy>  (1) 
21.586687999999999

>  <s_epik_Chemistry_Notes>  (1) 
This compound contains an acetal/aminal-like group ( X-CH(R)-Y where X, Y are N, S, or O) that may be acid/base labile, releasing an aldehyde.

>  <s_epik_cmdline>  (1) 
J2VwaWtfcHl0aG9uJywgJy1waHQnLCAnMS4wJywgJy1waCcsICc3LjQnLCAnLXRuJywgJzgnLCAnLW1hJywgJzUwMCcsICctaW1hZScsICc8aW5maWxlLm1hZT4nLCAnLW9tYWUnLCAnPG91dGZpbGUubWFlPic=

>  <s_epik_input>  (1) 
W09IXUMoPU8pW0NIMl1bQ0gyXU4oW0NAQF0xKFtDSDJdTzEpW0NIMl1bQ0gzXSlbQ0BIXShTMiljKGMyMylbY0hdW2NIXWMoRiljM0Y=

>  <s_glide_docking_method>  (1) 
confgen

>  <s_i_glide_gridfile>  (1) 
gpcr_5ht2c_6bqh_protein_autoprepared_prepared

>  <s_lp_Force_Field>  (1) 
S-OPLS

>  <s_lp_Variant>  (1) 
DiffSBDD_42_num_sample_50-1

>  <s_m_source_file>  (1) 
generated__ligand_DiffSBDD_2026-05-06_prepared.sdf

>  <GenAI_Model>  (1) 
DiffSBDD

>  <Protein>  (1) 
GPCR_5HT2C

$$$$
DiffSBDD_13_num_sample_50
     RDKit          3D

  0  0  0  0  0  0  0  0  0  0999 V3000
M  V30 BEGIN CTAB
M  V30 COUNTS 67 70 0 0 1
M  V30 BEGIN ATOM
M  V30 1 C 36.935614 33.863971 59.602380 0
M  V30 2 C 37.619018 25.280014 56.440073 0
M  V30 3 N 40.115670 32.460063 62.883221 0
M  V30 4 C 38.218587 27.375249 54.657678 0
M  V30 5 C 41.562444 31.368513 64.103144 0
M  V30 6 N 39.065301 29.774554 54.244429 0
M  V30 7 F 38.358925 23.621711 57.853488 0
M  V30 8 C 39.743389 30.834912 61.046235 0
M  V30 9 C 40.170909 30.001241 51.988240 0 CFG=1
M  V30 10 C 37.067100 30.744316 59.256300 0
M  V30 11 C 39.583533 30.708067 53.223149 0
M  V30 12 C 40.418308 31.257097 62.366061 0
M  V30 13 C 38.071669 33.140812 58.843378 0 CFG=1
M  V30 14 N 40.176702 33.571233 62.013488 0
M  V30 15 N 39.221197 29.056835 51.462808 0
M  V30 16 O 40.026013 29.785745 60.463311 0
M  V30 17 O 35.654884 33.621241 59.053525 0
M  V30 18 C 38.481170 28.522828 53.683461 0 CFG=1
M  V30 19 C 38.103172 32.579208 56.397391 0
M  V30 20 C 37.258042 24.180049 57.397630 0
M  V30 21 C 38.708608 27.414817 55.984260 0
M  V30 22 C 40.452285 30.808435 50.737357 0
M  V30 23 C 38.402885 26.368653 56.874752 0
M  V30 24 C 38.086985 30.401567 55.174900 0
M  V30 25 N 41.230405 30.470971 62.941291 0
M  V30 26 C 40.263793 29.779891 49.618388 0
M  V30 27 C 37.467354 26.268124 54.226994 0
M  V30 28 C 37.167576 25.224567 55.113962 0
M  V30 29 O 40.825348 32.652451 64.051089 0
M  V30 30 C 38.042620 31.923041 55.263300 0
M  V30 31 C 38.302969 31.661553 59.273260 0 CFG=1
M  V30 32 O 38.820490 31.721657 60.600829 0
M  V30 33 C 39.173096 27.969625 52.411960 0
M  V30 34 C 38.012191 33.473035 57.354793 0
M  V30 35 O 39.867422 28.584865 50.275844 0
M  V30 36 H 37.102383 34.940519 59.568475 0
M  V30 37 H 36.927871 33.590201 60.657838 0
M  V30 38 H 41.327216 30.865130 65.042887 0
M  V30 39 H 42.633213 31.575791 64.121097 0
M  V30 40 H 41.067409 29.459585 52.253441 0
M  V30 41 H 36.667398 30.643007 58.251256 0
M  V30 42 H 37.319459 29.740375 59.599524 0
M  V30 43 H 36.271116 31.116735 59.898885 0
M  V30 44 H 38.816776 31.393677 52.898960 0
M  V30 45 H 40.349502 31.328439 53.685547 0
M  V30 46 H 38.988286 33.650491 59.144796 0
M  V30 47 H 39.337958 33.580842 61.435366 0
M  V30 48 H 40.200886 34.423760 62.570460 0
M  V30 49 H 35.720575 32.985381 58.341971 0
M  V30 50 H 37.489055 28.803928 53.325272 0
M  V30 51 H 36.707742 24.583863 58.247061 0
M  V30 52 H 36.667480 23.398091 56.918028 0
M  V30 53 H 39.303449 28.248150 56.322702 0
M  V30 54 H 39.736757 31.621601 50.624167 0
M  V30 55 H 41.459283 31.221376 50.742737 0
M  V30 56 H 38.760617 26.405320 57.892938 0
M  V30 57 H 38.214721 30.006923 56.180993 0
M  V30 58 H 37.072110 30.123518 54.886789 0
M  V30 59 H 41.164249 29.621726 49.028704 0
M  V30 60 H 39.467451 30.094868 48.945535 0
M  V30 61 H 37.095093 26.229551 53.214264 0
M  V30 62 H 36.573065 24.386938 54.778219 0
M  V30 63 H 37.943062 32.458008 54.333879 0
M  V30 64 H 39.067330 31.233917 58.623095 0
M  V30 65 H 38.584559 27.172694 51.958220 0
M  V30 66 H 40.153751 27.544037 52.624437 0
M  V30 67 H 37.884866 34.516785 57.111589 0
M  V30 END ATOM
M  V30 BEGIN BOND
M  V30 1 1 11 6
M  V30 2 1 11 9
M  V30 3 1 12 3
M  V30 4 1 12 8
M  V30 5 1 13 1
M  V30 6 1 14 3
M  V30 7 1 15 9
M  V30 8 2 16 8
M  V30 9 1 17 1
M  V30 10 1 18 4
M  V30 11 1 18 6
M  V30 12 1 20 2
M  V30 13 1 20 7
M  V30 14 1 21 4
M  V30 15 1 22 9
M  V30 16 1 23 2
M  V30 17 2 23 21
M  V30 18 1 24 6
M  V30 19 1 25 5
M  V30 20 2 25 12
M  V30 21 1 26 22
M  V30 22 2 27 4
M  V30 23 2 28 2
M  V30 24 1 28 27
M  V30 25 1 29 3
M  V30 26 1 29 5
M  V30 27 2 30 19
M  V30 28 1 30 24
M  V30 29 1 31 10
M  V30 30 1 31 13
M  V30 31 1 32 8
M  V30 32 1 32 31
M  V30 33 1 33 15
M  V30 34 1 33 18
M  V30 35 1 34 13
M  V30 36 2 34 19
M  V30 37 1 35 15
M  V30 38 1 35 26
M  V30 39 1 36 1
M  V30 40 1 37 1
M  V30 41 1 38 5
M  V30 42 1 39 5
M  V30 43 1 9 40 CFG=1
M  V30 44 1 41 10
M  V30 45 1 42 10
M  V30 46 1 43 10
M  V30 47 1 44 11
M  V30 48 1 45 11
M  V30 49 1 13 46 CFG=1
M  V30 50 1 47 14
M  V30 51 1 48 14
M  V30 52 1 49 17
M  V30 53 1 18 50 CFG=3
M  V30 54 1 51 20
M  V30 55 1 52 20
M  V30 56 1 53 21
M  V30 57 1 54 22
M  V30 58 1 55 22
M  V30 59 1 56 23
M  V30 60 1 57 24
M  V30 61 1 58 24
M  V30 62 1 59 26
M  V30 63 1 60 26
M  V30 64 1 61 27
M  V30 65 1 62 28
M  V30 66 1 63 30
M  V30 67 1 31 64 CFG=3
M  V30 68 1 65 33
M  V30 69 1 66 33
M  V30 70 1 67 34
M  V30 END BOND
M  V30 END CTAB
M  END
>  <i_epik_Tot_Q>  (1) 
0

>  <i_epik_Tot_abs_Q>  (1) 
0

>  <i_i_glide_confnum>  (1) 
333

>  <i_i_glide_lignum>  (1) 
42

>  <i_i_glide_posenum>  (1) 
28

>  <i_i_glide_rotatable_bonds>  (1) 
11

>  <i_lp_mmshare_version>  (1) 
72125

>  <i_m_source_file_index>  (1) 
14

>  <i_f3d_flags>  (1) 
0

>  <num_sample>  (1) 
50

>  <b_lp_Chiralities_Consistent>  (1) 
1

>  <r_epik_Charging_Adjusted_Penalty>  (1) 
0.22633531445783178

>  <r_epik_Ionization_Penalty>  (1) 
0.23418350974146993

>  <r_epik_Ionization_Penalty_Charging>  (1) 
0

>  <r_epik_Ionization_Penalty_Neutral>  (1) 
0.23418350974146993

>  <r_epik_State_Penalty>  (1) 
0.22633531445783178

>  <r_glide_ring_energy>  (1) 
0

>  <r_i_docking_score>  (1) 
-7.4584548601120231

>  <r_i_glide_ecoul>  (1) 
-3.6327123407010715

>  <r_i_glide_eff_state_penalty>  (1) 
0.22633531445783178

>  <r_i_glide_einternal>  (1) 
7.0871897649895637

>  <r_i_glide_emodel>  (1) 
-66.908259423194522

>  <r_i_glide_emodel_strain>  (1) 
5.9735837651923873

>  <r_i_glide_energy>  (1) 
-51.885901633014974

>  <r_i_glide_erotb>  (1) 
0.76399126750113433

>  <r_i_glide_esite>  (1) 
0

>  <r_i_glide_evdw>  (1) 
-48.253189292313905

>  <r_i_glide_gscore>  (1) 
-7.684790174569855

>  <r_i_glide_gscore_strain>  (1) 
0.49339594129809683

>  <r_i_glide_hbond>  (1) 
-0.21638897365352031

>  <r_i_glide_ligand_efficiency>  (1) 
-0.21309871028891494

>  <r_i_glide_ligand_efficiency_ln>  (1) 
-1.6372963732816088

>  <r_i_glide_ligand_efficiency_sa>  (1) 
-0.69706001197070833

>  <r_i_glide_lipo>  (1) 
-3.6511293568907748

>  <r_i_glide_metal>  (1) 
-0

>  <r_i_glide_rewards>  (1) 
-2.1170927371039339

>  <r_lp_Energy>  (1) 
-4.0023499999999999

>  <s_epik_Chemistry_Notes>  (1) 
This compound has an ester and may undergo hydrolysis at high or low pH. This compound has an imine and may undergo hydrolysis. This compound contains an acetal/aminal-like group ( X-CH(R)-Y where X, Y are N, S, or O) that may be acid/base labile, releasing an aldehyde. This compound has a N-S or N-O group and may undergo hydrolysis at high or low pH.

>  <s_epik_cmdline>  (1) 
J2VwaWtfcHl0aG9uJywgJy1waHQnLCAnMS4wJywgJy1waCcsICc3LjQnLCAnLXRuJywgJzgnLCAnLW1hJywgJzUwMCcsICctaW1hZScsICc8aW5maWxlLm1hZT4nLCAnLW9tYWUnLCAnPG91dGZpbGUubWFlPic=

>  <s_epik_input>  (1) 
TzFbQ0gyXU49QyhOMVtOSDJdKUMoPU8pT1tDQEBIXShbQ0gzXSlbQ0BIXShbQ0gyXVtPSF0pW0NIXT1DPVtDSF1bQ0gyXU4oW0NIMl0yKVtDQEhdKGMoW2NIXVtjSF0zKVtjSF1bY0hdYzNbQ0gyXUYpW0NIMl1OKFtDQEhdMjQpT1tDSDJdW0NIMl00

>  <s_glide_docking_method>  (1) 
confgen

>  <s_i_glide_gridfile>  (1) 
gpcr_5ht2c_6bqh_protein_autoprepared_prepared

>  <s_lp_Force_Field>  (1) 
S-OPLS

>  <s_lp_Variant>  (1) 
DiffSBDD_13_num_sample_50-1

>  <s_m_source_file>  (1) 
generated__ligand_DiffSBDD_2026-05-06_prepared.sdf

>  <GenAI_Model>  (1) 
DiffSBDD

>  <Protein>  (1) 
GPCR_5HT2C

$$$$
DiffSBDD_15_num_sample_50
     RDKit          3D

  0  0  0  0  0  0  0  0  0  0999 V3000
M  V30 BEGIN CTAB
M  V30 COUNTS 46 47 0 0 1
M  V30 BEGIN ATOM
M  V30 1 S 39.667057 29.626340 56.284167 0
M  V30 2 C 39.347306 28.141099 51.732280 0
M  V30 3 C 40.493142 30.037577 50.711548 0
M  V30 4 C 40.055497 28.691827 50.653139 0
M  V30 5 C 38.962196 26.978667 57.882031 0
M  V30 6 C 37.010727 30.558676 59.267053 0
M  V30 7 C 39.467465 30.229942 52.893220 0
M  V30 8 C 37.643146 26.618298 57.178665 0
M  V30 9 O 35.863105 30.021397 58.653598 0
M  V30 10 C 38.481025 29.846511 54.920599 0 CFG=1
M  V30 11 C 36.967882 28.001042 53.589383 0
M  V30 12 N 38.570459 29.423138 57.591669 0
M  V30 13 C 38.169538 30.668651 58.254283 0
M  V30 14 O 38.270518 24.021870 57.502296 0
M  V30 15 N 39.090315 30.873910 54.031874 0
M  V30 16 C 39.074196 28.950822 52.841825 0
M  V30 17 C 38.745136 25.010612 55.081811 0
M  V30 18 C 38.350748 28.480080 54.038923 0 CFG=1
M  V30 19 C 40.195906 30.817818 51.848756 0
M  V30 20 F 41.190283 30.570385 49.684846 0
M  V30 21 C 38.912820 28.367195 58.546905 0
M  V30 22 O 36.285559 24.597066 56.018872 0
M  V30 23 S 37.630857 24.904539 56.521227 0
M  V30 24 H 39.018832 27.112528 51.704221 0
M  V30 25 H 40.267754 28.090032 49.796583 0
M  V30 26 H 39.790083 26.922233 57.176004 0
M  V30 27 H 39.176078 26.239677 58.654520 0
M  V30 28 H 36.754862 31.557122 59.621289 0
M  V30 29 H 37.274103 29.991590 60.157997 0
M  V30 30 H 36.795385 26.713412 57.854110 0
M  V30 31 H 37.467700 27.295868 56.352115 0
M  V30 32 H 35.576373 30.645819 57.975713 0
M  V30 33 H 37.514789 30.187967 55.296509 0
M  V30 34 H 37.067499 27.169096 52.895818 0
M  V30 35 H 36.362306 27.621397 54.396613 0
M  V30 36 H 36.430654 28.782298 53.053234 0
M  V30 37 H 37.878356 31.383399 57.483060 0
M  V30 38 H 39.038913 31.092579 58.755970 0
M  V30 39 H 39.691114 31.584725 54.424887 0
M  V30 40 H 38.811408 24.021444 54.653815 0
M  V30 41 H 38.312139 25.657160 54.326538 0
M  V30 42 H 39.735048 25.348584 55.385776 0
M  V30 43 H 38.932190 27.687131 54.498873 0
M  V30 44 H 40.510109 31.842770 51.904964 0
M  V30 45 H 39.869171 28.601646 59.015024 0
M  V30 46 H 38.182720 28.303952 59.347560 0
M  V30 END ATOM
M  V30 BEGIN BOND
M  V30 1 2 4 2
M  V30 2 1 4 3
M  V30 3 1 8 5
M  V30 4 1 9 6
M  V30 5 1 10 1
M  V30 6 1 12 1
M  V30 7 1 13 6
M  V30 8 1 13 12
M  V30 9 1 15 7
M  V30 10 1 15 10
M  V30 11 1 16 2
M  V30 12 2 16 7
M  V30 13 1 18 10
M  V30 14 1 18 11
M  V30 15 1 18 16
M  V30 16 2 19 3
M  V30 17 1 19 7
M  V30 18 1 20 3
M  V30 19 1 21 5
M  V30 20 1 21 12
M  V30 21 1 23 8
M  V30 22 2 23 14
M  V30 23 1 23 17
M  V30 24 2 23 22
M  V30 25 1 24 2
M  V30 26 1 25 4
M  V30 27 1 26 5
M  V30 28 1 27 5
M  V30 29 1 28 6
M  V30 30 1 29 6
M  V30 31 1 30 8
M  V30 32 1 31 8
M  V30 33 1 32 9
M  V30 34 1 10 33 CFG=1
M  V30 35 1 34 11
M  V30 36 1 35 11
M  V30 37 1 36 11
M  V30 38 1 37 13
M  V30 39 1 38 13
M  V30 40 1 39 15
M  V30 41 1 40 17
M  V30 42 1 41 17
M  V30 43 1 42 17
M  V30 44 1 18 43 CFG=1
M  V30 45 1 44 19
M  V30 46 1 45 21
M  V30 47 1 46 21
M  V30 END BOND
M  V30 END CTAB
M  END
>  <i_epik_Tot_Q>  (1) 
0

>  <i_epik_Tot_abs_Q>  (1) 
0

>  <i_i_glide_confnum>  (1) 
485

>  <i_i_glide_lignum>  (1) 
45

>  <i_i_glide_posenum>  (1) 
303

>  <i_i_glide_rotatable_bonds>  (1) 
9

>  <i_lp_mmshare_version>  (1) 
72125

>  <i_m_source_file_index>  (1) 
16

>  <i_f3d_flags>  (1) 
0

>  <num_sample>  (1) 
50

>  <b_lp_Chiralities_Consistent>  (1) 
1

>  <r_epik_Charging_Adjusted_Penalty>  (1) 
0

>  <r_epik_Ionization_Penalty>  (1) 
0.0018364177228642131

>  <r_epik_Ionization_Penalty_Charging>  (1) 
0

>  <r_epik_Ionization_Penalty_Neutral>  (1) 
0.0018364177228642131

>  <r_epik_State_Penalty>  (1) 
-0

>  <r_glide_ring_energy>  (1) 
0

>  <r_i_docking_score>  (1) 
-7.456648003816662

>  <r_i_glide_ecoul>  (1) 
-6.8399726701066497

>  <r_i_glide_eff_state_penalty>  (1) 
-0

>  <r_i_glide_einternal>  (1) 
8.0328651166896332

>  <r_i_glide_emodel>  (1) 
-53.798700939821074

>  <r_i_glide_emodel_strain>  (1) 
1.4376233959563649

>  <r_i_glide_energy>  (1) 
-39.039986614192664

>  <r_i_glide_erotb>  (1) 
1.0229839614613039

>  <r_i_glide_esite>  (1) 
0

>  <r_i_glide_evdw>  (1) 
-32.200013944086017

>  <r_i_glide_gscore>  (1) 
-7.456648003816662

>  <r_i_glide_gscore_strain>  (1) 
0

>  <r_i_glide_hbond>  (1) 
-0.16

>  <r_i_glide_ligand_efficiency>  (1) 
-0.32420208712246357

>  <r_i_glide_ligand_efficiency_ln>  (1) 
-1.8030851004687782

>  <r_i_glide_ligand_efficiency_sa>  (1) 
-0.92198761036653465

>  <r_i_glide_lipo>  (1) 
-3.5207927803426724

>  <r_i_glide_metal>  (1) 
-0

>  <r_i_glide_rewards>  (1) 
-2.1628425872149943

>  <r_lp_Energy>  (1) 
-13.942229999999999

>  <r_lp_tautomer_probability>  (1) 
1

>  <s_epik_Chemistry_Notes>  (1) 
This compound contains an acetal/aminal-like group ( X-CH(R)-Y where X, Y are N, S, or O) that may be acid/base labile, releasing an aldehyde. This compound has a N-S or N-O group and may undergo hydrolysis at high or low pH.

>  <s_epik_cmdline>  (1) 
J2VwaWtfcHl0aG9uJywgJy1waHQnLCAnMS4wJywgJy1waCcsICc3LjQnLCAnLXRuJywgJzgnLCAnLW1hJywgJzUwMCcsICctaW1hZScsICc8aW5maWxlLm1hZT4nLCAnLW9tYWUnLCAnPG91dGZpbGUubWFlPic=

>  <s_epik_input>  (1) 
Tz1TKD1PKShbQ0gzXSlbQ0gyXVtDSDJdW0NIMl1OKFtDSDJdW0NIMl1bT0hdKVNbQ0BASF0oW05IXTEpW0NAQEhdKFtDSDNdKWMoYzEyKVtjSF1bY0hdYyhGKVtjSF0y

>  <s_glide_docking_method>  (1) 
confgen

>  <s_i_glide_gridfile>  (1) 
gpcr_5ht2c_6bqh_protein_autoprepared_prepared

>  <s_lp_Force_Field>  (1) 
S-OPLS

>  <s_lp_Variant>  (1) 
DiffSBDD_15_num_sample_50-1

>  <s_m_source_file>  (1) 
generated__ligand_DiffSBDD_2026-05-06_prepared.sdf

>  <GenAI_Model>  (1) 
DiffSBDD

>  <Protein>  (1) 
GPCR_5HT2C

$$$$
DiffSBDD_29_num_sample_50
     RDKit          3D

  0  0  0  0  0  0  0  0  0  0999 V3000
M  V30 BEGIN CTAB
M  V30 COUNTS 79 81 0 0 1
M  V30 BEGIN ATOM
M  V30 1 C 42.122776 33.500945 65.467431 0
M  V30 2 C 39.418351 29.811521 58.590945 0
M  V30 3 C 41.229307 32.949902 64.353123 0
M  V30 4 C 38.938808 29.106143 53.157159 0
M  V30 5 C 37.113682 36.095495 59.993695 0
M  V30 6 C 38.881680 27.540669 55.172846 0
M  V30 7 C 39.002049 35.940295 62.887037 0 CFG=2
M  V30 8 N 37.653813 31.567245 58.940215 0 CHG=1
M  V30 9 C 38.273842 35.284081 60.474274 0 CFG=1
M  V30 10 N 38.840151 28.540962 55.962354 0
M  V30 11 C 38.141622 35.062241 61.980421 0
M  V30 12 C 38.025552 32.537081 60.024828 0 CFG=2
M  V30 13 O 37.867406 32.095929 56.050168 0
M  V30 14 O 40.047005 36.717481 62.287931 0
M  V30 15 C 36.393129 35.571873 59.053682 0
M  V30 16 C 37.468292 27.075083 53.166531 0
M  V30 17 C 36.814989 37.443113 60.653685 0
M  V30 18 C 41.296893 34.648796 62.466165 0
M  V30 19 C 38.065279 34.002332 59.475908 0 CFG=1
M  V30 20 C 38.229841 30.075694 54.110266 0
M  V30 21 C 42.300455 32.632874 66.715899 0
M  V30 22 F 41.120972 32.448642 67.307827 0
M  V30 23 O 39.284978 27.612625 59.453495 0
M  V30 24 O 39.774686 26.821472 53.047002 0
M  V30 25 C 37.867410 38.534800 60.448942 0
M  V30 26 C 38.692605 31.049668 57.996413 0 CFG=2
M  V30 27 F 42.807900 31.448675 66.375221 0
M  V30 28 C 36.787867 34.245965 58.546350 0
M  V30 29 C 38.482470 28.694808 59.066839 0
M  V30 30 C 38.048622 30.800748 56.590608 0 CFG=2
M  V30 31 C 41.643496 33.451091 62.977466 0
M  V30 32 F 43.127829 33.220303 67.581390 0
M  V30 33 C 38.823047 29.941552 55.533701 0 CFG=1
M  V30 34 O 42.667404 34.598245 65.366759 0
M  V30 35 C 40.471072 35.671791 63.161776 0 CFG=2
M  V30 36 C 38.797949 27.647796 53.654846 0 CFG=1
M  V30 37 C 39.267813 32.052724 60.811407 0
M  V30 38 H 40.064353 30.057124 59.426513 0
M  V30 39 H 40.142010 29.435760 57.870403 0
M  V30 40 H 40.203136 33.243524 64.554315 0
M  V30 41 H 41.255867 31.860327 64.363802 0
M  V30 42 H 39.982226 29.403144 53.088345 0
M  V30 43 H 38.541902 29.215614 52.147174 0
M  V30 44 H 38.974145 26.519845 55.552661 0
M  V30 45 H 38.456670 36.458952 63.673410 0
M  V30 46 H 36.955092 32.021272 58.358857 0
M  V30 47 H 39.213146 35.781620 60.244794 0
M  V30 48 H 37.099405 35.218723 62.253499 0
M  V30 49 H 38.295912 34.038499 62.253501 0
M  V30 50 H 37.184582 32.498769 60.718296 0
M  V30 51 H 36.925510 32.275438 56.044274 0
M  V30 52 H 35.519445 36.060481 58.653482 0
M  V30 53 H 36.611333 27.636241 53.537784 0
M  V30 54 H 37.467436 27.138075 52.080246 0
M  V30 55 H 37.335327 26.028545 53.449389 0
M  V30 56 H 35.866944 37.799361 60.253524 0
M  V30 57 H 36.632879 37.318888 61.720032 0
M  V30 58 H 41.639068 34.909670 61.475177 0
M  V30 59 H 38.925483 34.021420 58.807523 0
M  V30 60 H 37.157702 29.875463 54.130867 0
M  V30 61 H 38.348164 31.094536 53.740533 0
M  V30 62 H 39.743911 27.287834 58.692380 0
M  V30 63 H 39.602118 26.789428 52.118131 0
M  V30 64 H 37.471249 39.499498 60.766950 0
M  V30 65 H 38.752859 38.349829 61.053419 0
M  V30 66 H 38.152184 38.628747 59.401405 0
M  V30 67 H 39.439907 31.830367 57.853452 0
M  V30 68 H 37.067391 34.257755 57.493403 0
M  V30 69 H 35.961929 33.552384 58.707270 0
M  V30 70 H 37.775747 28.376095 58.301737 0
M  V30 71 H 37.896429 29.016761 59.925836 0
M  V30 72 H 37.067431 30.346101 56.719251 0
M  V30 73 H 42.257092 32.783480 62.389821 0
M  V30 74 H 39.852048 30.305428 55.497821 0
M  V30 75 H 40.899569 36.036439 64.093135 0
M  V30 76 H 39.447197 32.542940 61.755052 0
M  V30 77 H 39.154027 31.008011 61.097566 0
M  V30 78 H 40.190815 32.179095 60.253587 0
M  V30 79 H 37.197704 30.770959 59.357980 0
M  V30 END ATOM
M  V30 BEGIN BOND
M  V30 1 1 3 1
M  V30 2 1 9 5
M  V30 3 2 10 6
M  V30 4 1 11 7
M  V30 5 1 11 9
M  V30 6 1 12 8
M  V30 7 1 14 7
M  V30 8 2 15 5
M  V30 9 1 17 5
M  V30 10 1 19 9
M  V30 11 1 19 12
M  V30 12 1 20 4
M  V30 13 1 21 1
M  V30 14 1 22 21
M  V30 15 1 25 17
M  V30 16 1 26 2
M  V30 17 1 26 8
M  V30 18 1 27 21
M  V30 19 1 28 15
M  V30 20 1 28 19
M  V30 21 1 29 2
M  V30 22 1 29 23
M  V30 23 1 30 13
M  V30 24 1 30 26
M  V30 25 1 31 3
M  V30 26 2 31 18
M  V30 27 1 32 21
M  V30 28 1 33 10
M  V30 29 1 33 20
M  V30 30 1 33 30
M  V30 31 2 34 1
M  V30 32 1 35 7
M  V30 33 1 35 14
M  V30 34 1 35 18
M  V30 35 1 36 4
M  V30 36 1 36 6
M  V30 37 1 36 16
M  V30 38 1 36 24 CFG=3
M  V30 39 1 37 12
M  V30 40 1 38 2
M  V30 41 1 39 2
M  V30 42 1 40 3
M  V30 43 1 41 3
M  V30 44 1 42 4
M  V30 45 1 43 4
M  V30 46 1 44 6
M  V30 47 1 7 45 CFG=1
M  V30 48 1 46 8
M  V30 49 1 9 47 CFG=1
M  V30 50 1 48 11
M  V30 51 1 49 11
M  V30 52 1 12 50 CFG=1
M  V30 53 1 51 13
M  V30 54 1 52 15
M  V30 55 1 53 16
M  V30 56 1 54 16
M  V30 57 1 55 16
M  V30 58 1 56 17
M  V30 59 1 57 17
M  V30 60 1 58 18
M  V30 61 1 19 59 CFG=3
M  V30 62 1 60 20
M  V30 63 1 61 20
M  V30 64 1 62 23
M  V30 65 1 63 24
M  V30 66 1 64 25
M  V30 67 1 65 25
M  V30 68 1 66 25
M  V30 69 1 26 67 CFG=3
M  V30 70 1 68 28
M  V30 71 1 69 28
M  V30 72 1 70 29
M  V30 73 1 71 29
M  V30 74 1 30 72 CFG=1
M  V30 75 1 73 31
M  V30 76 1 33 74 CFG=3
M  V30 77 1 35 75 CFG=1
M  V30 78 1 76 37
M  V30 79 1 77 37
M  V30 80 1 78 37
M  V30 81 1 79 8
M  V30 END BOND
M  V30 END CTAB
M  END
>  <i_epik_Tot_Q>  (1) 
1

>  <i_epik_Tot_abs_Q>  (1) 
1

>  <i_i_glide_confnum>  (1) 
108

>  <i_i_glide_lignum>  (1) 
74

>  <i_i_glide_posenum>  (1) 
114

>  <i_i_glide_rotatable_bonds>  (1) 
17

>  <i_lp_mmshare_version>  (1) 
72125

>  <i_m_source_file_index>  (1) 
30

>  <i_f3d_flags>  (1) 
0

>  <num_sample>  (1) 
50

>  <b_lp_Chiralities_Consistent>  (1) 
1

>  <r_epik_Charging_Adjusted_Penalty>  (1) 
0.073066720001252791

>  <r_epik_Ionization_Penalty>  (1) 
0.041882768558209021

>  <r_epik_Ionization_Penalty_Charging>  (1) 
0.011280877963412759

>  <r_epik_Ionization_Penalty_Neutral>  (1) 
0.030601890594796264

>  <r_epik_State_Penalty>  (1) 
0.061785842037840037

>  <r_glide_ring_energy>  (1) 
0

>  <r_i_docking_score>  (1) 
-7.4502600498718126

>  <r_i_glide_ecoul>  (1) 
-5.5491329875923743

>  <r_i_glide_eff_state_penalty>  (1) 
0.061785842037840037

>  <r_i_glide_einternal>  (1) 
7.9684034407540771

>  <r_i_glide_emodel>  (1) 
-60.023733266937391

>  <r_i_glide_emodel_strain>  (1) 
3.4998115317122398

>  <r_i_glide_energy>  (1) 
-43.362451940668763

>  <r_i_glide_erotb>  (1) 
0.87550365807384167

>  <r_i_glide_esite>  (1) 
-0.076250761714788257

>  <r_i_glide_evdw>  (1) 
-37.81331895307639

>  <r_i_glide_gscore>  (1) 
-7.5120458919096524

>  <r_i_glide_gscore_strain>  (1) 
0

>  <r_i_glide_hbond>  (1) 
-0.38808199045023961

>  <r_i_glide_ligand_efficiency>  (1) 
-0.20135837972626519

>  <r_i_glide_ligand_efficiency_ln>  (1) 
-1.6157867459408555

>  <r_i_glide_ligand_efficiency_sa>  (1) 
-0.67097079293588446

>  <r_i_glide_lipo>  (1) 
-3.2195407016949744

>  <r_i_glide_metal>  (1) 
-0

>  <r_i_glide_rewards>  (1) 
-1.9806402003308159

>  <r_lp_Energy>  (1) 
35.125267000000001

>  <s_epik_Chemistry_Notes>  (1) 
This compound has an imine and may undergo hydrolysis.

>  <s_epik_cmdline>  (1) 
J2VwaWtfcHl0aG9uJywgJy1waHQnLCAnMS4wJywgJy1waCcsICc3LjQnLCAnLXRuJywgJzgnLCAnLW1hJywgJzUwMCcsICctaW1hZScsICc8aW5maWxlLm1hZT4nLCAnLW9tYWUnLCAnPG91dGZpbGUubWFlPic=

>  <s_epik_input>  (1) 
RkMoRikoRilDKD1PKVtDSDJdL1tDSF09W0NIXVxbQ0BIXTFPW0NASF0xW0NIMl1bQ0BIXTJbQ0BIXShbQ0gyXVtDSF09QzJbQ0gyXVtDSDNdKVtDQEhdKFtDSDNdKVtOSF1bQ0BASF0oW0NIMl1bQ0gyXVtPSF0pW0NAQEhdKFtPSF0pW0NAQEhdKE49W0NIXTMpW0NIMl1bQ0gyXVtDQEBdMyhbQ0gzXSlbT0hd

>  <s_glide_docking_method>  (1) 
confgen

>  <s_i_glide_gridfile>  (1) 
gpcr_5ht2c_6bqh_protein_autoprepared_prepared

>  <s_lp_Force_Field>  (1) 
S-OPLS

>  <s_lp_Variant>  (1) 
DiffSBDD_29_num_sample_50-2

>  <s_m_source_file>  (1) 
generated__ligand_DiffSBDD_2026-05-06_prepared.sdf

>  <GenAI_Model>  (1) 
DiffSBDD

>  <Protein>  (1) 
GPCR_5HT2C

$$$$
DiffSBDD_18_num_sample_50
     RDKit          3D

  0  0  0  0  0  0  0  0  0  0999 V3000
M  V30 BEGIN CTAB
M  V30 COUNTS 73 75 0 0 1
M  V30 BEGIN ATOM
M  V30 1 C 37.514556 35.158525 59.850917 0
M  V30 2 C 36.553382 33.949330 59.764976 0 CFG=1
M  V30 3 C 40.968146 33.447922 63.346031 0
M  V30 4 F 39.465736 27.220188 50.253498 0
M  V30 5 C 38.673473 28.644652 54.856837 0
M  V30 6 C 39.308173 28.394052 58.311113 0 CFG=2
M  V30 7 C 41.256531 34.949294 63.347895 0
M  V30 8 C 39.070458 28.944392 53.446479 0
M  V30 9 F 39.473401 31.249377 53.996292 0
M  V30 10 C 39.004734 34.947348 60.253619 0
M  V30 11 C 39.867914 30.523439 51.756755 0
M  V30 12 C 40.412928 27.579073 58.997998 0
M  V30 13 C 38.701557 27.160627 55.193872 0 CFG=2
M  V30 14 N 37.467650 26.440732 54.955434 0
M  V30 15 C 38.665335 29.385458 59.296816 0
M  V30 16 C 38.051729 30.621185 58.615152 0
M  V30 17 O 41.467400 28.416741 59.413233 0
M  V30 18 C 39.868110 29.496019 50.799179 0
M  V30 19 O 38.382793 29.539898 55.645326 0
M  V30 20 C 39.073192 27.920135 52.474343 0
M  V30 21 S 39.469573 33.184415 62.358162 0
M  V30 22 C 36.169777 30.967283 60.279673 0
M  V30 23 C 40.802565 35.470479 61.985253 0
M  V30 24 C 39.466021 30.255471 53.079497 0
M  V30 25 C 35.222772 34.416339 59.149151 0
M  V30 26 N 37.067402 32.851777 58.908374 0 CHG=1
M  V30 27 F 38.561243 35.621494 62.455274 0
M  V30 28 C 38.621221 26.665791 56.650566 0 CFG=2
M  V30 29 C 37.646066 25.608457 56.130540 0
M  V30 30 C 33.999309 33.568997 59.521478 0
M  V30 31 C 37.404542 31.597536 59.608299 0 CFG=2
M  V30 32 C 39.403154 34.885039 61.734494 0 CFG=1
M  V30 33 C 39.466821 28.199212 51.162546 0
M  V30 34 N 38.252644 27.513630 57.786709 0
M  V30 35 H 37.467633 35.648180 58.876308 0
M  V30 36 H 37.080948 35.898088 60.524634 0
M  V30 37 H 36.389731 33.624860 60.791149 0
M  V30 38 H 40.843959 33.052968 64.354916 0
M  V30 39 H 41.789203 32.908221 62.872193 0
M  V30 40 H 39.782387 28.954526 57.507951 0
M  V30 41 H 40.681574 35.438396 64.135957 0
M  V30 42 H 42.306219 35.162629 63.539779 0
M  V30 43 H 39.446072 34.115431 59.703391 0
M  V30 44 H 39.523403 35.827238 59.879624 0
M  V30 45 H 40.175362 31.520702 51.478104 0
M  V30 46 H 40.846585 26.829506 58.339789 0
M  V30 47 H 39.986032 27.064123 59.853187 0
M  V30 48 H 39.541927 26.652160 54.720322 0
M  V30 49 H 37.527249 25.889405 54.105214 0
M  V30 50 H 37.922451 28.848221 59.887185 0
M  V30 51 H 39.404855 29.742277 60.014585 0
M  V30 52 H 38.839132 31.136513 58.062337 0
M  V30 53 H 37.307199 30.323385 57.873993 0
M  V30 54 H 42.139437 27.895054 59.833081 0
M  V30 55 H 40.173596 29.702267 49.783173 0
M  V30 56 H 38.774283 26.917140 52.729533 0
M  V30 57 H 36.478414 30.140889 60.906605 0
M  V30 58 H 35.622402 31.642612 60.935188 0
M  V30 59 H 35.469138 30.580502 59.539557 0
M  V30 60 H 41.499783 35.127371 61.219825 0
M  V30 61 H 40.804122 36.561011 61.946324 0
M  V30 62 H 35.066156 35.451556 59.440052 0
M  V30 63 H 35.299273 34.422074 58.062709 0
M  V30 64 H 37.883113 33.185860 58.418835 0
M  V30 65 H 39.542457 26.135015 56.884370 0
M  V30 66 H 38.129696 24.658436 55.895039 0
M  V30 67 H 36.732789 25.483512 56.714927 0
M  V30 68 H 33.086492 34.004808 59.112578 0
M  V30 69 H 34.077284 32.556229 59.126503 0
M  V30 70 H 33.876584 33.509919 60.601791 0
M  V30 71 H 38.137828 31.840327 60.371358 0
M  V30 72 H 37.467525 28.090199 57.496756 0
M  V30 73 H 36.369285 32.612529 58.200235 0
M  V30 END ATOM
M  V30 BEGIN BOND
M  V30 1 1 2 1
M  V30 2 1 7 3
M  V30 3 1 8 5
M  V30 4 1 10 1
M  V30 5 1 12 6
M  V30 6 1 13 5
M  V30 7 1 14 13
M  V30 8 1 15 6
M  V30 9 1 16 15
M  V30 10 1 17 12
M  V30 11 2 18 11
M  V30 12 2 19 5
M  V30 13 1 20 8
M  V30 14 1 21 3
M  V30 15 1 23 7
M  V30 16 2 24 8
M  V30 17 1 24 9
M  V30 18 1 24 11
M  V30 19 1 25 2
M  V30 20 1 26 2
M  V30 21 1 28 13
M  V30 22 1 29 14
M  V30 23 1 29 28
M  V30 24 1 30 25
M  V30 25 1 31 16
M  V30 26 1 31 22
M  V30 27 1 31 26
M  V30 28 1 32 10
M  V30 29 1 32 21
M  V30 30 1 32 23
M  V30 31 1 32 27 CFG=1
M  V30 32 1 33 4
M  V30 33 1 33 18
M  V30 34 2 33 20
M  V30 35 1 34 6
M  V30 36 1 34 28
M  V30 37 1 35 1
M  V30 38 1 36 1
M  V30 39 1 2 37 CFG=1
M  V30 40 1 38 3
M  V30 41 1 39 3
M  V30 42 1 6 40 CFG=3
M  V30 43 1 41 7
M  V30 44 1 42 7
M  V30 45 1 43 10
M  V30 46 1 44 10
M  V30 47 1 45 11
M  V30 48 1 46 12
M  V30 49 1 47 12
M  V30 50 1 13 48 CFG=3
M  V30 51 1 49 14
M  V30 52 1 50 15
M  V30 53 1 51 15
M  V30 54 1 52 16
M  V30 55 1 53 16
M  V30 56 1 54 17
M  V30 57 1 55 18
M  V30 58 1 56 20
M  V30 59 1 57 22
M  V30 60 1 58 22
M  V30 61 1 59 22
M  V30 62 1 60 23
M  V30 63 1 61 23
M  V30 64 1 62 25
M  V30 65 1 63 25
M  V30 66 1 64 26
M  V30 67 1 28 65 CFG=1
M  V30 68 1 66 29
M  V30 69 1 67 29
M  V30 70 1 68 30
M  V30 71 1 69 30
M  V30 72 1 70 30
M  V30 73 1 31 71 CFG=1
M  V30 74 1 72 34
M  V30 75 1 73 26
M  V30 END BOND
M  V30 END CTAB
M  END
>  <i_epik_Tot_Q>  (1) 
1

>  <i_epik_Tot_abs_Q>  (1) 
1

>  <i_i_glide_confnum>  (1) 
4070

>  <i_i_glide_lignum>  (1) 
51

>  <i_i_glide_posenum>  (1) 
301

>  <i_i_glide_rotatable_bonds>  (1) 
15

>  <i_lp_mmshare_version>  (1) 
72125

>  <i_m_source_file_index>  (1) 
19

>  <i_f3d_flags>  (1) 
0

>  <num_sample>  (1) 
50

>  <b_lp_Chiralities_Consistent>  (1) 
1

>  <r_epik_Charging_Adjusted_Penalty>  (1) 
1.2230517339192002

>  <r_epik_Ionization_Penalty>  (1) 
1.2279427693353704

>  <r_epik_Ionization_Penalty_Charging>  (1) 
0.0005303694580283578

>  <r_epik_Ionization_Penalty_Neutral>  (1) 
1.2274123998773421

>  <r_epik_State_Penalty>  (1) 
1.2225213644611719

>  <r_glide_ring_energy>  (1) 
0

>  <r_i_docking_score>  (1) 
-7.4426039859752011

>  <r_i_glide_ecoul>  (1) 
-4.8858188428233023

>  <r_i_glide_eff_state_penalty>  (1) 
1.2225213644611719

>  <r_i_glide_einternal>  (1) 
24.715765403871682

>  <r_i_glide_emodel>  (1) 
-61.904674754003103

>  <r_i_glide_emodel_strain>  (1) 
2.4823960073048639

>  <r_i_glide_energy>  (1) 
-47.465677695621665

>  <r_i_glide_erotb>  (1) 
0.97048419377231765

>  <r_i_glide_esite>  (1) 
-0.096270724517076744

>  <r_i_glide_evdw>  (1) 
-42.57985885279836

>  <r_i_glide_gscore>  (1) 
-8.665125350436373

>  <r_i_glide_gscore_strain>  (1) 
0

>  <r_i_glide_hbond>  (1) 
-0.42216896160617823

>  <r_i_glide_ligand_efficiency>  (1) 
-0.21890011723456473

>  <r_i_glide_ligand_efficiency_ln>  (1) 
-1.644279978472625

>  <r_i_glide_ligand_efficiency_sa>  (1) 
-0.70915140309412061

>  <r_i_glide_lipo>  (1) 
-4.4354008440216548

>  <r_i_glide_metal>  (1) 
-0

>  <r_i_glide_rewards>  (1) 
-1.8199032450003663

>  <r_lp_Energy>  (1) 
36.781953999999999

>  <r_lp_tautomer_probability>  (1) 
0.99990000499974985

>  <s_epik_cmdline>  (1) 
J2VwaWtfcHl0aG9uJywgJy1waHQnLCAnMS4wJywgJy1waCcsICc3LjQnLCAnLXRuJywgJzgnLCAnLW1hJywgJzUwMCcsICctaW1hZScsICc8aW5maWxlLm1hZT4nLCAnLW9tYWUnLCAnPG91dGZpbGUubWFlPic=

>  <s_epik_input>  (1) 
W0NIMl0xW0NIMl1bQ0gyXVNbQ0BdMShGKVtDSDJdW0NIMl1bQ0BASF0oW0NIMl1bQ0gzXSlbTkhdW0NAQEhdKFtDSDNdKVtDSDJdW0NIMl1bQ0BASF0oW0NIMl1bT0hdKVtOSF1bQ0BIXTJbQ0gyXVtOSF1bQ0BIXTJDKD1PKWMzW2NIXWMoRilbY0hdW2NIXWMzRg==

>  <s_glide_docking_method>  (1) 
confgen

>  <s_i_glide_gridfile>  (1) 
gpcr_5ht2c_6bqh_protein_autoprepared_prepared

>  <s_lp_Force_Field>  (1) 
S-OPLS

>  <s_lp_Variant>  (1) 
DiffSBDD_18_num_sample_50-2

>  <s_m_source_file>  (1) 
generated__ligand_DiffSBDD_2026-05-06_prepared.sdf

>  <GenAI_Model>  (1) 
DiffSBDD

>  <Protein>  (1) 
GPCR_5HT2C

$$$$
DiffSBDD_25_num_sample_50
     RDKit          3D

  0  0  0  0  0  0  0  0  0  0999 V3000
M  V30 BEGIN CTAB
M  V30 COUNTS 59 60 0 0 1
M  V30 BEGIN ATOM
M  V30 1 C 38.684378 28.224753 55.655859 0 CFG=2
M  V30 2 C 38.956485 27.797106 53.156741 0
M  V30 3 C 39.845721 35.467652 61.308610 0
M  V30 4 C 39.433887 36.451563 62.412446 0
M  V30 5 C 37.996048 30.816986 59.757436 0 CFG=1
M  V30 6 C 39.047831 28.698275 54.243415 0
M  V30 7 C 38.286514 29.334574 56.671496 0
M  V30 8 C 39.495547 30.021423 54.018312 0
M  V30 9 C 39.406281 32.355539 61.905763 0
M  V30 10 C 39.790149 29.522742 51.646118 0
M  V30 11 C 37.222692 29.656540 59.074044 0 CFG=1
M  V30 12 C 40.932300 34.932437 63.432283 0
M  V30 13 N 35.867534 30.021432 58.653495 0 CHG=1
M  V30 14 C 39.518989 30.852995 61.650191 0
M  V30 15 C 39.327275 28.210377 51.861318 0
M  V30 16 C 37.935904 28.749529 58.053910 0
M  V30 17 N 40.442655 36.319271 63.477103 0 CHG=1
M  V30 18 N 38.941041 30.231899 60.694752 0
M  V30 19 C 40.897269 34.543265 61.950093 0 CFG=1
M  V30 20 C 41.067317 27.981245 56.653564 0
M  V30 21 C 40.778043 33.024911 61.679305 0
M  V30 22 C 39.867402 30.427929 52.721649 0
M  V30 23 C 39.782544 27.273645 56.198157 0
M  V30 24 Cl 40.267400 30.021414 50.066340 0
M  V30 25 O 38.612537 31.661225 58.808357 0
M  V30 26 H 37.794348 27.610215 55.514368 0
M  V30 27 H 38.613973 26.785863 53.320595 0
M  V30 28 H 40.293947 36.006293 60.473959 0
M  V30 29 H 38.977586 34.944872 60.911141 0
M  V30 30 H 39.356178 37.479383 62.055769 0
M  V30 31 H 38.462813 36.163568 62.819505 0
M  V30 32 H 37.267953 31.414624 60.310123 0
M  V30 33 H 37.440476 29.896713 56.273930 0
M  V30 34 H 39.098706 30.047275 56.804226 0
M  V30 35 H 39.570260 30.719217 54.836490 0
M  V30 36 H 38.644720 32.814200 61.281546 0
M  V30 37 H 39.083024 32.502784 62.935959 0
M  V30 38 H 37.012622 28.969021 59.875187 0
M  V30 39 H 40.267408 34.297363 64.014636 0
M  V30 40 H 41.931285 34.848498 63.863724 0
M  V30 41 H 35.867403 30.712411 57.891484 0
M  V30 42 H 35.377318 29.201193 58.331616 0
M  V30 43 H 40.159003 30.324035 62.361254 0
M  V30 44 H 39.264882 27.517025 51.034918 0
M  V30 45 H 38.840077 28.373655 58.531347 0
M  V30 46 H 37.309818 27.870681 57.893185 0
M  V30 47 H 41.217127 36.942078 63.285090 0
M  V30 48 H 41.856539 34.855644 61.534513 0
M  V30 49 H 41.833892 27.255628 56.926728 0
M  V30 50 H 41.462064 28.613555 55.860723 0
M  V30 51 H 40.900262 28.613863 57.524788 0
M  V30 52 H 41.529189 32.518749 62.287887 0
M  V30 53 H 41.067404 32.821392 60.653503 0
M  V30 54 H 40.219327 31.434837 52.553236 0
M  V30 55 H 39.394152 26.692731 57.034471 0
M  V30 56 H 40.033634 26.530772 55.440742 0
M  V30 57 H 37.958942 32.220776 58.413021 0
M  V30 58 H 40.068677 36.553775 64.386382 0
M  V30 59 H 35.364995 30.430038 59.424706 0
M  V30 END ATOM
M  V30 BEGIN BOND
M  V30 1 1 4 3
M  V30 2 1 6 1
M  V30 3 1 6 2
M  V30 4 1 7 1
M  V30 5 2 8 6
M  V30 6 1 11 5
M  V30 7 1 13 11
M  V30 8 1 14 9
M  V30 9 2 15 2
M  V30 10 1 15 10
M  V30 11 1 16 7
M  V30 12 1 16 11
M  V30 13 1 17 4
M  V30 14 1 17 12
M  V30 15 1 18 5
M  V30 16 2 18 14
M  V30 17 1 19 3
M  V30 18 1 19 12
M  V30 19 1 21 9
M  V30 20 1 21 19
M  V30 21 1 22 8
M  V30 22 2 22 10
M  V30 23 1 23 1
M  V30 24 1 23 20
M  V30 25 1 24 10
M  V30 26 1 25 5
M  V30 27 1 1 26 CFG=3
M  V30 28 1 27 2
M  V30 29 1 28 3
M  V30 30 1 29 3
M  V30 31 1 30 4
M  V30 32 1 31 4
M  V30 33 1 5 32 CFG=1
M  V30 34 1 33 7
M  V30 35 1 34 7
M  V30 36 1 35 8
M  V30 37 1 36 9
M  V30 38 1 37 9
M  V30 39 1 11 38 CFG=1
M  V30 40 1 39 12
M  V30 41 1 40 12
M  V30 42 1 41 13
M  V30 43 1 42 13
M  V30 44 1 43 14
M  V30 45 1 44 15
M  V30 46 1 45 16
M  V30 47 1 46 16
M  V30 48 1 47 17
M  V30 49 1 19 48 CFG=3
M  V30 50 1 49 20
M  V30 51 1 50 20
M  V30 52 1 51 20
M  V30 53 1 52 21
M  V30 54 1 53 21
M  V30 55 1 54 22
M  V30 56 1 55 23
M  V30 57 1 56 23
M  V30 58 1 57 25
M  V30 59 1 58 17
M  V30 60 1 59 13
M  V30 END BOND
M  V30 END CTAB
M  END
>  <i_epik_Tot_Q>  (1) 
2

>  <i_epik_Tot_abs_Q>  (1) 
2

>  <i_i_glide_confnum>  (1) 
250

>  <i_i_glide_lignum>  (1) 
67

>  <i_i_glide_posenum>  (1) 
187

>  <i_i_glide_rotatable_bonds>  (1) 
11

>  <i_lp_mmshare_version>  (1) 
72125

>  <i_m_source_file_index>  (1) 
26

>  <i_f3d_flags>  (1) 
0

>  <num_sample>  (1) 
50

>  <b_lp_Chiralities_Consistent>  (1) 
1

>  <r_epik_Charging_Adjusted_Penalty>  (1) 
0.45127827763218775

>  <r_epik_Ionization_Penalty>  (1) 
0.041210974459634293

>  <r_epik_Ionization_Penalty_Charging>  (1) 
0.040598438679583813

>  <r_epik_Ionization_Penalty_Neutral>  (1) 
0.0006125357800504809

>  <r_epik_State_Penalty>  (1) 
0.41067983895260396

>  <r_glide_ring_energy>  (1) 
0

>  <r_i_docking_score>  (1) 
-7.442409238927687

>  <r_i_glide_ecoul>  (1) 
-8.2904504026443195

>  <r_i_glide_eff_state_penalty>  (1) 
0.41067983895260396

>  <r_i_glide_einternal>  (1) 
8.8454657611515586

>  <r_i_glide_emodel>  (1) 
-65.985544626486615

>  <r_i_glide_emodel_strain>  (1) 
0.87493645912277174

>  <r_i_glide_energy>  (1) 
-42.587816535810227

>  <r_i_glide_erotb>  (1) 
0.99595821917536853

>  <r_i_glide_esite>  (1) 
-0.11352537324674135

>  <r_i_glide_evdw>  (1) 
-34.297366133165909

>  <r_i_glide_gscore>  (1) 
-7.8530890778802913

>  <r_i_glide_gscore_strain>  (1) 
0

>  <r_i_glide_hbond>  (1) 
-0.20000000000000001

>  <r_i_glide_ligand_efficiency>  (1) 
-0.29769636955710749

>  <r_i_glide_ligand_efficiency_ln>  (1) 
-1.7640740206332548

>  <r_i_glide_ligand_efficiency_sa>  (1) 
-0.87046946518655499

>  <r_i_glide_lipo>  (1) 
-3.9278624118573386

>  <r_i_glide_metal>  (1) 
-0

>  <r_i_glide_rewards>  (1) 
-1.6492236448966366

>  <r_lp_Energy>  (1) 
32.149031000000001

>  <r_lp_tautomer_probability>  (1) 
0.49999300000000002

>  <s_epik_Chemistry_Notes>  (1) 
This compound has an imine and may undergo hydrolysis. This compound contains an acetal/aminal-like group ( X-CH(R)-Y where X, Y are N, S, or O) that may be acid/base labile, releasing an aldehyde.

>  <s_epik_cmdline>  (1) 
J2VwaWtfcHl0aG9uJywgJy1waHQnLCAnMS4wJywgJy1waCcsICc3LjQnLCAnLXRuJywgJzgnLCAnLW1hJywgJzUwMCcsICctaW1hZScsICc8aW5maWxlLm1hZT4nLCAnLW9tYWUnLCAnPG91dGZpbGUubWFlPic=

>  <s_epik_input>  (1) 
W2NIXTFbY0hdYyhDbClbY0hdW2NIXWMxW0NAQEhdKFtDSDJdW0NIM10pW0NIMl1bQ0gyXVtDQEhdKFtOSDJdKVtDQEhdKFtPSF0pL049W0NIXVxbQ0gyXVtDSDJdW0NASF0yW0NIMl1bQ0gyXVtOSF1bQ0gyXTI=

>  <s_glide_docking_method>  (1) 
confgen

>  <s_i_glide_gridfile>  (1) 
gpcr_5ht2c_6bqh_protein_autoprepared_prepared

>  <s_lp_Force_Field>  (1) 
S-OPLS

>  <s_lp_Variant>  (1) 
DiffSBDD_25_num_sample_50-2

>  <s_m_source_file>  (1) 
generated__ligand_DiffSBDD_2026-05-06_prepared.sdf

>  <GenAI_Model>  (1) 
DiffSBDD

>  <Protein>  (1) 
GPCR_5HT2C

$$$$
DiffSBDD_7_num_sample_50
     RDKit          3D

  0  0  0  0  0  0  0  0  0  0999 V3000
M  V30 BEGIN CTAB
M  V30 COUNTS 93 96 0 0 1
M  V30 BEGIN ATOM
M  V30 1 C 39.147056 28.804641 51.254130 0 CFG=1
M  V30 2 O 36.428998 31.294543 61.452605 0
M  V30 3 C 38.481635 28.025178 54.864609 0
M  V30 4 C 39.527587 33.353160 59.054254 0
M  V30 5 O 40.112267 29.545603 49.199425 0 CHG=-1
M  V30 6 N 37.621639 36.629316 62.630703 0
M  V30 7 S 40.917210 32.235064 62.638968 0
M  V30 8 N 43.190461 31.460115 65.758006 0
M  V30 9 N 38.303611 32.583738 58.716039 0 CFG=2 CHG=1
M  V30 10 S 41.307142 33.249655 65.579997 0
M  V30 11 C 36.714839 37.621395 62.539225 0
M  V30 12 C 37.451823 26.070407 56.493556 0
M  V30 13 C 35.067599 31.619826 61.340794 0
M  V30 14 C 37.275718 32.289460 60.916497 0 CFG=1
M  V30 15 C 41.225688 31.831676 64.431843 0 CFG=2
M  V30 16 N 35.896207 38.432974 62.431014 0
M  V30 17 O 39.694972 34.537443 61.216174 0
M  V30 18 C 38.252688 29.117531 55.884047 0
M  V30 19 O 44.614659 28.961045 63.853535 0
M  V30 20 C 40.170108 26.055653 54.081487 0
M  V30 21 C 38.125606 32.844338 62.094640 0 CFG=2
M  V30 22 C 43.597448 28.636337 64.776392 0 CFG=1
M  V30 23 O 41.239717 29.931213 51.053465 0
M  V30 24 C 42.545236 31.009332 64.539798 0 CFG=2
M  V30 25 O 43.191567 33.069460 67.429404 0
M  V30 26 C 38.611918 34.341366 62.084162 0 CFG=2
M  V30 27 C 38.931248 29.249686 52.715683 0
M  V30 28 C 40.266554 29.485674 50.432735 0
M  V30 29 C 39.019417 31.033583 54.546299 0
M  V30 30 C 39.316611 30.186250 55.753542 0 CFG=1
M  V30 31 C 39.466915 31.084973 56.986909 0
M  V30 32 C 37.982768 31.594713 59.754421 0
M  V30 33 C 39.318691 30.465236 53.191233 0
M  V30 34 C 42.332035 29.477268 64.508852 0
M  V30 35 C 39.038846 27.308187 50.930266 0
M  V30 36 C 39.454208 26.883434 55.107741 0 CFG=2
M  V30 37 C 39.392780 34.634660 59.853473 0
M  V30 38 C 37.516203 35.428376 61.853469 0
M  V30 39 C 38.273048 31.987316 57.345071 0
M  V30 40 O 41.467327 31.092671 61.790236 0
M  V30 41 C 39.158382 31.811780 62.581357 0
M  V30 42 C 43.330307 27.131557 64.668325 0
M  V30 43 C 37.970473 26.618948 55.175015 0 CFG=2
M  V30 44 C 42.727377 32.569178 66.409001 0
M  V30 45 O 38.787723 30.690688 62.912148 0
M  V30 46 O 36.598303 35.285090 61.057223 0
M  V30 47 O 38.207413 28.328756 53.477922 0
M  V30 48 H 38.267622 29.221428 50.790232 0
M  V30 49 H 39.983400 33.621383 58.108838 0
M  V30 50 H 40.245497 32.821319 59.660917 0
M  V30 51 H 38.380739 36.749446 63.284974 0
M  V30 52 H 44.000111 30.986194 66.131545 0
M  V30 53 H 37.803242 26.644884 57.348847 0
M  V30 54 H 36.363663 26.030541 56.498286 0
M  V30 55 H 37.806388 25.047078 56.616979 0
M  V30 56 H 34.503998 30.821498 61.817647 0
M  V30 57 H 34.833670 32.558189 61.844574 0
M  V30 58 H 34.763500 31.683073 60.294742 0
M  V30 59 H 36.660815 33.062576 60.469445 0
M  V30 60 H 40.410338 31.217538 64.815276 0
M  V30 61 H 38.317041 28.695638 56.885275 0
M  V30 62 H 37.245173 29.522440 55.778326 0
M  V30 63 H 44.391915 28.585148 63.009919 0
M  V30 64 H 39.575434 26.021473 53.182959 0
M  V30 65 H 41.160391 26.421329 53.846846 0
M  V30 66 H 40.262863 25.047542 54.465727 0
M  V30 67 H 37.399133 32.820897 62.894106 0
M  V30 68 H 43.971778 28.853017 65.777106 0
M  V30 69 H 43.217074 31.285170 63.727460 0
M  V30 70 H 39.064564 34.547222 63.053593 0
M  V30 71 H 37.988773 31.386466 54.545839 0
M  V30 72 H 39.627643 31.936582 54.594277 0
M  V30 73 H 40.281441 29.698598 55.609889 0
M  V30 74 H 40.267392 31.756945 56.701227 0
M  V30 75 H 39.775171 30.462041 57.828381 0
M  V30 76 H 37.275676 30.874484 59.334802 0
M  V30 77 H 38.851546 31.000470 60.041345 0
M  V30 78 H 39.836649 31.140705 52.526859 0
M  V30 79 H 41.912458 29.202293 63.539704 0
M  V30 80 H 41.574781 29.207122 65.247107 0
M  V30 81 H 39.867369 26.740002 51.314031 0
M  V30 82 H 38.113475 26.885578 51.317591 0
M  V30 83 H 39.055375 27.145755 49.855094 0
M  V30 84 H 39.992688 26.944493 56.052110 0
M  V30 85 H 38.481604 35.161398 59.583174 0
M  V30 86 H 40.262184 35.221586 59.555318 0
M  V30 87 H 37.389094 31.376768 57.241555 0
M  V30 88 H 38.173528 32.792465 56.615421 0
M  V30 89 H 42.532807 26.825379 65.346416 0
M  V30 90 H 43.036180 26.851867 63.655419 0
M  V30 91 H 44.221539 26.558842 64.926488 0
M  V30 92 H 37.531120 26.102157 54.323456 0
M  V30 93 H 37.529120 33.234669 58.697289 0
M  V30 END ATOM
M  V30 BEGIN BOND
M  V30 1 1 9 4
M  V30 2 1 11 6
M  V30 3 1 13 2
M  V30 4 1 14 2
M  V30 5 1 15 7
M  V30 6 1 15 10
M  V30 7 3 16 11
M  V30 8 1 18 3
M  V30 9 1 21 14
M  V30 10 1 22 19
M  V30 11 1 24 8
M  V30 12 1 24 15
M  V30 13 1 26 17
M  V30 14 1 26 21
M  V30 15 1 27 1
M  V30 16 1 28 1
M  V30 17 1 28 5
M  V30 18 2 28 23
M  V30 19 1 30 18
M  V30 20 1 30 29
M  V30 21 1 31 30
M  V30 22 1 32 9
M  V30 23 1 32 14
M  V30 24 2 33 27
M  V30 25 1 33 29
M  V30 26 1 34 22
M  V30 27 1 34 24
M  V30 28 1 35 1
M  V30 29 1 36 3
M  V30 30 1 36 20
M  V30 31 1 37 4
M  V30 32 1 37 17
M  V30 33 1 38 6
M  V30 34 1 38 26
M  V30 35 1 39 9
M  V30 36 1 39 31
M  V30 37 2 40 7
M  V30 38 1 7 41 CFG=1
M  V30 39 1 41 21
M  V30 40 1 42 22
M  V30 41 1 43 3
M  V30 42 1 43 12
M  V30 43 1 43 36
M  V30 44 1 44 8
M  V30 45 1 44 10
M  V30 46 2 44 25
M  V30 47 2 45 41
M  V30 48 2 46 38
M  V30 49 1 47 3
M  V30 50 1 47 27
M  V30 51 1 1 48 CFG=3
M  V30 52 1 49 4
M  V30 53 1 50 4
M  V30 54 1 51 6
M  V30 55 1 52 8
M  V30 56 1 53 12
M  V30 57 1 54 12
M  V30 58 1 55 12
M  V30 59 1 56 13
M  V30 60 1 57 13
M  V30 61 1 58 13
M  V30 62 1 14 59 CFG=3
M  V30 63 1 15 60 CFG=1
M  V30 64 1 61 18
M  V30 65 1 62 18
M  V30 66 1 63 19
M  V30 67 1 64 20
M  V30 68 1 65 20
M  V30 69 1 66 20
M  V30 70 1 21 67 CFG=1
M  V30 71 1 22 68 CFG=1
M  V30 72 1 24 69 CFG=3
M  V30 73 1 26 70 CFG=1
M  V30 74 1 71 29
M  V30 75 1 72 29
M  V30 76 1 30 73 CFG=3
M  V30 77 1 74 31
M  V30 78 1 75 31
M  V30 79 1 76 32
M  V30 80 1 77 32
M  V30 81 1 78 33
M  V30 82 1 79 34
M  V30 83 1 80 34
M  V30 84 1 81 35
M  V30 85 1 82 35
M  V30 86 1 83 35
M  V30 87 1 36 84 CFG=1
M  V30 88 1 85 37
M  V30 89 1 86 37
M  V30 90 1 87 39
M  V30 91 1 88 39
M  V30 92 1 89 42
M  V30 93 1 90 42
M  V30 94 1 91 42
M  V30 95 1 43 92 CFG=3
M  V30 96 1 9 93 CFG=3
M  V30 END BOND
M  V30 END CTAB
M  END
>  <i_epik_Tot_Q>  (1) 
0

>  <i_epik_Tot_abs_Q>  (1) 
2

>  <i_i_glide_confnum>  (1) 
1654

>  <i_i_glide_lignum>  (1) 
28

>  <i_i_glide_posenum>  (1) 
14

>  <i_i_glide_rotatable_bonds>  (1) 
14

>  <i_lp_mmshare_version>  (1) 
72125

>  <i_m_source_file_index>  (1) 
8

>  <i_f3d_flags>  (1) 
0

>  <num_sample>  (1) 
50

>  <b_lp_Chiralities_Consistent>  (1) 
1

>  <r_epik_Charging_Adjusted_Penalty>  (1) 
2.2678334573304797

>  <r_epik_Ionization_Penalty>  (1) 
1.1498882506810455

>  <r_epik_Ionization_Penalty_Charging>  (1) 
1.1031410554290029

>  <r_epik_Ionization_Penalty_Neutral>  (1) 
0.046747195252042517

>  <r_epik_State_Penalty>  (1) 
1.164692401901477

>  <r_glide_ring_energy>  (1) 
0

>  <r_i_docking_score>  (1) 
-7.442053864754512

>  <r_i_glide_ecoul>  (1) 
-8.3621748769584876

>  <r_i_glide_eff_state_penalty>  (1) 
1.164692401901477

>  <r_i_glide_einternal>  (1) 
23.686879666014988

>  <r_i_glide_emodel>  (1) 
-31.654755438991273

>  <r_i_glide_emodel_strain>  (1) 
7.2243784191200717

>  <r_i_glide_energy>  (1) 
-38.66222853745802

>  <r_i_glide_erotb>  (1) 
0.2643022598508753

>  <r_i_glide_esite>  (1) 
-0.037232993172659302

>  <r_i_glide_evdw>  (1) 
-30.300053660499533

>  <r_i_glide_gscore>  (1) 
-8.6067462666559891

>  <r_i_glide_gscore_strain>  (1) 
0.80609460478001793

>  <r_i_glide_hbond>  (1) 
-0.74245030182059935

>  <r_i_glide_ligand_efficiency>  (1) 
-0.15834157159052153

>  <r_i_glide_ligand_efficiency_ln>  (1) 
-1.5343973989844355

>  <r_i_glide_ligand_efficiency_sa>  (1) 
-0.57142719312602241

>  <r_i_glide_lipo>  (1) 
-3.9583375983087667

>  <r_i_glide_metal>  (1) 
-0

>  <r_i_glide_rewards>  (1) 
-2.1697933234161084

>  <r_lp_Energy>  (1) 
32.034796

>  <s_epik_Chemistry_Notes>  (1) 
This compound contains an acetal/aminal-like group ( X-CH(R)-Y where X, Y are N, S, or O) that may be acid/base labile, releasing an aldehyde.

>  <s_epik_cmdline>  (1) 
J2VwaWtfcHl0aG9uJywgJy1waHQnLCAnMS4wJywgJy1waCcsICc3LjQnLCAnLXRuJywgJzgnLCAnLW1hJywgJzUwMCcsICctaW1hZScsICc8aW5maWxlLm1hZT4nLCAnLW9tYWUnLCAnPG91dGZpbGUubWFlPic=

>  <s_epik_input>  (1) 
W09IXUMoPU8pW0NAQEhdKFtDSDNdKUMoTzEpPVtDSF1bQ0gyXVtDQEhdKFtDSDJdW0NAXTEyW0NASF0oW0NIM10pW0NAQEhdMltDSDNdKVtDSDJdW0NIMl1OM1tDSDJdW0NIMl1PW0NAQEhdKEMoPU8pW05IXUMjTilbQ0BASF0oW0NAQEhdKFtDSDJdMylPW0NIM10pQyg9TylTKD1PKVtDQEBIXTRTQyg9TylbTkhdW0NASF00W0NIMl1bQ0BIXShbT0hdKVtDSDNd

>  <s_glide_docking_method>  (1) 
confgen

>  <s_i_glide_gridfile>  (1) 
gpcr_5ht2c_6bqh_protein_autoprepared_prepared

>  <s_lp_Force_Field>  (1) 
S-OPLS

>  <s_lp_Variant>  (1) 
DiffSBDD_7_num_sample_50-6

>  <s_m_source_file>  (1) 
generated__ligand_DiffSBDD_2026-05-06_prepared.sdf

>  <GenAI_Model>  (1) 
DiffSBDD

>  <Protein>  (1) 
GPCR_5HT2C

$$$$
DiffSBDD_26_num_sample_50
     RDKit          3D

  0  0  0  0  0  0  0  0  0  0999 V3000
M  V30 BEGIN CTAB
M  V30 COUNTS 96 102 0 0 1
M  V30 BEGIN ATOM
M  V30 1 C 43.776684 29.663975 67.077416 0
M  V30 2 N 43.474639 27.616384 65.602075 0
M  V30 3 C 38.927779 28.528823 55.837339 0
M  V30 4 C 39.563140 33.988976 59.987219 0
M  V30 5 N 44.638247 28.073948 63.853522 0 CHG=1
M  V30 6 N 40.386724 31.971833 63.749591 0
M  V30 7 C 42.074250 34.079332 65.326283 0
M  V30 8 C 42.845705 32.021626 66.411665 0
M  V30 9 C 37.867530 30.109560 57.359660 0
M  V30 10 C 44.033013 28.865932 65.831462 0
M  V30 11 C 39.250047 30.380450 62.134716 0
M  V30 12 C 41.341996 29.869648 66.220603 0
M  V30 13 O 36.096155 33.221260 59.053491 0
M  V30 14 C 39.988920 33.213914 63.085708 0
M  V30 15 N 39.527493 29.872354 60.766775 0 CFG=2 CHG=1
M  V30 16 C 43.842576 27.174893 64.406722 0
M  V30 17 S 39.191158 35.934414 61.845602 0
M  V30 18 C 37.850026 35.601418 60.672719 0
M  V30 19 C 40.640133 32.052635 65.209739 0 CFG=1
M  V30 20 N 43.467458 26.022856 63.853448 0
M  V30 21 C 38.025545 29.583487 56.066523 0
M  V30 22 C 40.331254 27.970647 59.379496 0
M  V30 23 C 44.789043 29.142872 64.701833 0
M  V30 24 C 40.667096 26.858178 56.667952 0
M  V30 25 C 39.522407 28.530817 58.216957 0
M  V30 26 C 44.971480 30.109135 67.910099 0
M  V30 27 C 40.989062 33.771211 62.067396 0
M  V30 28 C 37.312949 33.888928 58.814828 0
M  V30 29 C 38.051572 34.178057 60.139021 0 CFG=1
M  V30 30 C 44.077240 29.026878 68.427989 0
M  V30 31 C 40.533321 30.758603 62.928004 0
M  V30 32 C 39.684475 27.998202 56.911732 0
M  V30 33 O 43.919179 32.543498 66.713617 0
M  V30 34 C 38.411787 30.163624 59.831429 0
M  V30 35 C 40.996689 35.112519 65.657341 0
M  V30 36 O 39.067645 28.020448 54.577629 0
M  V30 37 C 40.195189 30.817794 65.995884 0
M  V30 38 C 42.267347 35.106662 66.423988 0
M  V30 39 C 40.327496 34.740122 61.079993 0 CFG=1
M  V30 40 C 42.588781 26.837676 66.487469 0
M  V30 41 C 42.529085 30.573509 66.902448 0 CFG=1
M  V30 42 N 41.895750 32.692512 65.691712 0
M  V30 43 C 39.834217 28.424887 60.757457 0
M  V30 44 C 38.608638 29.588790 58.435614 0
M  V30 45 H 39.891284 34.411424 59.053489 0
M  V30 46 H 39.829214 32.934558 59.939541 0
M  V30 47 H 42.716913 34.256515 64.470054 0
M  V30 48 H 37.168894 30.913000 57.528263 0
M  V30 49 H 38.576837 31.228146 62.046068 0
M  V30 50 H 38.666822 29.629179 62.658033 0
M  V30 51 H 41.628424 29.419831 65.278756 0
M  V30 52 H 40.977687 29.060281 66.852712 0
M  V30 53 H 35.815051 32.801990 58.233250 0
M  V30 54 H 39.000505 33.106555 62.651794 0
M  V30 55 H 39.867310 33.996449 63.819623 0
M  V30 56 H 36.877152 35.729227 61.148850 0
M  V30 57 H 37.926613 36.329565 59.864259 0
M  V30 58 H 39.867632 32.747722 65.526719 0
M  V30 59 H 42.856126 25.371576 64.323350 0
M  V30 60 H 43.777444 25.737503 62.934204 0
M  V30 61 H 37.448137 29.989511 55.249111 0
M  V30 62 H 40.267446 26.884404 59.342605 0
M  V30 63 H 41.377104 28.246189 59.244109 0
M  V30 64 H 45.394058 30.002876 64.448706 0
M  V30 65 H 40.346798 25.959012 57.194574 0
M  V30 66 H 40.762480 26.593165 55.616234 0
M  V30 67 H 41.661080 27.130430 57.023482 0
M  V30 68 H 45.954487 29.822978 67.549809 0
M  V30 69 H 44.936632 31.051985 68.452756 0
M  V30 70 H 41.782400 34.304510 62.581421 0
M  V30 71 H 41.486793 32.980452 61.509291 0
M  V30 72 H 37.127848 34.804009 58.253556 0
M  V30 73 H 37.910776 33.242139 58.172082 0
M  V30 74 H 37.709658 33.475921 60.900337 0
M  V30 75 H 43.424933 29.273116 69.264349 0
M  V30 76 H 44.499908 28.024596 68.452025 0
M  V30 77 H 40.834148 29.897832 63.510936 0
M  V30 78 H 41.358402 30.934113 62.240227 0
M  V30 79 H 38.276484 31.240509 59.747143 0
M  V30 80 H 37.478534 29.761564 60.229025 0
M  V30 81 H 40.843305 35.929056 64.953505 0
M  V30 82 H 40.128872 34.841912 66.253581 0
M  V30 83 H 38.494920 28.427148 53.946221 0
M  V30 84 H 39.867238 31.135254 66.984884 0
M  V30 85 H 39.344998 30.318569 65.528503 0
M  V30 86 H 42.209430 34.742546 67.446479 0
M  V30 87 H 42.882285 35.987817 66.252300 0
M  V30 88 H 41.123557 35.323037 60.617779 0
M  V30 89 H 43.078427 25.895716 66.737671 0
M  V30 90 H 42.372270 27.371042 67.409279 0
M  V30 91 H 41.650490 26.634367 65.970291 0
M  V30 92 H 42.185187 30.774445 67.918005 0
M  V30 93 H 38.924414 27.884263 61.015627 0
M  V30 94 H 40.574339 28.173202 61.518148 0
M  V30 95 H 45.061610 27.985955 62.935860 0
M  V30 96 H 40.331635 30.364247 60.408979 0
M  V30 END ATOM
M  V30 BEGIN BOND
M  V30 1 1 10 1
M  V30 2 1 10 2
M  V30 3 1 14 6
M  V30 4 1 15 11
M  V30 5 1 16 2
M  V30 6 2 16 5
M  V30 7 1 18 17
M  V30 8 1 19 6
M  V30 9 1 20 16
M  V30 10 1 21 3
M  V30 11 2 21 9
M  V30 12 1 23 5
M  V30 13 2 23 10
M  V30 14 1 25 22
M  V30 15 1 26 1
M  V30 16 1 27 14
M  V30 17 1 28 13
M  V30 18 1 29 4
M  V30 19 1 29 18
M  V30 20 1 29 28
M  V30 21 1 30 1
M  V30 22 1 30 26
M  V30 23 1 31 6
M  V30 24 1 31 11
M  V30 25 2 32 3
M  V30 26 1 32 24
M  V30 27 1 32 25
M  V30 28 2 33 8
M  V30 29 1 34 15
M  V30 30 1 35 7
M  V30 31 1 36 3
M  V30 32 1 37 12
M  V30 33 1 37 19
M  V30 34 1 38 7
M  V30 35 1 38 35
M  V30 36 1 39 4
M  V30 37 1 39 17
M  V30 38 1 39 27
M  V30 39 1 40 2
M  V30 40 1 41 1
M  V30 41 1 41 8
M  V30 42 1 41 12
M  V30 43 1 42 7
M  V30 44 1 42 8
M  V30 45 1 42 19
M  V30 46 1 43 15
M  V30 47 1 43 22
M  V30 48 1 44 9
M  V30 49 2 44 25
M  V30 50 1 44 34
M  V30 51 1 45 4
M  V30 52 1 46 4
M  V30 53 1 47 7
M  V30 54 1 48 9
M  V30 55 1 49 11
M  V30 56 1 50 11
M  V30 57 1 51 12
M  V30 58 1 52 12
M  V30 59 1 53 13
M  V30 60 1 54 14
M  V30 61 1 55 14
M  V30 62 1 56 18
M  V30 63 1 57 18
M  V30 64 1 19 58 CFG=1
M  V30 65 1 59 20
M  V30 66 1 60 20
M  V30 67 1 61 21
M  V30 68 1 62 22
M  V30 69 1 63 22
M  V30 70 1 64 23
M  V30 71 1 65 24
M  V30 72 1 66 24
M  V30 73 1 67 24
M  V30 74 1 68 26
M  V30 75 1 69 26
M  V30 76 1 70 27
M  V30 77 1 71 27
M  V30 78 1 72 28
M  V30 79 1 73 28
M  V30 80 1 29 74 CFG=1
M  V30 81 1 75 30
M  V30 82 1 76 30
M  V30 83 1 77 31
M  V30 84 1 78 31
M  V30 85 1 79 34
M  V30 86 1 80 34
M  V30 87 1 81 35
M  V30 88 1 82 35
M  V30 89 1 83 36
M  V30 90 1 84 37
M  V30 91 1 85 37
M  V30 92 1 86 38
M  V30 93 1 87 38
M  V30 94 1 39 88 CFG=3
M  V30 95 1 89 40
M  V30 96 1 90 40
M  V30 97 1 91 40
M  V30 98 1 41 92 CFG=1
M  V30 99 1 93 43
M  V30 100 1 94 43
M  V30 101 1 95 5
M  V30 102 1 15 96 CFG=3
M  V30 END BOND
M  V30 END CTAB
M  END
>  <i_epik_Tot_Q>  (1) 
2

>  <i_epik_Tot_abs_Q>  (1) 
2

>  <i_i_glide_confnum>  (1) 
3372

>  <i_i_glide_lignum>  (1) 
68

>  <i_i_glide_posenum>  (1) 
226

>  <i_i_glide_rotatable_bonds>  (1) 
13

>  <i_lp_mmshare_version>  (1) 
72125

>  <i_m_source_file_index>  (1) 
27

>  <i_f3d_flags>  (1) 
0

>  <num_sample>  (1) 
50

>  <b_lp_Chiralities_Consistent>  (1) 
1

>  <r_epik_Charging_Adjusted_Penalty>  (1) 
0.023035094209541071

>  <r_epik_Ionization_Penalty>  (1) 
0.04084289902745275

>  <r_epik_Ionization_Penalty_Charging>  (1) 
0.023035094209541071

>  <r_epik_Ionization_Penalty_Neutral>  (1) 
0.017807804817911676

>  <r_epik_State_Penalty>  (1) 
-0

>  <r_glide_ring_energy>  (1) 
0

>  <r_i_docking_score>  (1) 
-7.4290225088343753

>  <r_i_glide_ecoul>  (1) 
-6.1391275391290652

>  <r_i_glide_eff_state_penalty>  (1) 
-0

>  <r_i_glide_einternal>  (1) 
28.274175737750404

>  <r_i_glide_emodel>  (1) 
-53.06549845431347

>  <r_i_glide_emodel_strain>  (1) 
6.8320573401033755

>  <r_i_glide_energy>  (1) 
-52.730241112043281

>  <r_i_glide_erotb>  (1) 
0.45984128746928787

>  <r_i_glide_esite>  (1) 
-0.006561097310893613

>  <r_i_glide_evdw>  (1) 
-46.591113572914217

>  <r_i_glide_gscore>  (1) 
-7.4290225088343753

>  <r_i_glide_gscore_strain>  (1) 
0.70801433502584388

>  <r_i_glide_hbond>  (1) 
-0.16

>  <r_i_glide_ligand_efficiency>  (1) 
-0.1688414206553267

>  <r_i_glide_ligand_efficiency_ln>  (1) 
-1.5528277675627984

>  <r_i_glide_ligand_efficiency_sa>  (1) 
-0.59606902834462028

>  <r_i_glide_lipo>  (1) 
-3.8059417110086775

>  <r_i_glide_metal>  (1) 
-0

>  <r_i_glide_rewards>  (1) 
-1.3739505134948651

>  <r_lp_Energy>  (1) 
49.558928999999999

>  <r_lp_tautomer_probability>  (1) 
1

>  <s_epik_Chemistry_Notes>  (1) 
This compound contains an acetal/aminal-like group ( X-CH(R)-Y where X, Y are N, S, or O) that may be acid/base labile, releasing an aldehyde.

>  <s_epik_cmdline>  (1) 
J2VwaWtfcHl0aG9uJywgJy1waHQnLCAnMS4wJywgJy1waCcsICc3LjQnLCAnLXRuJywgJzgnLCAnLW1hJywgJzUwMCcsICctaW1hZScsICc8aW5maWxlLm1hZT4nLCAnLW9tYWUnLCAnPG91dGZpbGUubWFlPic=

>  <s_epik_input>  (1) 
W05IMl1jMW5bY0hdYyhuMVtDSDNdKUMyKFtDSDJdW0NIMl0yKVtDQEBIXShDMz1PKVtDSDJdW0NIMl1bQ0BASF0oTjNbQ0hdNFtDSDJdW0NIMl00KU4oW0NIMl1bQ0gyXVtDQEhdKFNbQ0gyXTUpW0NIMl1bQ0BASF01W0NIMl1bT0hdKVtDSDJdW0NIMl1OKFtDSDJdW0NIMl02KVtDSDJdYyhjNjcpW2NIXVtjSF1jKFtPSF0pYzdbQ0gzXQ==

>  <s_glide_docking_method>  (1) 
confgen

>  <s_i_glide_gridfile>  (1) 
gpcr_5ht2c_6bqh_protein_autoprepared_prepared

>  <s_lp_Force_Field>  (1) 
S-OPLS

>  <s_lp_Variant>  (1) 
DiffSBDD_26_num_sample_50-1

>  <s_m_source_file>  (1) 
generated__ligand_DiffSBDD_2026-05-06_prepared.sdf

>  <GenAI_Model>  (1) 
DiffSBDD

>  <Protein>  (1) 
GPCR_5HT2C

$$$$
DiffSBDD_19_num_sample_50
     RDKit          3D

  0  0  0  0  0  0  0  0  0  0999 V3000
M  V30 BEGIN CTAB
M  V30 COUNTS 46 49 0 0 1
M  V30 BEGIN ATOM
M  V30 1 N 40.926988 32.356206 62.924203 0
M  V30 2 C 37.945535 31.042243 59.765201 0
M  V30 3 C 40.964829 33.549454 62.060818 0
M  V30 4 C 39.763883 29.217437 60.031478 0
M  V30 5 N 39.282452 28.642062 58.891181 0
M  V30 6 C 37.101916 30.011097 59.043775 0
M  V30 7 C 38.900181 30.316207 60.712355 0 CFG=1
M  V30 8 F 40.828792 35.887487 62.126184 0
M  V30 9 O 40.195582 30.139023 63.205108 0
M  V30 10 O 40.843769 28.896342 60.525775 0
M  V30 11 N 41.443720 34.904061 64.091053 0
M  V30 12 N 39.867350 29.662090 55.002528 0
M  V30 13 C 38.170476 29.388895 56.739099 0 CFG=2
M  V30 14 O 39.712645 31.326733 61.314715 0
M  V30 15 C 38.058968 30.800185 56.135582 0
M  V30 16 O 40.879188 36.003379 64.851816 0
M  V30 17 C 41.291616 33.728967 64.949746 0
M  V30 18 C 37.996876 29.045733 58.256729 0 CFG=1
M  V30 19 C 40.071077 27.623132 58.159567 0
M  V30 20 C 40.623913 34.808374 62.884166 0 CFG=2
M  V30 21 C 39.516984 29.036935 56.174810 0
M  V30 22 C 40.375335 28.228670 56.808647 0
M  V30 23 C 41.644848 32.435014 64.196377 0
M  V30 24 C 40.268122 31.173450 62.544752 0
M  V30 25 C 39.068687 30.642247 55.014859 0
M  V30 26 H 37.303523 31.723506 60.323589 0
M  V30 27 H 38.502975 31.650023 59.053832 0
M  V30 28 H 41.973449 33.618919 61.654750 0
M  V30 29 H 40.293000 33.541082 61.203096 0
M  V30 30 H 36.361328 30.464602 58.388323 0
M  V30 31 H 36.527940 29.453830 59.784393 0
M  V30 32 H 38.301769 29.835320 61.485223 0
M  V30 33 H 38.383421 31.597345 56.802474 0
M  V30 34 H 41.470818 36.725303 64.656263 0
M  V30 35 H 41.933302 33.833277 65.826447 0
M  V30 36 H 40.267404 33.655437 65.316091 0
M  V30 37 H 37.436506 28.110406 58.248929 0
M  V30 38 H 41.008455 27.356381 58.650136 0
M  V30 39 H 39.498931 26.702655 58.038780 0
M  V30 40 H 39.565914 34.804493 63.151772 0
M  V30 41 H 41.345935 28.020176 56.379769 0
M  V30 42 H 42.706127 32.405964 63.973311 0
M  V30 43 H 41.447009 31.579597 64.844015 0
M  V30 44 H 39.058920 31.413981 54.238560 0
M  V30 45 H 37.467012 28.763317 56.188659 0
M  V30 46 H 37.069127 31.023319 55.742505 0
M  V30 END ATOM
M  V30 BEGIN BOND
M  V30 1 1 3 1
M  V30 2 1 5 4
M  V30 3 1 6 2
M  V30 4 1 7 2
M  V30 5 1 7 4
M  V30 6 2 10 4
M  V30 7 1 14 7
M  V30 8 1 15 13
M  V30 9 1 16 11
M  V30 10 1 17 11
M  V30 11 1 18 5
M  V30 12 1 18 6
M  V30 13 1 18 13
M  V30 14 1 19 5
M  V30 15 1 20 3
M  V30 16 1 20 8
M  V30 17 1 20 11
M  V30 18 1 21 12
M  V30 19 1 21 13
M  V30 20 1 22 19
M  V30 21 2 22 21
M  V30 22 1 23 1
M  V30 23 1 23 17
M  V30 24 1 24 1
M  V30 25 2 24 9
M  V30 26 1 24 14
M  V30 27 2 25 12
M  V30 28 1 25 15
M  V30 29 1 26 2
M  V30 30 1 27 2
M  V30 31 1 28 3
M  V30 32 1 29 3
M  V30 33 1 30 6
M  V30 34 1 31 6
M  V30 35 1 7 32 CFG=1
M  V30 36 1 33 15
M  V30 37 1 34 16
M  V30 38 1 35 17
M  V30 39 1 36 17
M  V30 40 1 18 37 CFG=3
M  V30 41 1 38 19
M  V30 42 1 39 19
M  V30 43 1 20 40 CFG=1
M  V30 44 1 41 22
M  V30 45 1 42 23
M  V30 46 1 43 23
M  V30 47 1 44 25
M  V30 48 1 13 45 CFG=3
M  V30 49 1 46 15
M  V30 END BOND
M  V30 END CTAB
M  END
>  <i_epik_Tot_Q>  (1) 
0

>  <i_epik_Tot_abs_Q>  (1) 
0

>  <i_i_glide_confnum>  (1) 
11

>  <i_i_glide_lignum>  (1) 
55

>  <i_i_glide_posenum>  (1) 
183

>  <i_i_glide_rotatable_bonds>  (1) 
4

>  <i_lp_mmshare_version>  (1) 
72125

>  <i_m_source_file_index>  (1) 
20

>  <i_f3d_flags>  (1) 
0

>  <num_sample>  (1) 
50

>  <b_lp_Chiralities_Consistent>  (1) 
1

>  <r_epik_Charging_Adjusted_Penalty>  (1) 
0

>  <r_epik_Ionization_Penalty>  (1) 
0.00023690808741792311

>  <r_epik_Ionization_Penalty_Charging>  (1) 
0

>  <r_epik_Ionization_Penalty_Neutral>  (1) 
0.00023690808741792311

>  <r_epik_State_Penalty>  (1) 
-0

>  <r_glide_ring_energy>  (1) 
0

>  <r_i_docking_score>  (1) 
-7.425506930736403

>  <r_i_glide_ecoul>  (1) 
-4.5522942397081723

>  <r_i_glide_eff_state_penalty>  (1) 
-0

>  <r_i_glide_einternal>  (1) 
4.8526035861038697

>  <r_i_glide_emodel>  (1) 
-58.606633111032977

>  <r_i_glide_emodel_strain>  (1) 
0.073634159195918869

>  <r_i_glide_energy>  (1) 
-41.910145368893872

>  <r_i_glide_erotb>  (1) 
0.46110279215177946

>  <r_i_glide_esite>  (1) 
-0.063649715279907079

>  <r_i_glide_evdw>  (1) 
-37.357851129185697

>  <r_i_glide_gscore>  (1) 
-7.425506930736403

>  <r_i_glide_gscore_strain>  (1) 
0

>  <r_i_glide_hbond>  (1) 
-0.43737644638830675

>  <r_i_glide_ligand_efficiency>  (1) 
-0.29702027722945612

>  <r_i_glide_ligand_efficiency_ln>  (1) 
-1.7600676670706179

>  <r_i_glide_ligand_efficiency_sa>  (1) 
-0.86849255922783275

>  <r_i_glide_lipo>  (1) 
-1.5787029855511936

>  <r_i_glide_metal>  (1) 
-0

>  <r_i_glide_rewards>  (1) 
-3.2561438832532632

>  <r_lp_Energy>  (1) 
47.112966999999998

>  <r_lp_tautomer_probability>  (1) 
1

>  <s_epik_Chemistry_Notes>  (1) 
This compound has an ester and may undergo hydrolysis at high or low pH. This compound has an imine and may undergo hydrolysis. This compound has a N-S or N-O group and may undergo hydrolysis at high or low pH.

>  <s_epik_cmdline>  (1) 
J2VwaWtfcHl0aG9uJywgJy1waHQnLCAnMS4wJywgJy1waCcsICc3LjQnLCAnLXRuJywgJzgnLCAnLW1hJywgJzUwMCcsICctaW1hZScsICc8aW5maWxlLm1hZT4nLCAnLW9tYWUnLCAnPG91dGZpbGUubWFlPic=

>  <s_epik_input>  (1) 
W0NIMl0xW0NIMl1OKFtPSF0pW0NAQEhdKEYpW0NIMl1OMUMoPU8pT1tDQEhdKEMyPU8pW0NIMl1bQ0gyXVtDQEBIXShOMjMpQz00QyhbQ0gyXVtDSDJdMyk9TltDSDJdW0NIXTQ=

>  <s_glide_docking_method>  (1) 
confgen

>  <s_i_glide_gridfile>  (1) 
gpcr_5ht2c_6bqh_protein_autoprepared_prepared

>  <s_lp_Force_Field>  (1) 
S-OPLS

>  <s_lp_Variant>  (1) 
DiffSBDD_19_num_sample_50-4

>  <s_m_source_file>  (1) 
generated__ligand_DiffSBDD_2026-05-06_prepared.sdf

>  <GenAI_Model>  (1) 
DiffSBDD

>  <Protein>  (1) 
GPCR_5HT2C

$$$$
DiffSBDD_13_num_sample_50
     RDKit          3D

  0  0  0  0  0  0  0  0  0  0999 V3000
M  V30 BEGIN CTAB
M  V30 COUNTS 68 71 0 0 1
M  V30 BEGIN ATOM
M  V30 1 C 36.935120 30.415977 59.589881 0
M  V30 2 C 39.780563 29.807650 50.828091 0
M  V30 3 N 38.767207 36.619201 62.060981 0
M  V30 4 C 39.265153 28.855134 53.418308 0
M  V30 5 C 40.936287 36.786174 62.003056 0
M  V30 6 N 37.867402 28.649710 55.543346 0 CFG=2 CHG=1
M  V30 7 F 41.447711 30.421490 49.453502 0
M  V30 8 C 38.472376 34.275547 61.385024 0
M  V30 9 C 37.951354 26.537376 56.700236 0 CFG=1
M  V30 10 C 38.043577 31.407756 62.241083 0
M  V30 11 C 37.867433 28.047617 56.899202 0
M  V30 12 C 39.362267 35.470801 61.715859 0
M  V30 13 C 37.662896 31.776483 59.655668 0 CFG=1
M  V30 14 N 37.673360 37.053381 61.282464 0
M  V30 15 N 39.285525 26.261395 56.216501 0
M  V30 16 O 37.240014 34.312416 61.444129 0
M  V30 17 O 37.868549 29.354637 59.606040 0
M  V30 18 C 39.118520 28.298839 54.828575 0 CFG=1
M  V30 19 C 38.267381 31.576593 57.224939 0
M  V30 20 C 40.119792 30.300952 49.456614 0
M  V30 21 C 38.877128 28.087512 52.294778 0
M  V30 22 C 37.905497 25.592717 57.867630 0
M  V30 23 C 39.140951 28.564569 51.001246 0
M  V30 24 C 37.320373 30.034151 55.499213 0
M  V30 25 N 40.623712 35.358937 61.670128 0
M  V30 26 C 38.447587 24.346658 57.174887 0
M  V30 27 C 39.867405 30.110964 53.230622 0
M  V30 28 C 40.123787 30.583391 51.941654 0
M  V30 29 O 39.719290 37.596988 62.253513 0
M  V30 30 C 38.234587 31.154128 55.982307 0
M  V30 31 C 38.612590 31.878878 60.887205 0 CFG=1
M  V30 32 O 39.187631 33.174017 61.038247 0
M  V30 33 C 39.349609 26.750340 54.848864 0
M  V30 34 C 38.418944 32.176538 58.385383 0
M  V30 35 O 39.343488 24.821437 56.169091 0
M  V30 36 H 36.298503 30.345417 58.707517 0
M  V30 37 H 36.263353 30.308901 60.440253 0
M  V30 38 H 41.593277 36.821549 62.873411 0
M  V30 39 H 41.467394 37.221425 61.160473 0
M  V30 40 H 37.194072 26.215480 55.980257 0
M  V30 41 H 37.867416 30.335075 62.250273 0
M  V30 42 H 38.756052 31.603041 63.043554 0
M  V30 43 H 37.110409 31.914575 62.485287 0
M  V30 44 H 38.720839 28.419326 57.466462 0
M  V30 45 H 36.968268 28.301298 57.453542 0
M  V30 46 H 36.872915 32.520002 59.753111 0
M  V30 47 H 37.089893 36.244823 61.068375 0
M  V30 48 H 37.115460 37.706307 61.828834 0
M  V30 49 H 38.359292 29.388427 60.413558 0
M  V30 50 H 39.930433 28.746436 55.406375 0
M  V30 51 H 39.835004 29.610714 48.664777 0
M  V30 52 H 39.674510 31.281102 49.281260 0
M  V30 53 H 38.412383 27.122519 52.421738 0
M  V30 54 H 38.559226 25.922317 58.677357 0
M  V30 55 H 36.897432 25.447449 58.253499 0
M  V30 56 H 38.873214 27.969181 50.142212 0
M  V30 57 H 36.393132 30.021436 56.072767 0
M  V30 58 H 37.020729 30.266229 54.476796 0
M  V30 59 H 37.635787 23.806996 56.685606 0
M  V30 60 H 38.938892 23.653004 57.853455 0
M  V30 61 H 40.183768 30.691239 54.078524 0
M  V30 62 H 40.614248 31.536308 51.804891 0
M  V30 63 H 38.863982 31.608110 55.241230 0
M  V30 64 H 39.464379 31.229844 60.679200 0
M  V30 65 H 40.325682 26.503253 54.431555 0
M  V30 66 H 38.604204 26.215750 54.260654 0
M  V30 67 H 39.106410 33.002825 58.484653 0
M  V30 68 H 37.161842 28.123894 55.049871 0
M  V30 END ATOM
M  V30 BEGIN BOND
M  V30 1 1 11 6
M  V30 2 1 11 9
M  V30 3 1 12 3
M  V30 4 1 12 8
M  V30 5 1 13 1
M  V30 6 1 14 3
M  V30 7 1 15 9
M  V30 8 2 16 8
M  V30 9 1 17 1
M  V30 10 1 18 4
M  V30 11 1 18 6
M  V30 12 1 20 2
M  V30 13 1 20 7
M  V30 14 1 21 4
M  V30 15 1 22 9
M  V30 16 1 23 2
M  V30 17 2 23 21
M  V30 18 1 24 6
M  V30 19 1 25 5
M  V30 20 2 25 12
M  V30 21 1 26 22
M  V30 22 2 27 4
M  V30 23 2 28 2
M  V30 24 1 28 27
M  V30 25 1 29 3
M  V30 26 1 29 5
M  V30 27 2 30 19
M  V30 28 1 30 24
M  V30 29 1 31 10
M  V30 30 1 31 13
M  V30 31 1 32 8
M  V30 32 1 32 31
M  V30 33 1 33 15
M  V30 34 1 33 18
M  V30 35 1 34 13
M  V30 36 2 34 19
M  V30 37 1 35 15
M  V30 38 1 35 26
M  V30 39 1 36 1
M  V30 40 1 37 1
M  V30 41 1 38 5
M  V30 42 1 39 5
M  V30 43 1 9 40 CFG=3
M  V30 44 1 41 10
M  V30 45 1 42 10
M  V30 46 1 43 10
M  V30 47 1 44 11
M  V30 48 1 45 11
M  V30 49 1 13 46 CFG=1
M  V30 50 1 47 14
M  V30 51 1 48 14
M  V30 52 1 49 17
M  V30 53 1 18 50 CFG=1
M  V30 54 1 51 20
M  V30 55 1 52 20
M  V30 56 1 53 21
M  V30 57 1 54 22
M  V30 58 1 55 22
M  V30 59 1 56 23
M  V30 60 1 57 24
M  V30 61 1 58 24
M  V30 62 1 59 26
M  V30 63 1 60 26
M  V30 64 1 61 27
M  V30 65 1 62 28
M  V30 66 1 63 30
M  V30 67 1 31 64 CFG=3
M  V30 68 1 65 33
M  V30 69 1 66 33
M  V30 70 1 67 34
M  V30 71 1 6 68 CFG=3
M  V30 END BOND
M  V30 END CTAB
M  END
>  <i_epik_Tot_Q>  (1) 
1

>  <i_epik_Tot_abs_Q>  (1) 
1

>  <i_i_glide_confnum>  (1) 
1198

>  <i_i_glide_lignum>  (1) 
44

>  <i_i_glide_posenum>  (1) 
102

>  <i_i_glide_rotatable_bonds>  (1) 
11

>  <i_lp_mmshare_version>  (1) 
72125

>  <i_m_source_file_index>  (1) 
14

>  <i_f3d_flags>  (1) 
0

>  <num_sample>  (1) 
50

>  <b_lp_Chiralities_Consistent>  (1) 
1

>  <r_epik_Charging_Adjusted_Penalty>  (1) 
1.4651263053542571

>  <r_epik_Ionization_Penalty>  (1) 
0.72306607658712641

>  <r_epik_Ionization_Penalty_Charging>  (1) 
0.72300917426663169

>  <r_epik_Ionization_Penalty_Neutral>  (1) 
5.6902320494737884e-05

>  <r_epik_State_Penalty>  (1) 
0.74211713108762534

>  <r_glide_ring_energy>  (1) 
0

>  <r_i_docking_score>  (1) 
-7.4126110607944282

>  <r_i_glide_ecoul>  (1) 
-1.8142789368107239

>  <r_i_glide_eff_state_penalty>  (1) 
0.74211713108762534

>  <r_i_glide_einternal>  (1) 
7.7389003865576713

>  <r_i_glide_emodel>  (1) 
-67.165493974410722

>  <r_i_glide_emodel_strain>  (1) 
1.8919951167290066

>  <r_i_glide_energy>  (1) 
-49.748502367098958

>  <r_i_glide_erotb>  (1) 
0.76112016271400151

>  <r_i_glide_esite>  (1) 
0

>  <r_i_glide_evdw>  (1) 
-47.934223430288235

>  <r_i_glide_gscore>  (1) 
-8.1547281918820538

>  <r_i_glide_gscore_strain>  (1) 
0

>  <r_i_glide_hbond>  (1) 
0

>  <r_i_glide_ligand_efficiency>  (1) 
-0.21178888745126936

>  <r_i_glide_ligand_efficiency_ln>  (1) 
-1.6272326418830896

>  <r_i_glide_ligand_efficiency_sa>  (1) 
-0.69277549461417032

>  <r_i_glide_lipo>  (1) 
-3.6051847262504721

>  <r_i_glide_metal>  (1) 
-0

>  <r_i_glide_rewards>  (1) 
-2.641810616309562

>  <r_lp_Energy>  (1) 
-5.3362069999999999

>  <s_epik_Chemistry_Notes>  (1) 
This compound has an ester and may undergo hydrolysis at high or low pH. This compound has an imine and may undergo hydrolysis. This compound contains an acetal/aminal-like group ( X-CH(R)-Y where X, Y are N, S, or O) that may be acid/base labile, releasing an aldehyde. This compound has a N-S or N-O group and may undergo hydrolysis at high or low pH.

>  <s_epik_cmdline>  (1) 
J2VwaWtfcHl0aG9uJywgJy1waHQnLCAnMS4wJywgJy1waCcsICc3LjQnLCAnLXRuJywgJzgnLCAnLW1hJywgJzUwMCcsICctaW1hZScsICc8aW5maWxlLm1hZT4nLCAnLW9tYWUnLCAnPG91dGZpbGUubWFlPic=

>  <s_epik_input>  (1) 
TzFbQ0gyXU49QyhOMVtOSDJdKUMoPU8pT1tDQEBIXShbQ0gzXSlbQ0BIXShbQ0gyXVtPSF0pW0NIXT1DPVtDSF1bQ0gyXU4oW0NIMl0yKVtDQEhdKGMoW2NIXVtjSF0zKVtjSF1bY0hdYzNbQ0gyXUYpW0NIMl1OKFtDQEhdMjQpT1tDSDJdW0NIMl00

>  <s_glide_docking_method>  (1) 
confgen

>  <s_i_glide_gridfile>  (1) 
gpcr_5ht2c_6bqh_protein_autoprepared_prepared

>  <s_lp_Force_Field>  (1) 
S-OPLS

>  <s_lp_Variant>  (1) 
DiffSBDD_13_num_sample_50-3

>  <s_m_source_file>  (1) 
generated__ligand_DiffSBDD_2026-05-06_prepared.sdf

>  <GenAI_Model>  (1) 
DiffSBDD

>  <Protein>  (1) 
GPCR_5HT2C

$$$$
DiffSBDD_29_num_sample_50
     RDKit          3D

  0  0  0  0  0  0  0  0  0  0999 V3000
M  V30 BEGIN CTAB
M  V30 COUNTS 79 81 0 0 1
M  V30 BEGIN ATOM
M  V30 1 C 42.148773 29.737052 64.428970 0
M  V30 2 C 39.382002 30.291284 59.377294 0
M  V30 3 C 40.873763 30.518902 64.126659 0
M  V30 4 C 39.775686 27.037525 55.334740 0
M  V30 5 C 37.037189 35.099990 61.770200 0
M  V30 6 C 37.731092 26.139456 56.501603 0
M  V30 7 C 40.764885 33.969648 61.821084 0 CFG=2
M  V30 8 N 37.467624 31.725299 58.653595 0 CHG=1
M  V30 9 C 38.329958 34.653404 61.164685 0 CFG=1
M  V30 10 N 37.735197 27.112386 57.322044 0
M  V30 11 C 39.436819 34.561609 62.243939 0
M  V30 12 C 37.948456 33.061647 59.075092 0 CFG=2
M  V30 13 O 37.067376 30.021423 56.375349 0
M  V30 14 O 40.817649 32.539577 61.750807 0
M  V30 15 C 36.048239 34.251098 61.735074 0
M  V30 16 C 37.698994 26.391717 53.992989 0
M  V30 17 C 36.956662 36.486271 62.391187 0
M  V30 18 C 41.251622 33.026308 64.188371 0
M  V30 19 C 37.791336 33.232562 60.614546 0 CFG=2
M  V30 20 C 39.317710 28.413801 55.798858 0
M  V30 21 C 42.055901 28.619756 65.472150 0
M  V30 22 F 41.196206 27.686672 65.063525 0
M  V30 23 O 39.501828 29.197095 61.513323 0
M  V30 24 O 39.091981 24.821459 55.053735 0
M  V30 25 C 37.037252 37.605448 61.346591 0
M  V30 26 C 38.476112 30.731553 58.199606 0 CFG=2
M  V30 27 F 43.250438 28.053348 65.655222 0
M  V30 28 C 36.289798 32.947665 61.097368 0
M  V30 29 C 38.667098 29.420178 60.405289 0
M  V30 30 C 37.724027 29.549157 57.535192 0 CFG=2
M  V30 31 C 40.914541 31.874566 64.802668 0
M  V30 32 F 41.634171 29.120961 66.633782 0
M  V30 33 C 38.577802 28.298600 57.160560 0 CFG=1
M  V30 34 O 43.206763 29.996109 63.855181 0
M  V30 35 C 41.637804 33.164360 62.753499 0 CFG=2
M  V30 36 C 38.564573 26.100872 55.233570 0 CFG=1
M  V30 37 C 37.181115 34.109234 58.254516 0
M  V30 38 H 39.776702 31.163017 59.889790 0
M  V30 39 H 40.263775 29.764354 59.009451 0
M  V30 40 H 39.995210 29.964392 64.460136 0
M  V30 41 H 40.799892 30.629496 63.050858 0
M  V30 42 H 40.510237 26.645285 56.043268 0
M  V30 43 H 40.267418 27.093002 54.368352 0
M  V30 44 H 37.108392 25.255979 56.666246 0
M  V30 45 H 41.298279 34.515306 61.053551 0
M  V30 46 H 36.825289 31.883676 57.877835 0
M  V30 47 H 38.634213 35.327483 60.365766 0
M  V30 48 H 39.647764 35.545863 62.661734 0
M  V30 49 H 39.067488 33.944867 63.053285 0
M  V30 50 H 39.005523 33.161334 58.822219 0
M  V30 51 H 36.357868 30.629565 56.609192 0
M  V30 52 H 35.073285 34.466916 62.152742 0
M  V30 53 H 37.167067 27.339888 54.078975 0
M  V30 54 H 38.301810 26.436517 53.086910 0
M  V30 55 H 36.955112 25.610416 53.835325 0
M  V30 56 H 36.016668 36.572109 62.937694 0
M  V30 57 H 37.737955 36.610688 63.140406 0
M  V30 58 H 41.250414 33.940690 64.766566 0
M  V30 59 H 38.395027 32.464117 61.092060 0
M  V30 60 H 38.686541 28.834023 55.017334 0
M  V30 61 H 40.169348 29.089940 55.886440 0
M  V30 62 H 39.559977 29.995023 62.016477 0
M  V30 63 H 38.404429 24.250044 54.746075 0
M  V30 64 H 36.890272 38.576480 61.818325 0
M  V30 65 H 38.008963 37.619746 60.852109 0
M  V30 66 H 36.268125 37.487233 60.581924 0
M  V30 67 H 39.105503 31.209476 57.447745 0
M  V30 68 H 35.574476 32.766567 60.296114 0
M  V30 69 H 36.234761 32.146864 61.834760 0
M  V30 70 H 38.386804 28.449302 59.996121 0
M  V30 71 H 37.756250 29.932789 60.707898 0
M  V30 72 H 36.936533 29.232480 58.221791 0
M  V30 73 H 40.654625 31.891232 65.850945 0
M  V30 74 H 39.364302 28.160105 57.897693 0
M  V30 75 H 42.706615 33.129845 62.562842 0
M  V30 76 H 37.455583 35.129697 58.513853 0
M  V30 77 H 37.383243 33.982061 57.189121 0
M  V30 78 H 36.104012 34.021182 58.394785 0
M  V30 79 H 36.915296 31.329797 59.400033 0
M  V30 END ATOM
M  V30 BEGIN BOND
M  V30 1 1 3 1
M  V30 2 1 9 5
M  V30 3 2 10 6
M  V30 4 1 11 7
M  V30 5 1 11 9
M  V30 6 1 12 8
M  V30 7 1 14 7
M  V30 8 2 15 5
M  V30 9 1 17 5
M  V30 10 1 19 9
M  V30 11 1 19 12
M  V30 12 1 20 4
M  V30 13 1 21 1
M  V30 14 1 22 21
M  V30 15 1 25 17
M  V30 16 1 26 2
M  V30 17 1 26 8
M  V30 18 1 27 21
M  V30 19 1 28 15
M  V30 20 1 28 19
M  V30 21 1 29 2
M  V30 22 1 29 23
M  V30 23 1 30 13
M  V30 24 1 30 26
M  V30 25 1 31 3
M  V30 26 2 31 18
M  V30 27 1 32 21
M  V30 28 1 33 10
M  V30 29 1 33 20
M  V30 30 1 33 30
M  V30 31 2 34 1
M  V30 32 1 35 7
M  V30 33 1 35 14
M  V30 34 1 35 18
M  V30 35 1 36 4
M  V30 36 1 36 6
M  V30 37 1 36 16
M  V30 38 1 36 24 CFG=3
M  V30 39 1 37 12
M  V30 40 1 38 2
M  V30 41 1 39 2
M  V30 42 1 40 3
M  V30 43 1 41 3
M  V30 44 1 42 4
M  V30 45 1 43 4
M  V30 46 1 44 6
M  V30 47 1 7 45 CFG=3
M  V30 48 1 46 8
M  V30 49 1 9 47 CFG=3
M  V30 50 1 48 11
M  V30 51 1 49 11
M  V30 52 1 12 50 CFG=1
M  V30 53 1 51 13
M  V30 54 1 52 15
M  V30 55 1 53 16
M  V30 56 1 54 16
M  V30 57 1 55 16
M  V30 58 1 56 17
M  V30 59 1 57 17
M  V30 60 1 58 18
M  V30 61 1 19 59 CFG=1
M  V30 62 1 60 20
M  V30 63 1 61 20
M  V30 64 1 62 23
M  V30 65 1 63 24
M  V30 66 1 64 25
M  V30 67 1 65 25
M  V30 68 1 66 25
M  V30 69 1 26 67 CFG=3
M  V30 70 1 68 28
M  V30 71 1 69 28
M  V30 72 1 70 29
M  V30 73 1 71 29
M  V30 74 1 30 72 CFG=1
M  V30 75 1 73 31
M  V30 76 1 33 74 CFG=1
M  V30 77 1 35 75 CFG=1
M  V30 78 1 76 37
M  V30 79 1 77 37
M  V30 80 1 78 37
M  V30 81 1 79 8
M  V30 END BOND
M  V30 END CTAB
M  END
>  <i_epik_Tot_Q>  (1) 
1

>  <i_epik_Tot_abs_Q>  (1) 
1

>  <i_i_glide_confnum>  (1) 
127

>  <i_i_glide_lignum>  (1) 
76

>  <i_i_glide_posenum>  (1) 
141

>  <i_i_glide_rotatable_bonds>  (1) 
17

>  <i_lp_mmshare_version>  (1) 
72125

>  <i_m_source_file_index>  (1) 
30

>  <i_f3d_flags>  (1) 
0

>  <num_sample>  (1) 
50

>  <b_lp_Chiralities_Consistent>  (1) 
1

>  <r_epik_Charging_Adjusted_Penalty>  (1) 
0.073066720001252791

>  <r_epik_Ionization_Penalty>  (1) 
0.041882768558209021

>  <r_epik_Ionization_Penalty_Charging>  (1) 
0.011280877963412759

>  <r_epik_Ionization_Penalty_Neutral>  (1) 
0.030601890594796264

>  <r_epik_State_Penalty>  (1) 
0.061785842037840037

>  <r_glide_ring_energy>  (1) 
0

>  <r_i_docking_score>  (1) 
-7.4063581038575848

>  <r_i_glide_ecoul>  (1) 
-9.0452891607908104

>  <r_i_glide_eff_state_penalty>  (1) 
0.061785842037840037

>  <r_i_glide_einternal>  (1) 
17.405162624602788

>  <r_i_glide_emodel>  (1) 
-58.133898158316796

>  <r_i_glide_emodel_strain>  (1) 
2.2966126868598593

>  <r_i_glide_energy>  (1) 
-45.371551784083167

>  <r_i_glide_erotb>  (1) 
0.87550365807384167

>  <r_i_glide_esite>  (1) 
-0.095319817638735052

>  <r_i_glide_evdw>  (1) 
-36.326262623292358

>  <r_i_glide_gscore>  (1) 
-7.4681439458954246

>  <r_i_glide_gscore_strain>  (1) 
0

>  <r_i_glide_hbond>  (1) 
-0.35999999999999999

>  <r_i_glide_ligand_efficiency>  (1) 
-0.20017184064479959

>  <r_i_glide_ligand_efficiency_ln>  (1) 
-1.606265443058009

>  <r_i_glide_ligand_efficiency_sa>  (1) 
-0.66701698148079291

>  <r_i_glide_lipo>  (1) 
-3.3559452729697758

>  <r_i_glide_metal>  (1) 
-0

>  <r_i_glide_rewards>  (1) 
-1.3592760080775164

>  <r_lp_Energy>  (1) 
32.688037999999999

>  <s_epik_Chemistry_Notes>  (1) 
This compound has an imine and may undergo hydrolysis.

>  <s_epik_cmdline>  (1) 
J2VwaWtfcHl0aG9uJywgJy1waHQnLCAnMS4wJywgJy1waCcsICc3LjQnLCAnLXRuJywgJzgnLCAnLW1hJywgJzUwMCcsICctaW1hZScsICc8aW5maWxlLm1hZT4nLCAnLW9tYWUnLCAnPG91dGZpbGUubWFlPic=

>  <s_epik_input>  (1) 
RkMoRikoRilDKD1PKVtDSDJdL1tDSF09W0NIXVxbQ0BIXTFPW0NASF0xW0NIMl1bQ0BIXTJbQ0BIXShbQ0gyXVtDSF09QzJbQ0gyXVtDSDNdKVtDQEhdKFtDSDNdKVtOSF1bQ0BASF0oW0NIMl1bQ0gyXVtPSF0pW0NAQEhdKFtPSF0pW0NAQEhdKE49W0NIXTMpW0NIMl1bQ0gyXVtDQEBdMyhbQ0gzXSlbT0hd

>  <s_glide_docking_method>  (1) 
confgen

>  <s_i_glide_gridfile>  (1) 
gpcr_5ht2c_6bqh_protein_autoprepared_prepared

>  <s_lp_Force_Field>  (1) 
S-OPLS

>  <s_lp_Variant>  (1) 
DiffSBDD_29_num_sample_50-4

>  <s_m_source_file>  (1) 
generated__ligand_DiffSBDD_2026-05-06_prepared.sdf

>  <GenAI_Model>  (1) 
DiffSBDD

>  <Protein>  (1) 
GPCR_5HT2C

$$$$
DiffSBDD_49_num_sample_50
     RDKit          3D

  0  0  0  0  0  0  0  0  0  0999 V3000
M  V30 BEGIN CTAB
M  V30 COUNTS 82 89 0 0 1
M  V30 BEGIN ATOM
M  V30 1 C 37.313468 34.903973 61.853464 0
M  V30 2 C 40.755684 33.239009 64.303612 0
M  V30 3 C 37.429229 38.116483 61.785713 0 CFG=1
M  V30 4 O 37.323561 24.772978 56.448129 0
M  V30 5 C 40.986456 32.160366 61.481026 0
M  V30 6 C 38.267392 32.429958 57.119928 0
M  V30 7 C 38.148965 32.667414 59.409926 0 CFG=2
M  V30 8 C 40.673330 31.812434 63.948896 0 CFG=2
M  V30 9 C 38.752609 26.657293 56.498594 0
M  V30 10 O 37.697742 25.854867 54.481337 0
M  V30 11 C 39.713662 34.207761 62.265863 0
M  V30 12 C 42.354653 31.201357 65.878123 0
M  V30 13 C 38.627242 38.733665 61.099144 0
M  V30 14 C 37.881460 25.743801 55.694448 0
M  V30 15 C 38.782361 35.377897 62.016819 0 CFG=2
M  V30 16 O 37.020742 30.591068 59.352915 0
M  V30 17 C 39.405126 33.440095 59.877064 0
M  V30 18 O 36.208082 38.740971 61.453499 0
M  V30 19 C 41.108940 29.447976 64.529424 0
M  V30 20 O 40.267400 35.475886 64.120089 0
M  V30 21 C 38.144975 37.355435 60.676156 0 CFG=2
M  V30 22 C 39.786405 27.318111 58.605887 0
M  V30 23 C 40.298236 34.258842 63.564100 0
M  V30 24 C 39.433964 27.767274 55.726250 0 CFG=1
M  V30 25 C 38.141457 29.857770 56.811179 0
M  V30 26 O 36.667312 23.737182 55.659007 0
M  V30 27 C 38.696480 31.061900 57.614495 0 CFG=2
M  V30 28 O 40.035270 30.821405 66.080540 0
M  V30 29 O 42.267311 30.570653 62.653506 0
M  V30 30 C 40.425048 28.587225 56.558894 0 CFG=2
M  V30 31 C 41.058434 30.847981 65.111057 0 CFG=2
M  V30 32 C 38.297142 31.158222 59.103952 0 CFG=1
M  V30 33 O 37.873404 33.218096 58.122198 0
M  V30 34 C 42.211982 29.417268 63.494269 0
M  V30 35 C 41.304340 31.555551 62.638194 0
M  V30 36 O 38.296333 32.745874 55.931448 0
M  V30 37 C 38.747743 28.573130 54.631636 0
M  V30 38 C 40.004792 33.264369 61.284791 0
M  V30 39 C 40.487858 28.301250 58.022844 0
M  V30 40 C 39.210073 36.138682 63.371082 0
M  V30 41 C 37.546387 37.209550 59.295897 0
M  V30 42 C 38.916786 26.461661 57.829536 0
M  V30 43 O 39.118986 36.333522 61.016081 0
M  V30 44 C 39.207674 29.235463 55.916627 0 CFG=1
M  V30 45 H 37.160545 33.897554 62.250696 0
M  V30 46 H 36.602700 35.580107 62.329104 0
M  V30 47 H 37.032621 34.840011 60.805750 0
M  V30 48 H 41.131670 33.456434 65.289580 0
M  V30 49 H 37.461450 37.825038 62.825739 0
M  V30 50 H 41.498152 31.807909 60.609847 0
M  V30 51 H 37.315094 32.847106 60.085890 0
M  V30 52 H 39.616366 31.630145 63.748482 0
M  V30 53 H 43.189734 31.394020 65.205656 0
M  V30 54 H 42.237762 32.080365 66.510688 0
M  V30 55 H 42.646177 30.387728 66.542266 0
M  V30 56 H 39.563789 38.789377 61.650336 0
M  V30 57 H 38.453229 39.562548 60.416112 0
M  V30 58 H 36.403118 30.980922 58.742656 0
M  V30 59 H 40.196004 33.221457 59.178426 0
M  V30 60 H 39.226327 34.483446 59.675520 0
M  V30 61 H 36.239701 39.068927 60.559853 0
M  V30 62 H 40.169197 29.221613 64.031294 0
M  V30 63 H 41.266794 28.683569 65.292566 0
M  V30 64 H 39.875079 27.161675 59.670681 0
M  V30 65 H 37.292148 30.165891 56.197766 0
M  V30 66 H 37.754202 29.087002 57.474239 0
M  V30 67 H 35.847017 24.159973 55.455135 0
M  V30 68 H 39.777516 31.051839 57.500701 0
M  V30 69 H 39.284487 30.376950 65.714258 0
M  V30 70 H 41.399435 28.748413 56.105564 0
M  V30 71 H 39.027655 30.678879 59.754539 0
M  V30 72 H 42.101792 28.531570 62.866979 0
M  V30 73 H 43.181570 29.318475 63.983274 0
M  V30 74 H 39.322437 28.784641 53.733283 0
M  V30 75 H 37.674879 28.471358 54.481151 0
M  V30 76 H 41.132332 28.929920 58.620300 0
M  V30 77 H 38.357151 36.252736 64.038229 0
M  V30 78 H 39.588857 37.141149 63.179797 0
M  V30 79 H 37.067360 38.125707 59.056717 0
M  V30 80 H 38.267418 37.221431 58.504848 0
M  V30 81 H 36.859359 36.370727 59.199061 0
M  V30 82 H 38.403875 25.651619 58.326044 0
M  V30 END ATOM
M  V30 BEGIN BOND
M  V30 1 1 8 2
M  V30 2 1 13 3
M  V30 3 1 14 4
M  V30 4 1 14 9
M  V30 5 2 14 10
M  V30 6 1 15 1
M  V30 7 1 15 11
M  V30 8 1 17 7
M  V30 9 1 18 3
M  V30 10 1 21 3
M  V30 11 1 21 13
M  V30 12 2 23 2
M  V30 13 1 23 11
M  V30 14 1 23 20
M  V30 15 1 24 9
M  V30 16 1 26 4
M  V30 17 1 27 6
M  V30 18 1 27 25
M  V30 19 1 30 24
M  V30 20 1 31 8
M  V30 21 1 31 12
M  V30 22 1 31 19
M  V30 23 1 31 28 CFG=1
M  V30 24 1 32 7
M  V30 25 1 32 16
M  V30 26 1 32 27
M  V30 27 1 33 6
M  V30 28 1 33 7
M  V30 29 1 34 19
M  V30 30 1 34 29
M  V30 31 2 35 5
M  V30 32 1 35 8
M  V30 33 1 35 29
M  V30 34 2 36 6
M  V30 35 1 24 37 CFG=1
M  V30 36 1 38 5
M  V30 37 2 38 11
M  V30 38 1 38 17
M  V30 39 2 39 22
M  V30 40 1 39 30
M  V30 41 1 40 15
M  V30 42 1 40 20
M  V30 43 1 41 21
M  V30 44 2 42 9
M  V30 45 1 42 22
M  V30 46 1 15 43 CFG=3
M  V30 47 1 21 43 CFG=1
M  V30 48 1 44 24
M  V30 49 1 44 25 CFG=1
M  V30 50 1 44 30
M  V30 51 1 44 37
M  V30 52 1 45 1
M  V30 53 1 46 1
M  V30 54 1 47 1
M  V30 55 1 48 2
M  V30 56 1 3 49 CFG=1
M  V30 57 1 50 5
M  V30 58 1 7 51 CFG=1
M  V30 59 1 8 52 CFG=3
M  V30 60 1 53 12
M  V30 61 1 54 12
M  V30 62 1 55 12
M  V30 63 1 56 13
M  V30 64 1 57 13
M  V30 65 1 58 16
M  V30 66 1 59 17
M  V30 67 1 60 17
M  V30 68 1 61 18
M  V30 69 1 62 19
M  V30 70 1 63 19
M  V30 71 1 64 22
M  V30 72 1 65 25
M  V30 73 1 66 25
M  V30 74 1 67 26
M  V30 75 1 27 68 CFG=1
M  V30 76 1 69 28
M  V30 77 1 30 70 CFG=3
M  V30 78 1 32 71 CFG=1
M  V30 79 1 72 34
M  V30 80 1 73 34
M  V30 81 1 74 37
M  V30 82 1 75 37
M  V30 83 1 76 39
M  V30 84 1 77 40
M  V30 85 1 78 40
M  V30 86 1 79 41
M  V30 87 1 80 41
M  V30 88 1 81 41
M  V30 89 1 82 42
M  V30 END BOND
M  V30 END CTAB
M  END
>  <i_epik_Tot_Q>  (1) 
0

>  <i_epik_Tot_abs_Q>  (1) 
0

>  <i_i_glide_confnum>  (1) 
437

>  <i_i_glide_lignum>  (1) 
110

>  <i_i_glide_posenum>  (1) 
381

>  <i_i_glide_rotatable_bonds>  (1) 
12

>  <i_lp_mmshare_version>  (1) 
72125

>  <i_m_source_file_index>  (1) 
50

>  <i_f3d_flags>  (1) 
2

>  <num_sample>  (1) 
50

>  <b_lp_Chiralities_Consistent>  (1) 
0

>  <r_epik_Charging_Adjusted_Penalty>  (1) 
0

>  <r_epik_Ionization_Penalty>  (1) 
1.8283090470904203e-05

>  <r_epik_Ionization_Penalty_Charging>  (1) 
0

>  <r_epik_Ionization_Penalty_Neutral>  (1) 
1.8283090470904203e-05

>  <r_epik_State_Penalty>  (1) 
-0

>  <r_glide_ring_energy>  (1) 
0.96358372370287459

>  <r_i_docking_score>  (1) 
-7.403675433097634

>  <r_i_glide_ecoul>  (1) 
-5.8171509830799657

>  <r_i_glide_eff_state_penalty>  (1) 
-0

>  <r_i_glide_einternal>  (1) 
25.51564216654905

>  <r_i_glide_emodel>  (1) 
-42.103433807754243

>  <r_i_glide_emodel_strain>  (1) 
0.74968066973767122

>  <r_i_glide_energy>  (1) 
-39.47161985882434

>  <r_i_glide_erotb>  (1) 
0.32668660388354631

>  <r_i_glide_esite>  (1) 
-0.089726351736529764

>  <r_i_glide_evdw>  (1) 
-33.654468875744371

>  <r_i_glide_gscore>  (1) 
-7.403675433097634

>  <r_i_glide_gscore_strain>  (1) 
0

>  <r_i_glide_hbond>  (1) 
-0.54155715130538595

>  <r_i_glide_ligand_efficiency>  (1) 
-0.16826535075221896

>  <r_i_glide_ligand_efficiency_ln>  (1) 
-1.5475296757904657

>  <r_i_glide_ligand_efficiency_sa>  (1) 
-0.59403530092115242

>  <r_i_glide_lipo>  (1) 
-3.6245730542891961

>  <r_i_glide_metal>  (1) 
-0

>  <r_i_glide_rewards>  (1) 
-0.91920938840085498

>  <r_lp_Energy>  (1) 
38.622012999999995

>  <r_lp_tautomer_probability>  (1) 
1

>  <s_epik_Chemistry_Notes>  (1) 
This compound has an ester and may undergo hydrolysis at high or low pH.

>  <s_epik_cmdline>  (1) 
J2VwaWtfcHl0aG9uJywgJy1waHQnLCAnMS4wJywgJy1waCcsICc3LjQnLCAnLXRuJywgJzgnLCAnLW1hJywgJzUwMCcsICctaW1hZScsICc8aW5maWxlLm1hZT4nLCAnLW9tYWUnLCAnPG91dGZpbGUubWFlPic=

>  <s_epik_input>  (1) 
W0NIMl0xW0NAQEhdKFtPSF0pW0NAXTEoW0NIM10pT1tDQF0yKFtDSDNdKVtDSDJdT0MoPVtDSF0zKUMyPUMoW0NIXT1DKFtDQEhdMzQpT1tDSDJdW0NIMl1bQ0BdNChbQ0gzXSlbT0hdKVtDSDJdW0NAQEhdKE81KVtDQEBIXShbT0hdKVtDQEhdKEM1PU8pW0NIMl1bQ0BdNihbQ0gyXTcpW0NAQEhdKEM2NzgpW0NIXT1bQ0hdW0NIXT1DOEMoPU8pT1tPSF0=

>  <s_glide_docking_method>  (1) 
confgen

>  <s_i_glide_gridfile>  (1) 
gpcr_5ht2c_6bqh_protein_autoprepared_prepared

>  <s_lp_Force_Field>  (1) 
S-OPLS

>  <s_lp_Variant>  (1) 
DiffSBDD_49_num_sample_50-1

>  <s_m_source_file>  (1) 
generated__ligand_DiffSBDD_2026-05-06_prepared.sdf

>  <GenAI_Model>  (1) 
DiffSBDD

>  <Protein>  (1) 
GPCR_5HT2C

$$$$
DiffSBDD_25_num_sample_50
     RDKit          3D

  0  0  0  0  0  0  0  0  0  0999 V3000
M  V30 BEGIN CTAB
M  V30 COUNTS 59 60 0 0 1
M  V30 BEGIN ATOM
M  V30 1 C 38.904375 27.603961 57.737591 0 CFG=2
M  V30 2 C 39.184194 28.899080 55.554119 0
M  V30 3 C 39.643204 37.264369 61.903503 0
M  V30 4 C 39.467082 37.455972 63.414695 0
M  V30 5 C 37.606182 31.254060 60.245112 0 CFG=1
M  V30 6 C 38.774521 27.720910 56.220379 0
M  V30 7 C 38.667673 28.915304 58.514621 0
M  V30 8 C 38.246881 26.644509 55.477009 0
M  V30 9 C 39.021171 34.227312 62.006360 0
M  V30 10 C 38.549853 27.913675 53.417676 0
M  V30 11 C 37.191105 31.025940 58.773608 0 CFG=1
M  V30 12 C 41.321079 36.012721 63.136186 0
M  V30 13 N 37.867421 31.940168 57.839107 0 CHG=1
M  V30 14 C 38.623947 32.850532 61.552355 0
M  V30 15 C 39.067417 28.993287 54.155507 0
M  V30 16 C 37.289471 29.569027 58.279994 0
M  V30 17 N 40.267420 36.421175 64.078218 0 CHG=1
M  V30 18 N 37.977520 32.632645 60.483711 0
M  V30 19 C 40.704701 36.163446 61.741153 0 CFG=1
M  V30 20 C 41.513033 27.659866 57.735659 0
M  V30 21 C 40.167526 34.832505 61.179829 0
M  V30 22 C 38.134475 26.742818 54.077785 0
M  V30 23 C 40.227748 26.927606 58.155564 0
M  V30 24 Cl 38.434469 28.021974 51.705802 0
M  V30 25 O 36.507192 30.896550 61.053505 0
M  V30 26 H 38.105725 26.930283 58.053337 0
M  V30 27 H 39.591106 29.726150 56.112952 0
M  V30 28 H 39.984353 38.197903 61.453501 0
M  V30 29 H 38.701592 37.013274 61.414190 0
M  V30 30 H 39.867377 38.421346 63.716236 0
M  V30 31 H 38.424625 37.399668 63.728944 0
M  V30 32 H 38.438622 30.601855 60.511472 0
M  V30 33 H 39.460527 29.628781 58.295479 0
M  V30 34 H 38.767044 28.682911 59.574797 0
M  V30 35 H 37.931916 25.741919 55.980131 0
M  V30 36 H 38.140524 34.867986 61.969253 0
M  V30 37 H 39.310660 34.142719 63.051965 0
M  V30 38 H 36.146998 31.310431 58.706883 0
M  V30 39 H 41.688690 35.008076 63.347380 0
M  V30 40 H 42.163777 36.694845 63.241922 0
M  V30 41 H 38.769968 31.592097 57.559356 0
M  V30 42 H 37.234254 32.022054 57.047633 0
M  V30 43 H 38.929291 32.039763 62.221822 0
M  V30 44 H 39.385910 29.891569 53.646689 0
M  V30 45 H 36.523336 28.969349 58.769143 0
M  V30 46 H 37.028051 29.549724 57.221900 0
M  V30 47 H 40.685050 36.787315 64.925285 0
M  V30 48 H 41.467558 36.514688 61.050813 0
M  V30 49 H 42.391741 27.098635 58.055124 0
M  V30 50 H 41.579644 27.773375 56.653872 0
M  V30 51 H 41.580461 28.648779 58.188137 0
M  V30 52 H 40.991874 34.119854 61.132932 0
M  V30 53 H 39.838751 34.980665 60.150365 0
M  V30 54 H 37.733447 25.917302 53.509548 0
M  V30 55 H 40.231478 26.821432 59.238803 0
M  V30 56 H 40.256730 25.914144 57.752849 0
M  V30 57 H 35.710448 31.126712 60.596704 0
M  V30 58 H 39.679397 35.628467 64.285910 0
M  V30 59 H 37.951295 32.839013 58.294826 0
M  V30 END ATOM
M  V30 BEGIN BOND
M  V30 1 1 4 3
M  V30 2 1 6 1
M  V30 3 1 6 2
M  V30 4 1 7 1
M  V30 5 2 8 6
M  V30 6 1 11 5
M  V30 7 1 13 11
M  V30 8 1 14 9
M  V30 9 2 15 2
M  V30 10 1 15 10
M  V30 11 1 16 7
M  V30 12 1 16 11
M  V30 13 1 17 4
M  V30 14 1 17 12
M  V30 15 1 18 5
M  V30 16 2 18 14
M  V30 17 1 19 3
M  V30 18 1 19 12
M  V30 19 1 21 9
M  V30 20 1 21 19
M  V30 21 1 22 8
M  V30 22 2 22 10
M  V30 23 1 23 1
M  V30 24 1 23 20
M  V30 25 1 24 10
M  V30 26 1 25 5
M  V30 27 1 1 26 CFG=1
M  V30 28 1 27 2
M  V30 29 1 28 3
M  V30 30 1 29 3
M  V30 31 1 30 4
M  V30 32 1 31 4
M  V30 33 1 5 32 CFG=1
M  V30 34 1 33 7
M  V30 35 1 34 7
M  V30 36 1 35 8
M  V30 37 1 36 9
M  V30 38 1 37 9
M  V30 39 1 11 38 CFG=1
M  V30 40 1 39 12
M  V30 41 1 40 12
M  V30 42 1 41 13
M  V30 43 1 42 13
M  V30 44 1 43 14
M  V30 45 1 44 15
M  V30 46 1 45 16
M  V30 47 1 46 16
M  V30 48 1 47 17
M  V30 49 1 19 48 CFG=3
M  V30 50 1 49 20
M  V30 51 1 50 20
M  V30 52 1 51 20
M  V30 53 1 52 21
M  V30 54 1 53 21
M  V30 55 1 54 22
M  V30 56 1 55 23
M  V30 57 1 56 23
M  V30 58 1 57 25
M  V30 59 1 58 17
M  V30 60 1 59 13
M  V30 END BOND
M  V30 END CTAB
M  END
>  <i_epik_Tot_Q>  (1) 
2

>  <i_epik_Tot_abs_Q>  (1) 
2

>  <i_i_glide_confnum>  (1) 
303

>  <i_i_glide_lignum>  (1) 
66

>  <i_i_glide_posenum>  (1) 
57

>  <i_i_glide_rotatable_bonds>  (1) 
11

>  <i_lp_mmshare_version>  (1) 
72125

>  <i_m_source_file_index>  (1) 
26

>  <i_f3d_flags>  (1) 
0

>  <num_sample>  (1) 
50

>  <b_lp_Chiralities_Consistent>  (1) 
1

>  <r_epik_Charging_Adjusted_Penalty>  (1) 
0.45127827763218775

>  <r_epik_Ionization_Penalty>  (1) 
0.041210974459634293

>  <r_epik_Ionization_Penalty_Charging>  (1) 
0.040598438679583813

>  <r_epik_Ionization_Penalty_Neutral>  (1) 
0.0006125357800504809

>  <r_epik_State_Penalty>  (1) 
0.41067983895260396

>  <r_glide_ring_energy>  (1) 
0

>  <r_i_docking_score>  (1) 
-7.3973550099473799

>  <r_i_glide_ecoul>  (1) 
-8.7020641118234039

>  <r_i_glide_eff_state_penalty>  (1) 
0.41067983895260396

>  <r_i_glide_einternal>  (1) 
5.1971764710343233

>  <r_i_glide_emodel>  (1) 
-64.955617889875498

>  <r_i_glide_emodel_strain>  (1) 
0.88367476108809484

>  <r_i_glide_energy>  (1) 
-41.790971130660893

>  <r_i_glide_erotb>  (1) 
0.99595821917536853

>  <r_i_glide_esite>  (1) 
-0.13048277385575624

>  <r_i_glide_evdw>  (1) 
-33.088907018837489

>  <r_i_glide_gscore>  (1) 
-7.8080348488999842

>  <r_i_glide_gscore_strain>  (1) 
0

>  <r_i_glide_hbond>  (1) 
-0.45041321118338384

>  <r_i_glide_ligand_efficiency>  (1) 
-0.29589420039789521

>  <r_i_glide_ligand_efficiency_ln>  (1) 
-1.7533948181986312

>  <r_i_glide_ligand_efficiency_sa>  (1) 
-0.86519989059775815

>  <r_i_glide_lipo>  (1) 
-3.5109991111140637

>  <r_i_glide_metal>  (1) 
-0

>  <r_i_glide_rewards>  (1) 
-1.752343004206764

>  <r_lp_Energy>  (1) 
33.902127

>  <r_lp_tautomer_probability>  (1) 
0.49999300000000002

>  <s_epik_Chemistry_Notes>  (1) 
This compound has an imine and may undergo hydrolysis. This compound contains an acetal/aminal-like group ( X-CH(R)-Y where X, Y are N, S, or O) that may be acid/base labile, releasing an aldehyde.

>  <s_epik_cmdline>  (1) 
J2VwaWtfcHl0aG9uJywgJy1waHQnLCAnMS4wJywgJy1waCcsICc3LjQnLCAnLXRuJywgJzgnLCAnLW1hJywgJzUwMCcsICctaW1hZScsICc8aW5maWxlLm1hZT4nLCAnLW9tYWUnLCAnPG91dGZpbGUubWFlPic=

>  <s_epik_input>  (1) 
W2NIXTFbY0hdYyhDbClbY0hdW2NIXWMxW0NAQEhdKFtDSDJdW0NIM10pW0NIMl1bQ0gyXVtDQEhdKFtOSDJdKVtDQEhdKFtPSF0pXE49W0NIXVxbQ0gyXVtDSDJdW0NASF0yW0NIMl1bQ0gyXVtOSF1bQ0gyXTI=

>  <s_glide_docking_method>  (1) 
confgen

>  <s_i_glide_gridfile>  (1) 
gpcr_5ht2c_6bqh_protein_autoprepared_prepared

>  <s_lp_Force_Field>  (1) 
S-OPLS

>  <s_lp_Variant>  (1) 
DiffSBDD_25_num_sample_50-1

>  <s_m_source_file>  (1) 
generated__ligand_DiffSBDD_2026-05-06_prepared.sdf

>  <GenAI_Model>  (1) 
DiffSBDD

>  <Protein>  (1) 
GPCR_5HT2C

$$$$
DiffSBDD_7_num_sample_50
     RDKit          3D

  0  0  0  0  0  0  0  0  0  0999 V3000
M  V30 BEGIN CTAB
M  V30 COUNTS 93 96 0 0 1
M  V30 BEGIN ATOM
M  V30 1 C 39.177724 26.260764 56.003865 0 CFG=1
M  V30 2 O 40.667312 30.004320 61.217167 0
M  V30 3 C 38.702648 29.735763 55.072459 0 CFG=1
M  V30 4 C 39.371087 33.238371 60.897140 0
M  V30 5 O 37.177628 25.723326 57.194747 0 CHG=-1
M  V30 6 N 40.919606 33.280767 65.664619 0
M  V30 7 S 40.930550 28.649337 65.681566 0
M  V30 8 N 42.360229 26.058489 67.389333 0
M  V30 9 N 38.858146 31.865797 60.628628 0 CFG=1 CHG=1
M  V30 10 S 43.494799 26.921092 65.224921 0
M  V30 11 C 41.170908 33.693683 66.919677 0
M  V30 12 C 39.616637 29.525766 52.549569 0
M  V30 13 C 40.847393 28.641360 60.832356 0
M  V30 14 C 39.780084 30.197292 62.321488 0 CFG=1
M  V30 15 C 42.617187 28.136376 66.274746 0 CFG=2
M  V30 16 N 41.314918 34.021427 68.019186 0
M  V30 17 O 40.550731 33.033633 62.993247 0
M  V30 18 C 38.811765 30.908256 56.025872 0
M  V30 19 O 44.202844 28.072976 70.944571 0
M  V30 20 C 37.067455 28.138623 53.630408 0
M  V30 21 C 40.517236 30.661308 63.614690 0 CFG=2
M  V30 22 C 43.229751 27.437108 70.141482 0 CFG=1
M  V30 23 O 37.367673 24.981338 55.103143 0
M  V30 24 C 42.384565 27.482154 67.671537 0 CFG=2
M  V30 25 O 42.949467 24.421399 65.854430 0
M  V30 26 C 41.340387 31.982512 63.539762 0 CFG=2
M  V30 27 C 39.225912 27.742557 56.389652 0
M  V30 28 C 37.786065 25.599895 56.107581 0
M  V30 29 C 39.169697 29.634428 58.099979 0
M  V30 30 C 38.259804 30.647260 57.419681 0 CFG=1
M  V30 31 C 38.180349 31.987084 58.196286 0
M  V30 32 C 38.586246 31.088874 61.871998 0
M  V30 33 C 39.046584 28.194945 57.651691 0
M  V30 34 C 43.505891 27.834127 68.674860 0
M  V30 35 C 39.924533 25.903723 54.704206 0
M  V30 36 C 37.500551 29.489491 54.170395 0 CFG=2
M  V30 37 C 40.732748 33.246635 61.599075 0
M  V30 38 C 41.797869 32.407463 64.950134 0
M  V30 39 C 37.713529 31.884535 59.667636 0
M  V30 40 O 40.436416 29.761052 66.610705 0
M  V30 41 C 41.410435 29.531899 64.148306 0
M  V30 42 C 43.311599 25.928739 70.425537 0
M  V30 43 C 38.736515 30.160767 53.611951 0 CFG=1
M  V30 44 C 42.885057 25.589951 66.217847 0
M  V30 45 O 42.442011 29.238035 63.550058 0
M  V30 46 O 42.847852 32.017445 65.458589 0
M  V30 47 O 39.531815 28.588527 55.331811 0
M  V30 48 H 39.748278 25.765694 56.791648 0
M  V30 49 H 38.642586 33.819079 61.465185 0
M  V30 50 H 39.493244 33.759492 59.947863 0
M  V30 51 H 40.063591 33.594491 65.233514 0
M  V30 52 H 41.974428 25.395623 68.045787 0
M  V30 53 H 39.846757 28.487055 52.770452 0
M  V30 54 H 39.116925 29.566259 51.581210 0
M  V30 55 H 40.555066 30.073061 52.469227 0
M  V30 56 H 41.466798 28.592669 59.936421 0
M  V30 57 H 41.341768 28.052656 61.603544 0
M  V30 58 H 39.896836 28.157235 60.606942 0
M  V30 59 H 39.326597 29.237560 62.578765 0
M  V30 60 H 43.221155 29.041141 66.353256 0
M  V30 61 H 38.255321 31.745157 55.599823 0
M  V30 62 H 39.852861 31.230047 56.068103 0
M  V30 63 H 44.000593 27.910082 71.853343 0
M  V30 64 H 37.882242 27.589531 53.172925 0
M  V30 65 H 36.667031 27.526135 54.430973 0
M  V30 66 H 36.302392 28.267556 52.865388 0
M  V30 67 H 39.738230 30.803956 64.364863 0
M  V30 68 H 42.252175 27.814426 70.445909 0
M  V30 69 H 41.430492 27.787748 68.102041 0
M  V30 70 H 42.252924 31.839233 62.957753 0
M  V30 71 H 40.214570 29.934679 58.036300 0
M  V30 72 H 38.924179 29.603505 59.155988 0
M  V30 73 H 37.249734 30.238406 57.343852 0
M  V30 74 H 37.467516 32.623410 57.670326 0
M  V30 75 H 39.125589 32.521854 58.120198 0
M  V30 76 H 38.243540 31.752835 62.662219 0
M  V30 77 H 37.745689 30.421816 61.696090 0
M  V30 78 H 38.831099 27.478179 58.431703 0
M  V30 79 H 43.634038 28.917587 68.651397 0
M  V30 80 H 44.459252 27.419011 68.342406 0
M  V30 81 H 39.521679 26.406057 53.830730 0
M  V30 82 H 40.978751 26.162018 54.778406 0
M  V30 83 H 39.867516 24.831414 54.520357 0
M  V30 84 H 36.654768 30.136012 54.394355 0
M  V30 85 H 41.198195 34.226497 61.487051 0
M  V30 86 H 41.401460 32.531444 61.117427 0
M  V30 87 H 37.077464 31.003313 59.761767 0
M  V30 88 H 37.066348 32.728103 59.912187 0
M  V30 89 H 42.504992 25.383033 69.937985 0
M  V30 90 H 44.258417 25.510478 70.080534 0
M  V30 91 H 43.226729 25.721463 71.493052 0
M  V30 92 H 38.638333 31.232701 53.451488 0
M  V30 93 H 39.591548 31.342638 60.167430 0
M  V30 END ATOM
M  V30 BEGIN BOND
M  V30 1 1 9 4
M  V30 2 1 11 6
M  V30 3 1 13 2
M  V30 4 1 14 2
M  V30 5 1 15 7
M  V30 6 1 15 10
M  V30 7 3 16 11
M  V30 8 1 18 3
M  V30 9 1 21 14
M  V30 10 1 22 19
M  V30 11 1 24 8
M  V30 12 1 24 15
M  V30 13 1 26 17
M  V30 14 1 26 21
M  V30 15 1 27 1
M  V30 16 1 28 1
M  V30 17 1 28 5
M  V30 18 2 28 23
M  V30 19 1 30 18
M  V30 20 1 30 29
M  V30 21 1 31 30
M  V30 22 1 32 9
M  V30 23 1 32 14
M  V30 24 2 33 27
M  V30 25 1 33 29
M  V30 26 1 34 22
M  V30 27 1 34 24
M  V30 28 1 35 1
M  V30 29 1 36 3
M  V30 30 1 36 20
M  V30 31 1 37 4
M  V30 32 1 37 17
M  V30 33 1 38 6
M  V30 34 1 38 26
M  V30 35 1 39 9
M  V30 36 1 39 31
M  V30 37 2 40 7
M  V30 38 1 7 41 CFG=3
M  V30 39 1 41 21
M  V30 40 1 42 22
M  V30 41 1 43 3
M  V30 42 1 43 12
M  V30 43 1 43 36
M  V30 44 1 44 8
M  V30 45 1 44 10
M  V30 46 2 44 25
M  V30 47 2 45 41
M  V30 48 2 46 38
M  V30 49 1 3 47 CFG=3
M  V30 50 1 47 27
M  V30 51 1 1 48 CFG=1
M  V30 52 1 49 4
M  V30 53 1 50 4
M  V30 54 1 51 6
M  V30 55 1 52 8
M  V30 56 1 53 12
M  V30 57 1 54 12
M  V30 58 1 55 12
M  V30 59 1 56 13
M  V30 60 1 57 13
M  V30 61 1 58 13
M  V30 62 1 14 59 CFG=1
M  V30 63 1 15 60 CFG=1
M  V30 64 1 61 18
M  V30 65 1 62 18
M  V30 66 1 63 19
M  V30 67 1 64 20
M  V30 68 1 65 20
M  V30 69 1 66 20
M  V30 70 1 21 67 CFG=1
M  V30 71 1 22 68 CFG=1
M  V30 72 1 24 69 CFG=1
M  V30 73 1 26 70 CFG=3
M  V30 74 1 71 29
M  V30 75 1 72 29
M  V30 76 1 30 73 CFG=3
M  V30 77 1 74 31
M  V30 78 1 75 31
M  V30 79 1 76 32
M  V30 80 1 77 32
M  V30 81 1 78 33
M  V30 82 1 79 34
M  V30 83 1 80 34
M  V30 84 1 81 35
M  V30 85 1 82 35
M  V30 86 1 83 35
M  V30 87 1 36 84 CFG=1
M  V30 88 1 85 37
M  V30 89 1 86 37
M  V30 90 1 87 39
M  V30 91 1 88 39
M  V30 92 1 89 42
M  V30 93 1 90 42
M  V30 94 1 91 42
M  V30 95 1 43 92 CFG=1
M  V30 96 1 9 93 CFG=3
M  V30 END BOND
M  V30 END CTAB
M  END
>  <i_epik_Tot_Q>  (1) 
0

>  <i_epik_Tot_abs_Q>  (1) 
2

>  <i_i_glide_confnum>  (1) 
3155

>  <i_i_glide_lignum>  (1) 
25

>  <i_i_glide_posenum>  (1) 
168

>  <i_i_glide_rotatable_bonds>  (1) 
14

>  <i_lp_mmshare_version>  (1) 
72125

>  <i_m_source_file_index>  (1) 
8

>  <i_f3d_flags>  (1) 
0

>  <num_sample>  (1) 
50

>  <b_lp_Chiralities_Consistent>  (1) 
1

>  <r_epik_Charging_Adjusted_Penalty>  (1) 
2.2678334573304797

>  <r_epik_Ionization_Penalty>  (1) 
1.1498882506810455

>  <r_epik_Ionization_Penalty_Charging>  (1) 
1.1031410554290029

>  <r_epik_Ionization_Penalty_Neutral>  (1) 
0.046747195252042517

>  <r_epik_State_Penalty>  (1) 
1.164692401901477

>  <r_glide_ring_energy>  (1) 
0

>  <r_i_docking_score>  (1) 
-7.3860685421717305

>  <r_i_glide_ecoul>  (1) 
-4.0672493413897524

>  <r_i_glide_eff_state_penalty>  (1) 
1.164692401901477

>  <r_i_glide_einternal>  (1) 
9.4838341839039586

>  <r_i_glide_emodel>  (1) 
-92.395369357471125

>  <r_i_glide_emodel_strain>  (1) 
0.30665234879188574

>  <r_i_glide_energy>  (1) 
-62.512199216053737

>  <r_i_glide_erotb>  (1) 
0.2643022598508753

>  <r_i_glide_esite>  (1) 
0

>  <r_i_glide_evdw>  (1) 
-58.444949874663983

>  <r_i_glide_gscore>  (1) 
-8.5507609440732075

>  <r_i_glide_gscore_strain>  (1) 
0

>  <r_i_glide_hbond>  (1) 
-0.32000000000000001

>  <r_i_glide_ligand_efficiency>  (1) 
-0.15715039451429214

>  <r_i_glide_ligand_efficiency_ln>  (1) 
-1.5228543847959515

>  <r_i_glide_ligand_efficiency_sa>  (1) 
-0.56712844222726244

>  <r_i_glide_lipo>  (1) 
-2.9188498684874959

>  <r_i_glide_metal>  (1) 
-0

>  <r_i_glide_rewards>  (1) 
-2.0438784404949257

>  <r_lp_Energy>  (1) 
33.837415

>  <s_epik_Chemistry_Notes>  (1) 
This compound contains an acetal/aminal-like group ( X-CH(R)-Y where X, Y are N, S, or O) that may be acid/base labile, releasing an aldehyde.

>  <s_epik_cmdline>  (1) 
J2VwaWtfcHl0aG9uJywgJy1waHQnLCAnMS4wJywgJy1waCcsICc3LjQnLCAnLXRuJywgJzgnLCAnLW1hJywgJzUwMCcsICctaW1hZScsICc8aW5maWxlLm1hZT4nLCAnLW9tYWUnLCAnPG91dGZpbGUubWFlPic=

>  <s_epik_input>  (1) 
W09IXUMoPU8pW0NAQEhdKFtDSDNdKUMoTzEpPVtDSF1bQ0gyXVtDQEhdKFtDSDJdW0NAXTEyW0NASF0oW0NIM10pW0NAQEhdMltDSDNdKVtDSDJdW0NIMl1OM1tDSDJdW0NIMl1PW0NAQEhdKEMoPU8pW05IXUMjTilbQ0BASF0oW0NAQEhdKFtDSDJdMylPW0NIM10pQyg9TylTKD1PKVtDQEBIXTRTQyg9TylbTkhdW0NASF00W0NIMl1bQ0BIXShbT0hdKVtDSDNd

>  <s_glide_docking_method>  (1) 
confgen

>  <s_i_glide_gridfile>  (1) 
gpcr_5ht2c_6bqh_protein_autoprepared_prepared

>  <s_lp_Force_Field>  (1) 
S-OPLS

>  <s_lp_Variant>  (1) 
DiffSBDD_7_num_sample_50-3

>  <s_m_source_file>  (1) 
generated__ligand_DiffSBDD_2026-05-06_prepared.sdf

>  <GenAI_Model>  (1) 
DiffSBDD

>  <Protein>  (1) 
GPCR_5HT2C

$$$$
DiffSBDD_10_num_sample_50
     RDKit          3D

  0  0  0  0  0  0  0  0  0  0999 V3000
M  V30 BEGIN CTAB
M  V30 COUNTS 65 67 0 0 1
M  V30 BEGIN ATOM
M  V30 1 C 36.376121 33.848311 59.187385 0
M  V30 2 C 36.289435 35.162930 59.913962 0
M  V30 3 C 41.565639 34.848739 63.899449 0
M  V30 4 N 38.689976 34.931064 60.660774 0 CFG=1 CHG=1
M  V30 5 O 40.611308 28.820942 56.177998 0 CHG=-1
M  V30 6 O 38.667460 33.487040 55.959184 0
M  V30 7 C 38.905010 27.724747 51.107218 0
M  V30 8 C 40.721934 33.737025 63.693942 0
M  V30 9 C 39.867431 30.035140 52.378891 0
M  V30 10 O 39.527118 26.925608 54.825140 0
M  V30 11 N 37.565191 27.189874 53.053497 0
M  V30 12 C 39.782342 33.751165 62.646924 0
M  V30 13 C 38.814461 30.951596 54.844966 0
M  V30 14 C 38.477761 28.025093 52.409847 0
M  V30 15 C 37.289076 35.261332 61.087836 0 CFG=1
M  V30 16 C 37.179033 36.806747 63.180191 0
M  V30 17 C 39.704932 34.887486 61.804002 0
M  V30 18 O 38.267507 28.012920 56.777428 0
M  V30 19 C 38.834855 33.808471 59.684290 0
M  V30 20 N 37.867468 32.562988 57.859417 0
M  V30 21 C 37.198682 36.706503 61.652473 0
M  V30 22 P 39.292267 28.313822 55.756970 0
M  V30 23 C 41.211321 30.663025 50.339210 0
M  V30 24 C 39.797388 28.585848 50.444670 0
M  V30 25 C 38.302863 32.506304 56.609727 0
M  V30 26 N 38.309879 31.268231 56.145030 0
M  V30 27 C 41.474165 35.975734 63.053018 0
M  V30 28 O 38.956804 32.681471 62.465762 0 CHG=-1
M  V30 29 F 42.465329 34.834892 64.911203 0
M  V30 30 C 40.544188 35.994083 61.998172 0
M  V30 31 C 38.968258 29.175692 53.059509 0
M  V30 32 C 37.761943 33.792560 58.592984 0 CFG=1
M  V30 33 C 38.515235 29.500151 54.477743 0 CFG=2
M  V30 34 C 40.269156 29.737556 51.073718 0
M  V30 35 H 35.619433 33.806652 58.403529 0
M  V30 36 H 36.191647 33.012567 59.864571 0
M  V30 37 H 36.426654 35.988175 59.212227 0
M  V30 38 H 35.271389 35.221373 60.253618 0
M  V30 39 H 38.539964 26.839029 50.610345 0
M  V30 40 H 40.793095 32.878247 64.345187 0
M  V30 41 H 40.244455 30.924523 52.853528 0
M  V30 42 H 38.863637 26.945402 54.138982 0
M  V30 43 H 37.043881 26.519263 52.492885 0
M  V30 44 H 37.073447 27.528375 53.871444 0
M  V30 45 H 39.890117 31.133277 54.886693 0
M  V30 46 H 38.374515 31.628633 54.108926 0
M  V30 47 H 36.979888 34.540057 61.845937 0
M  V30 48 H 37.065509 37.845774 63.482663 0
M  V30 49 H 36.332774 36.259655 63.598532 0
M  V30 50 H 38.094146 36.421631 63.630313 0
M  V30 51 H 38.812786 32.828139 60.143841 0
M  V30 52 H 39.821169 33.885704 59.226716 0
M  V30 53 H 37.574298 31.712675 58.316815 0
M  V30 54 H 37.998988 37.327169 61.248185 0
M  V30 55 H 36.283164 37.188977 61.306010 0
M  V30 56 H 41.490059 30.255748 49.368225 0
M  V30 57 H 40.721079 31.621243 50.172161 0
M  V30 58 H 42.124580 30.821948 50.906460 0
M  V30 59 H 40.113862 28.371361 49.453509 0
M  V30 60 H 37.984983 30.510112 56.730464 0
M  V30 61 H 42.123442 36.821373 63.213617 0
M  V30 62 H 40.475698 36.852697 61.350925 0
M  V30 63 H 37.866991 34.648090 57.930104 0
M  V30 64 H 37.431277 29.382900 54.510473 0
M  V30 65 H 38.927443 35.727261 60.090536 0
M  V30 END ATOM
M  V30 BEGIN BOND
M  V30 1 1 2 1
M  V30 2 2 8 3
M  V30 3 1 12 8
M  V30 4 1 14 7
M  V30 5 1 14 11
M  V30 6 1 15 2
M  V30 7 1 15 4
M  V30 8 1 17 4
M  V30 9 2 17 12
M  V30 10 1 19 4
M  V30 11 1 21 15
M  V30 12 1 21 16
M  V30 13 1 22 5
M  V30 14 1 22 10
M  V30 15 2 22 18
M  V30 16 2 24 7
M  V30 17 2 25 6
M  V30 18 1 25 20
M  V30 19 1 26 13
M  V30 20 1 26 25
M  V30 21 1 27 3
M  V30 22 1 28 12
M  V30 23 1 29 3
M  V30 24 1 30 17
M  V30 25 2 30 27
M  V30 26 1 31 9
M  V30 27 2 31 14
M  V30 28 1 32 1
M  V30 29 1 32 19
M  V30 30 1 32 20
M  V30 31 1 33 13
M  V30 32 1 33 22
M  V30 33 1 33 31
M  V30 34 2 34 9
M  V30 35 1 34 23
M  V30 36 1 34 24
M  V30 37 1 35 1
M  V30 38 1 36 1
M  V30 39 1 37 2
M  V30 40 1 38 2
M  V30 41 1 39 7
M  V30 42 1 40 8
M  V30 43 1 41 9
M  V30 44 1 42 10
M  V30 45 1 43 11
M  V30 46 1 44 11
M  V30 47 1 45 13
M  V30 48 1 46 13
M  V30 49 1 15 47 CFG=1
M  V30 50 1 48 16
M  V30 51 1 49 16
M  V30 52 1 50 16
M  V30 53 1 51 19
M  V30 54 1 52 19
M  V30 55 1 53 20
M  V30 56 1 54 21
M  V30 57 1 55 21
M  V30 58 1 56 23
M  V30 59 1 57 23
M  V30 60 1 58 23
M  V30 61 1 59 24
M  V30 62 1 60 26
M  V30 63 1 61 27
M  V30 64 1 62 30
M  V30 65 1 32 63 CFG=3
M  V30 66 1 33 64 CFG=3
M  V30 67 1 4 65 CFG=3
M  V30 END BOND
M  V30 END CTAB
M  END
>  <i_epik_Tot_Q>  (1) 
-1

>  <i_epik_Tot_abs_Q>  (1) 
3

>  <i_i_glide_confnum>  (1) 
353

>  <i_i_glide_lignum>  (1) 
36

>  <i_i_glide_posenum>  (1) 
184

>  <i_i_glide_rotatable_bonds>  (1) 
10

>  <i_lp_mmshare_version>  (1) 
72125

>  <i_m_source_file_index>  (1) 
11

>  <i_f3d_flags>  (1) 
0

>  <num_sample>  (1) 
50

>  <b_lp_Chiralities_Consistent>  (1) 
1

>  <r_epik_Charging_Adjusted_Penalty>  (1) 
0.95893062563682818

>  <r_epik_Ionization_Penalty>  (1) 
0.45630296270815951

>  <r_epik_Ionization_Penalty_Charging>  (1) 
0.042165092744118775

>  <r_epik_Ionization_Penalty_Neutral>  (1) 
0.41413786996404073

>  <r_epik_State_Penalty>  (1) 
0.91676553289270946

>  <r_glide_ring_energy>  (1) 
0

>  <r_i_docking_score>  (1) 
-7.3740073454991144

>  <r_i_glide_ecoul>  (1) 
-4.4235729389623586

>  <r_i_glide_eff_state_penalty>  (1) 
0.91676553289270946

>  <r_i_glide_einternal>  (1) 
23.34476886667462

>  <r_i_glide_emodel>  (1) 
-57.774125957370956

>  <r_i_glide_emodel_strain>  (1) 
2.6575689733181349

>  <r_i_glide_energy>  (1) 
-49.259382834788276

>  <r_i_glide_erotb>  (1) 
0.66918926381983879

>  <r_i_glide_esite>  (1) 
-0.26102747914628971

>  <r_i_glide_evdw>  (1) 
-44.835809895825918

>  <r_i_glide_gscore>  (1) 
-8.2907728783918238

>  <r_i_glide_gscore_strain>  (1) 
0

>  <r_i_glide_hbond>  (1) 
-0.30753048717799031

>  <r_i_glide_ligand_efficiency>  (1) 
-0.21688256898526806

>  <r_i_glide_ligand_efficiency_ln>  (1) 
-1.6291250565208646

>  <r_i_glide_ligand_efficiency_sa>  (1) 
-0.70261532997605247

>  <r_i_glide_lipo>  (1) 
-4.6633875910070737

>  <r_i_glide_metal>  (1) 
-0

>  <r_i_glide_rewards>  (1) 
-0.82269014924465833

>  <r_lp_Energy>  (1) 
33.820101999999999

>  <s_epik_cmdline>  (1) 
J2VwaWtfcHl0aG9uJywgJy1waHQnLCAnMS4wJywgJy1waCcsICc3LjQnLCAnLXRuJywgJzgnLCAnLW1hJywgJzUwMCcsICctaW1hZScsICc8aW5maWxlLm1hZT4nLCAnLW9tYWUnLCAnPG91dGZpbGUubWFlPic=

>  <s_epik_input>  (1) 
RmMxW2NIXWMoW09IXSljKFtjSF1bY0hdMSlOMltDQEBIXShbQ0gyXVtDSDNdKVtDSDJdW0NIMl1bQ0BASF0oW0NIMl0yKVtOSF1DKD1PKVtOSF1bQ0gyXVtDQEhdKFAoPU8pKFtPSF0pW09IXSljM1tjSF1jKFtDSDNdKVtjSF1bY0hdYzNbTkgyXQ==

>  <s_glide_docking_method>  (1) 
confgen

>  <s_i_glide_gridfile>  (1) 
gpcr_5ht2c_6bqh_protein_autoprepared_prepared

>  <s_lp_Force_Field>  (1) 
S-OPLS

>  <s_lp_Variant>  (1) 
DiffSBDD_10_num_sample_50-5

>  <s_m_source_file>  (1) 
generated__ligand_DiffSBDD_2026-05-06_prepared.sdf

>  <GenAI_Model>  (1) 
DiffSBDD

>  <Protein>  (1) 
GPCR_5HT2C

$$$$
DiffSBDD_5_num_sample_50
     RDKit          3D

  0  0  0  0  0  0  0  0  0  0999 V3000
M  V30 BEGIN CTAB
M  V30 COUNTS 80 82 0 0 1
M  V30 BEGIN ATOM
M  V30 1 C 38.144630 30.432862 58.307870 0
M  V30 2 C 38.428401 28.161979 57.209833 0 CFG=2
M  V30 3 N 38.877266 36.647052 62.816056 0
M  V30 4 F 40.267370 29.221552 49.053481 0
M  V30 5 C 40.202360 31.892292 60.708236 0
M  V30 6 N 39.067080 30.245555 59.212436 0 CHG=1
M  V30 7 C 39.924109 33.825139 62.502498 0 CFG=1
M  V30 8 C 40.310737 29.962591 51.200082 0 CFG=2
M  V30 9 C 38.453410 25.823493 56.252907 0
M  V30 10 C 38.913126 31.111519 60.414796 0 CFG=2
M  V30 11 N 37.313841 31.369075 58.653505 0
M  V30 12 C 39.838044 25.483525 56.841937 0
M  V30 13 C 38.570756 29.289281 54.593092 0 CFG=2
M  V30 14 C 38.128302 24.978791 55.016161 0
M  V30 15 N 39.735073 30.985553 53.339393 0 CHG=1
M  V30 16 C 40.188717 36.425282 62.200108 0
M  V30 17 C 37.505463 27.678181 58.253450 0
M  V30 18 C 37.621150 31.995611 59.958351 0
M  V30 19 C 38.035190 29.639919 56.996977 0 CFG=2
M  V30 20 C 40.237887 31.241365 51.995018 0
M  V30 21 O 37.806289 37.122711 60.883090 0
M  V30 22 C 40.164529 30.327903 49.745577 0
M  V30 23 C 36.504794 37.217588 62.888988 0
M  V30 24 C 37.791463 36.989421 62.105473 0
M  V30 25 S 39.067401 28.870883 51.887792 0
M  V30 26 C 38.835860 30.208049 55.828381 0
M  V30 27 C 38.989582 27.835935 54.870940 0
M  V30 28 C 41.640095 34.107903 64.236051 0
M  V30 29 O 40.270528 34.111735 63.852531 0
M  V30 30 O 39.654100 34.991480 60.400063 0
M  V30 31 N 38.252463 27.293602 56.015248 0 CFG=2 CHG=1
M  V30 32 C 40.381075 35.005647 61.603781 0 CFG=2
M  V30 33 N 39.325207 29.622289 53.406740 0
M  V30 34 C 40.457183 32.418674 62.131033 0
M  V30 35 H 39.462315 28.117009 57.555221 0
M  V30 36 H 38.803032 36.551491 63.819959 0
M  V30 37 H 40.267582 32.707313 59.994032 0
M  V30 38 H 41.027918 31.201555 60.536348 0
M  V30 39 H 38.834387 33.782975 62.478932 0
M  V30 40 H 41.271608 29.474352 51.365295 0
M  V30 41 H 37.707244 25.496043 56.974505 0
M  V30 42 H 38.650588 30.474929 61.260852 0
M  V30 43 H 36.509183 31.655254 58.078461 0
M  V30 44 H 39.945377 24.408644 56.978937 0
M  V30 45 H 40.654299 25.813084 56.200139 0
M  V30 46 H 39.985279 25.925813 57.827064 0
M  V30 47 H 37.509842 29.331733 54.337361 0
M  V30 48 H 38.101516 23.918965 55.260469 0
M  V30 49 H 37.158671 25.238589 54.588697 0
M  V30 50 H 38.889559 25.112648 54.253533 0
M  V30 51 H 38.925197 31.559315 53.533109 0
M  V30 52 H 40.923249 36.585574 62.989838 0
M  V30 53 H 40.403779 37.194224 61.455943 0
M  V30 54 H 37.466558 28.421302 59.053532 0
M  V30 55 H 36.502794 27.526972 57.854682 0
M  V30 56 H 37.869960 26.751056 58.695629 0
M  V30 57 H 36.783435 31.908681 60.651350 0
M  V30 58 H 37.868452 33.047695 59.818033 0
M  V30 59 H 36.983326 29.678078 56.705854 0
M  V30 60 H 41.236512 31.621399 52.037315 0
M  V30 61 H 39.580827 31.973154 51.523881 0
M  V30 62 H 39.221600 30.820487 49.511313 0
M  V30 63 H 40.983285 30.986828 49.452312 0
M  V30 64 H 35.952109 36.287131 63.029559 0
M  V30 65 H 36.727723 37.622014 63.870898 0
M  V30 66 H 35.868607 37.933828 62.368245 0
M  V30 67 H 38.502603 31.230850 55.648703 0
M  V30 68 H 39.894620 30.243378 56.082279 0
M  V30 69 H 38.770308 27.228830 53.994287 0
M  V30 70 H 40.060973 27.761405 55.056205 0
M  V30 71 H 41.731435 34.552413 65.227888 0
M  V30 72 H 42.034781 33.094060 64.302390 0
M  V30 73 H 42.264969 34.686110 63.557628 0
M  V30 74 H 38.927914 35.600742 60.494526 0
M  V30 75 H 41.435535 34.883011 61.356081 0
M  V30 76 H 41.542270 32.437088 62.235108 0
M  V30 77 H 40.104972 31.688203 62.860252 0
M  V30 78 H 40.458122 31.121683 54.031210 0
M  V30 79 H 39.800674 29.553644 59.138108 0
M  V30 80 H 37.278918 27.377382 55.760166 0
M  V30 END ATOM
M  V30 BEGIN BOND
M  V30 1 2 6 1
M  V30 2 1 10 5
M  V30 3 1 10 6
M  V30 4 1 11 1
M  V30 5 1 12 9
M  V30 6 1 14 9
M  V30 7 1 16 3
M  V30 8 1 17 2
M  V30 9 1 18 10
M  V30 10 1 18 11
M  V30 11 1 19 1
M  V30 12 1 19 2
M  V30 13 1 20 8
M  V30 14 1 20 15
M  V30 15 1 22 4
M  V30 16 1 22 8
M  V30 17 1 24 3
M  V30 18 2 24 21
M  V30 19 1 24 23
M  V30 20 1 25 8
M  V30 21 1 26 13
M  V30 22 1 26 19
M  V30 23 1 27 13
M  V30 24 1 29 7
M  V30 25 1 29 28
M  V30 26 1 31 2
M  V30 27 1 31 9
M  V30 28 1 31 27
M  V30 29 1 32 7
M  V30 30 1 32 16
M  V30 31 1 32 30
M  V30 32 1 33 13
M  V30 33 1 33 15
M  V30 34 1 33 25
M  V30 35 1 34 5
M  V30 36 1 34 7
M  V30 37 1 2 35 CFG=1
M  V30 38 1 36 3
M  V30 39 1 37 5
M  V30 40 1 38 5
M  V30 41 1 7 39 CFG=1
M  V30 42 1 8 40 CFG=3
M  V30 43 1 41 9
M  V30 44 1 10 42 CFG=1
M  V30 45 1 43 11
M  V30 46 1 44 12
M  V30 47 1 45 12
M  V30 48 1 46 12
M  V30 49 1 13 47 CFG=3
M  V30 50 1 48 14
M  V30 51 1 49 14
M  V30 52 1 50 14
M  V30 53 1 51 15
M  V30 54 1 52 16
M  V30 55 1 53 16
M  V30 56 1 54 17
M  V30 57 1 55 17
M  V30 58 1 56 17
M  V30 59 1 57 18
M  V30 60 1 58 18
M  V30 61 1 19 59 CFG=3
M  V30 62 1 60 20
M  V30 63 1 61 20
M  V30 64 1 62 22
M  V30 65 1 63 22
M  V30 66 1 64 23
M  V30 67 1 65 23
M  V30 68 1 66 23
M  V30 69 1 67 26
M  V30 70 1 68 26
M  V30 71 1 69 27
M  V30 72 1 70 27
M  V30 73 1 71 28
M  V30 74 1 72 28
M  V30 75 1 73 28
M  V30 76 1 74 30
M  V30 77 1 32 75 CFG=3
M  V30 78 1 76 34
M  V30 79 1 77 34
M  V30 80 1 78 15
M  V30 81 1 79 6
M  V30 82 1 31 80 CFG=3
M  V30 END BOND
M  V30 END CTAB
M  END
>  <i_epik_Tot_Q>  (1) 
3

>  <i_epik_Tot_abs_Q>  (1) 
3

>  <i_i_glide_confnum>  (1) 
865

>  <i_i_glide_lignum>  (1) 
15

>  <i_i_glide_posenum>  (1) 
166

>  <i_i_glide_rotatable_bonds>  (1) 
13

>  <i_lp_mmshare_version>  (1) 
72125

>  <i_m_source_file_index>  (1) 
6

>  <i_f3d_flags>  (1) 
0

>  <num_sample>  (1) 
50

>  <b_lp_Chiralities_Consistent>  (1) 
1

>  <r_epik_Charging_Adjusted_Penalty>  (1) 
0.16301919670703535

>  <r_epik_Ionization_Penalty>  (1) 
0.082191666583868089

>  <r_epik_Ionization_Penalty_Charging>  (1) 
0.082191230012028396

>  <r_epik_Ionization_Penalty_Neutral>  (1) 
4.3657183969654913e-07

>  <r_epik_State_Penalty>  (1) 
0.080827966695006942

>  <r_glide_ring_energy>  (1) 
0

>  <r_i_docking_score>  (1) 
-7.3727737254513093

>  <r_i_glide_ecoul>  (1) 
-7.1298059834970502

>  <r_i_glide_eff_state_penalty>  (1) 
0.080827966695006942

>  <r_i_glide_einternal>  (1) 
8.3814141099943811

>  <r_i_glide_emodel>  (1) 
-54.224315069285609

>  <r_i_glide_emodel_strain>  (1) 
3.5815845764076926

>  <r_i_glide_energy>  (1) 
-34.391959791817726

>  <r_i_glide_erotb>  (1) 
0.63983490757673345

>  <r_i_glide_esite>  (1) 
-0.14843660105644468

>  <r_i_glide_evdw>  (1) 
-27.262153808320672

>  <r_i_glide_gscore>  (1) 
-7.4536016921463162

>  <r_i_glide_gscore_strain>  (1) 
0

>  <r_i_glide_hbond>  (1) 
-0.20000000000000001

>  <r_i_glide_ligand_efficiency>  (1) 
-0.21684628604268558

>  <r_i_glide_ligand_efficiency_ln>  (1) 
-1.6288525152504341

>  <r_i_glide_ligand_efficiency_sa>  (1) 
-0.70249778732707713

>  <r_i_glide_lipo>  (1) 
-4.1599164475466734

>  <r_i_glide_metal>  (1) 
-0

>  <r_i_glide_rewards>  (1) 
-1.15250496317934

>  <r_lp_Energy>  (1) 
42.756794999999997

>  <s_epik_Chemistry_Notes>  (1) 
This compound has an imine and may undergo hydrolysis. This compound has a N-S or N-O group and may undergo hydrolysis at high or low pH.

>  <s_epik_cmdline>  (1) 
J2VwaWtfcHl0aG9uJywgJy1waHQnLCAnMS4wJywgJy1waCcsICc3LjQnLCAnLXRuJywgJzgnLCAnLW1hJywgJzUwMCcsICctaW1hZScsICc8aW5maWxlLm1hZT4nLCAnLW9tYWUnLCAnPG91dGZpbGUubWFlPic=

>  <s_epik_input>  (1) 
RltDSDJdW0NASF0xW0NIMl1bTkhdTihTMSlbQ0BASF0oW0NIMl1OMltDSF0oW0NIM10pW0NIM10pW0NIMl1bQ0BASF0oW0NASF0yW0NIM10pQzM9TltDQEhdKFtDSDJdW05IXTMpW0NIMl1bQ0gyXVtDQEBIXShPW0NIM10pW0NAQEhdKFtPSF0pW0NIMl1bTkhdQyg9TylbQ0gzXQ==

>  <s_glide_docking_method>  (1) 
confgen

>  <s_i_glide_gridfile>  (1) 
gpcr_5ht2c_6bqh_protein_autoprepared_prepared

>  <s_lp_Force_Field>  (1) 
S-OPLS

>  <s_lp_Variant>  (1) 
DiffSBDD_5_num_sample_50-2

>  <s_m_source_file>  (1) 
generated__ligand_DiffSBDD_2026-05-06_prepared.sdf

>  <GenAI_Model>  (1) 
DiffSBDD

>  <Protein>  (1) 
GPCR_5HT2C

$$$$
DiffSBDD_6_num_sample_50
     RDKit          3D

  0  0  0  0  0  0  0  0  0  0999 V3000
M  V30 BEGIN CTAB
M  V30 COUNTS 65 68 0 0 1
M  V30 BEGIN ATOM
M  V30 1 N 40.022345 32.774041 62.319156 0
M  V30 2 N 38.395346 33.244487 60.218233 0
M  V30 3 C 37.801188 33.570689 59.129228 0
M  V30 4 C 42.090182 32.516028 65.507670 0
M  V30 5 C 39.120426 25.237890 57.157183 0
M  V30 6 N 38.563897 30.430697 58.055108 0
M  V30 7 N 37.467386 32.608987 58.253398 0
M  V30 8 N 39.364808 28.145520 58.328141 0
M  V30 9 C 40.410280 30.418217 62.795597 0
M  V30 10 C 37.467531 25.226052 54.876948 0
M  V30 11 N 39.098556 31.071022 60.765857 0 CHG=1
M  V30 12 O 40.666639 26.727423 55.967602 0
M  V30 13 C 38.463889 30.770469 55.769797 0
M  V30 14 C 39.599325 29.695154 52.156238 0
M  V30 15 F 36.673058 25.214582 53.781399 0
M  V30 16 C 37.667237 31.315616 58.776494 0 CFG=2
M  V30 17 C 39.494715 25.988088 56.006770 0
M  V30 18 C 40.894066 34.563937 63.720050 0
M  V30 19 C 39.454484 30.545777 53.427800 0
M  V30 20 F 39.905145 25.223970 58.254015 0
M  V30 21 C 37.922853 24.497412 57.154803 0
M  V30 22 C 39.178987 29.620855 60.352450 0
M  V30 23 C 40.733347 33.082362 63.425143 0
M  V30 24 C 37.098088 24.492207 56.017049 0
M  V30 25 C 41.136850 30.754226 63.950203 0
M  V30 26 C 38.562295 29.904439 54.506758 0
M  V30 27 C 38.627925 29.253049 58.931373 0 CFG=1
M  V30 28 C 41.306073 32.109906 64.271857 0
M  V30 29 O 37.887362 30.024939 56.843311 0
M  V30 30 F 39.012946 26.670661 53.765521 0
M  V30 31 C 40.640927 28.487945 57.714715 0
M  V30 32 C 38.661776 25.970980 54.870308 0
M  V30 33 C 38.414471 31.884176 59.982629 0
M  V30 34 C 41.327605 27.249097 57.124013 0
M  V30 35 C 39.864123 31.462707 61.999311 0
M  V30 36 H 37.535420 34.593967 58.858145 0
M  V30 37 H 36.840465 32.711811 57.452803 0
M  V30 38 H 42.544569 31.649948 65.989663 0
M  V30 39 H 41.432351 32.995185 66.232902 0
M  V30 40 H 42.887458 33.214137 65.251205 0
M  V30 41 H 39.475155 27.369253 58.967144 0
M  V30 42 H 40.271833 29.382483 62.536426 0
M  V30 43 H 37.854940 31.655170 55.577320 0
M  V30 44 H 39.467137 31.129503 56.013863 0
M  V30 45 H 40.319421 30.144796 51.471582 0
M  V30 46 H 38.660513 29.603278 51.618088 0
M  V30 47 H 39.933541 28.683778 52.378022 0
M  V30 48 H 41.915196 34.882687 63.509194 0
M  V30 49 H 40.667415 34.787960 64.762563 0
M  V30 50 H 40.223916 35.162107 63.101221 0
M  V30 51 H 40.447444 30.719545 53.843972 0
M  V30 52 H 39.067238 31.529947 53.162712 0
M  V30 53 H 37.639550 23.929224 58.028531 0
M  V30 54 H 38.669385 29.029725 61.110239 0
M  V30 55 H 40.238530 29.367595 60.387284 0
M  V30 56 H 36.181397 23.921356 56.016885 0
M  V30 57 H 41.559085 29.981829 64.576984 0
M  V30 58 H 37.564564 29.705696 54.112686 0
M  V30 59 H 38.988433 28.941887 54.785942 0
M  V30 60 H 37.610805 28.876990 59.060392 0
M  V30 61 H 40.498527 29.215657 56.918126 0
M  V30 62 H 41.296958 28.944289 58.456281 0
M  V30 63 H 41.604933 26.516154 57.874960 0
M  V30 64 H 42.289980 27.598508 56.757014 0
M  V30 65 H 36.712998 30.866055 59.059614 0
M  V30 END ATOM
M  V30 BEGIN BOND
M  V30 1 2 3 2
M  V30 2 1 7 3
M  V30 3 1 15 10
M  V30 4 1 16 6
M  V30 5 1 16 7
M  V30 6 2 17 5
M  V30 7 1 17 12
M  V30 8 1 19 14
M  V30 9 1 20 5
M  V30 10 1 21 5
M  V30 11 1 22 11
M  V30 12 1 23 1
M  V30 13 1 23 18
M  V30 14 1 24 10
M  V30 15 2 24 21
M  V30 16 2 25 9
M  V30 17 1 26 13
M  V30 18 1 26 19
M  V30 19 1 27 6
M  V30 20 1 27 8
M  V30 21 1 27 22
M  V30 22 1 28 4
M  V30 23 2 28 23
M  V30 24 1 28 25
M  V30 25 1 29 6
M  V30 26 1 29 13
M  V30 27 1 31 8
M  V30 28 2 32 10
M  V30 29 1 32 17
M  V30 30 1 32 30
M  V30 31 1 33 2
M  V30 32 2 33 11
M  V30 33 1 33 16
M  V30 34 1 34 12
M  V30 35 1 34 31
M  V30 36 2 35 1
M  V30 37 1 35 9
M  V30 38 1 35 11
M  V30 39 1 36 3
M  V30 40 1 37 7
M  V30 41 1 38 4
M  V30 42 1 39 4
M  V30 43 1 40 4
M  V30 44 1 41 8
M  V30 45 1 42 9
M  V30 46 1 43 13
M  V30 47 1 44 13
M  V30 48 1 45 14
M  V30 49 1 46 14
M  V30 50 1 47 14
M  V30 51 1 48 18
M  V30 52 1 49 18
M  V30 53 1 50 18
M  V30 54 1 51 19
M  V30 55 1 52 19
M  V30 56 1 53 21
M  V30 57 1 54 22
M  V30 58 1 55 22
M  V30 59 1 56 24
M  V30 60 1 57 25
M  V30 61 1 58 26
M  V30 62 1 59 26
M  V30 63 1 27 60 CFG=1
M  V30 64 1 61 31
M  V30 65 1 62 31
M  V30 66 1 63 34
M  V30 67 1 64 34
M  V30 68 1 16 65 CFG=1
M  V30 END BOND
M  V30 END CTAB
M  END
>  <i_epik_Tot_Q>  (1) 
1

>  <i_epik_Tot_abs_Q>  (1) 
1

>  <i_i_glide_confnum>  (1) 
832

>  <i_i_glide_lignum>  (1) 
22

>  <i_i_glide_posenum>  (1) 
320

>  <i_i_glide_rotatable_bonds>  (1) 
10

>  <i_lp_mmshare_version>  (1) 
72125

>  <i_m_source_file_index>  (1) 
7

>  <i_f3d_flags>  (1) 
0

>  <num_sample>  (1) 
50

>  <b_lp_Chiralities_Consistent>  (1) 
1

>  <r_epik_Charging_Adjusted_Penalty>  (1) 
0.81638474559902796

>  <r_epik_Ionization_Penalty>  (1) 
6.3086919552564762

>  <r_epik_Ionization_Penalty_Charging>  (1) 
0

>  <r_epik_Ionization_Penalty_Neutral>  (1) 
6.3086919552564762

>  <r_epik_State_Penalty>  (1) 
0.81638474559902796

>  <r_glide_ring_energy>  (1) 
0

>  <r_i_docking_score>  (1) 
-7.3701165677593243

>  <r_i_glide_ecoul>  (1) 
-5.7940357605732515

>  <r_i_glide_eff_state_penalty>  (1) 
0.81638474559902796

>  <r_i_glide_einternal>  (1) 
23.365866345156856

>  <r_i_glide_emodel>  (1) 
-70.455714041194469

>  <r_i_glide_emodel_strain>  (1) 
0.56730707030970962

>  <r_i_glide_energy>  (1) 
-52.790242271061366

>  <r_i_glide_erotb>  (1) 
0.67408029721787976

>  <r_i_glide_esite>  (1) 
-0.31815602259930859

>  <r_i_glide_evdw>  (1) 
-46.996206510488115

>  <r_i_glide_gscore>  (1) 
-8.1865013133583524

>  <r_i_glide_gscore_strain>  (1) 
0

>  <r_i_glide_hbond>  (1) 
-0.11131302479673315

>  <r_i_glide_ligand_efficiency>  (1) 
-0.21057475907883783

>  <r_i_glide_ligand_efficiency_ln>  (1) 
-1.6179041575474249

>  <r_i_glide_ligand_efficiency_sa>  (1) 
-0.68880400019886545

>  <r_i_glide_lipo>  (1) 
-3.9995080117625652

>  <r_i_glide_metal>  (1) 
-0

>  <r_i_glide_rewards>  (1) 
-1.2126888618072316

>  <r_lp_Energy>  (1) 
45.017523999999995

>  <r_lp_tautomer_probability>  (1) 
0.23620936778007409

>  <s_epik_Chemistry_Notes>  (1) 
This compound has an imine and may undergo hydrolysis. This compound contains an acetal/aminal-like group ( X-CH(R)-Y where X, Y are N, S, or O) that may be acid/base labile, releasing an aldehyde. This compound has a N-S or N-O group and may undergo hydrolysis at high or low pH.

>  <s_epik_cmdline>  (1) 
J2VwaWtfcHl0aG9uJywgJy1waHQnLCAnMS4wJywgJy1waCcsICc3LjQnLCAnLXRuJywgJzgnLCAnLW1hJywgJzUwMCcsICctaW1hZScsICc8aW5maWxlLm1hZT4nLCAnLW9tYWUnLCAnPG91dGZpbGUubWFlPic=

>  <s_epik_input>  (1) 
W0NIM11jMVtjSF1bY0hdYyhuYzFbQ0gzXSlOKEMoQzIzKT1OW0NIMl1OPTMpW0NIMl1bQ0BASF0oTjJPW0NIMl1bQ0gyXVtDSDJdW0NIM10pW05IXVtDSDJdW0NIMl1PYyhjNEYpYyhGKWMoRilbY0hdW2NIXTQ=

>  <s_glide_docking_method>  (1) 
confgen

>  <s_i_glide_gridfile>  (1) 
gpcr_5ht2c_6bqh_protein_autoprepared_prepared

>  <s_lp_Force_Field>  (1) 
S-OPLS

>  <s_lp_Variant>  (1) 
DiffSBDD_6_num_sample_50-3

>  <s_m_source_file>  (1) 
generated__ligand_DiffSBDD_2026-05-06_prepared.sdf

>  <GenAI_Model>  (1) 
DiffSBDD

>  <Protein>  (1) 
GPCR_5HT2C

$$$$
DiffSBDD_28_num_sample_50
     RDKit          3D

  0  0  0  0  0  0  0  0  0  0999 V3000
M  V30 BEGIN CTAB
M  V30 COUNTS 94 99 0 0 1
M  V30 BEGIN ATOM
M  V30 1 C 39.467738 27.585641 51.542485 0
M  V30 2 C 37.346425 31.931279 59.263286 0
M  V30 3 O 43.647350 25.991991 66.689200 0
M  V30 4 C 40.903728 32.899978 65.234991 0 CFG=1
M  V30 5 C 37.366849 33.007163 60.339049 0 CFG=2
M  V30 6 C 40.792935 34.887802 66.887026 0
M  V30 7 C 38.785507 29.237386 56.060804 0
M  V30 8 O 44.478966 30.078155 66.158245 0
M  V30 9 C 38.488971 28.728625 51.435489 0
M  V30 10 C 43.103060 25.936562 65.391121 0 CFG=2
M  V30 11 C 38.432352 27.981507 56.643471 0
M  V30 12 N 39.690550 33.014439 61.609142 0
M  V30 13 C 41.280433 27.277686 64.545829 0
M  V30 14 C 39.707058 36.661254 62.080990 0
M  V30 15 C 40.663714 26.061766 65.220083 0
M  V30 16 C 38.744998 31.484542 59.686835 0 CFG=1
M  V30 17 C 39.031515 30.092099 57.103130 0
M  V30 18 O 39.240917 34.396378 61.686862 0
M  V30 19 O 45.503931 30.821430 65.453518 0
M  V30 20 O 35.067071 33.621447 60.240391 0
M  V30 21 C 38.872098 29.564288 54.595043 0
M  V30 22 C 41.642088 33.751184 66.294976 0
M  V30 23 C 40.919394 33.381873 63.762827 0 CFG=2
M  V30 24 C 43.297847 29.525021 64.081577 0
M  V30 25 O 42.862055 31.561071 65.275621 0
M  V30 26 N 38.839036 29.409174 58.293462 0
M  V30 27 C 38.474878 28.112936 58.001135 0
M  V30 28 C 38.552604 32.264424 61.004209 0 CFG=2
M  V30 29 C 40.669588 34.890168 63.600333 0
M  V30 30 C 42.869764 24.737961 64.499833 0
M  V30 31 C 36.086269 33.229636 61.128396 0
M  V30 32 C 40.288479 35.247258 62.158239 0 CFG=2
M  V30 33 O 41.464005 35.225688 61.387021 0
M  V30 34 O 40.571109 29.758994 61.454002 0
M  V30 35 N 42.678624 27.307078 65.039590 0 CFG=2 CHG=1
M  V30 36 C 40.334416 29.536282 60.268697 0
M  V30 37 C 39.009648 29.959755 59.636689 0 CFG=1
M  V30 38 C 41.819179 25.150998 65.483351 0 CFG=1
M  V30 39 C 39.829710 32.602921 62.998899 0
M  V30 40 C 43.256111 30.218705 65.457618 0 CFG=2
M  V30 41 C 39.528141 28.746605 52.503470 0
M  V30 42 C 43.634410 28.028716 64.173133 0
M  V30 43 O 41.364767 31.562721 65.261891 0
M  V30 44 O 39.067228 28.408956 53.798299 0
M  V30 45 H 40.221364 27.528923 50.760646 0
M  V30 46 H 39.092861 26.633462 51.911940 0
M  V30 47 H 36.586421 31.168599 59.439311 0
M  V30 48 H 37.280706 32.319591 58.246683 0
M  V30 49 H 44.511138 25.605074 66.680833 0
M  V30 50 H 39.867486 32.821125 65.549370 0
M  V30 51 H 37.710685 33.929413 59.866217 0
M  V30 52 H 41.199197 35.220579 67.839784 0
M  V30 53 H 40.755356 35.758127 66.234356 0
M  V30 54 H 39.768884 34.566583 67.078074 0
M  V30 55 H 37.458333 28.552115 51.731702 0
M  V30 56 H 38.660181 29.446628 50.639657 0
M  V30 57 H 38.175233 27.073761 56.116649 0
M  V30 58 H 40.744338 28.195412 64.789855 0
M  V30 59 H 41.263260 27.164665 63.460573 0
M  V30 60 H 39.374563 36.879650 61.067625 0
M  V30 61 H 38.831851 36.756173 62.723389 0
M  V30 62 H 40.428708 37.417429 62.389379 0
M  V30 63 H 40.267412 26.346435 66.191902 0
M  V30 64 H 39.878458 25.566431 64.653562 0
M  V30 65 H 39.467363 32.060372 59.111508 0
M  V30 66 H 39.326962 31.130679 57.104192 0
M  V30 67 H 45.442663 31.662559 65.879853 0
M  V30 68 H 35.079801 33.052039 59.483194 0
M  V30 69 H 37.962777 30.078949 54.283158 0
M  V30 70 H 39.702812 30.262564 54.470056 0
M  V30 71 H 41.898366 33.094529 67.126973 0
M  V30 72 H 42.589142 34.130273 65.909838 0
M  V30 73 H 41.890480 33.152959 63.321216 0
M  V30 74 H 42.338473 29.659978 63.582929 0
M  V30 75 H 44.026484 30.017623 63.437461 0
M  V30 76 H 38.279686 27.401614 58.790692 0
M  V30 77 H 38.153266 31.565289 61.741960 0
M  V30 78 H 39.867469 35.221345 64.249819 0
M  V30 79 H 41.548638 35.456965 63.910452 0
M  V30 80 H 43.415130 23.825212 64.728803 0
M  V30 81 H 42.668149 24.900455 63.453546 0
M  V30 82 H 35.771300 32.315371 61.631614 0
M  V30 83 H 36.222322 33.997334 61.890263 0
M  V30 84 H 41.278203 35.643710 60.561325 0
M  V30 85 H 41.033795 29.030632 59.601207 0
M  V30 86 H 38.250808 29.475610 60.251700 0
M  V30 87 H 41.657320 24.421467 66.253572 0
M  V30 88 H 40.020473 31.532545 63.065187 0
M  V30 89 H 38.866164 32.799752 63.453468 0
M  V30 90 H 42.509837 29.743710 66.096775 0
M  V30 91 H 40.341374 29.466688 52.436696 0
M  V30 92 H 43.637671 27.572838 63.183082 0
M  V30 93 H 44.641931 27.909013 64.575866 0
M  V30 94 H 42.661535 27.781589 65.931190 0
M  V30 END ATOM
M  V30 BEGIN BOND
M  V30 1 1 5 2
M  V30 2 1 9 1
M  V30 3 1 10 3 CFG=3
M  V30 4 1 11 7
M  V30 5 1 15 13
M  V30 6 1 16 2
M  V30 7 2 17 7
M  V30 8 1 18 12
M  V30 9 1 19 8
M  V30 10 1 21 7
M  V30 11 1 22 4
M  V30 12 1 22 6
M  V30 13 1 23 4
M  V30 14 1 26 17
M  V30 15 2 27 11
M  V30 16 1 27 26
M  V30 17 1 28 5
M  V30 18 1 28 12
M  V30 19 1 28 16
M  V30 20 1 29 23
M  V30 21 1 30 10
M  V30 22 1 31 5
M  V30 23 1 31 20
M  V30 24 1 32 14
M  V30 25 1 32 18
M  V30 26 1 32 29
M  V30 27 1 32 33 CFG=3
M  V30 28 1 35 10
M  V30 29 1 35 13
M  V30 30 2 36 34
M  V30 31 1 37 16
M  V30 32 1 37 26
M  V30 33 1 37 36
M  V30 34 1 38 10
M  V30 35 1 38 15
M  V30 36 1 38 30
M  V30 37 1 39 12
M  V30 38 1 39 23
M  V30 39 1 40 8
M  V30 40 1 40 24
M  V30 41 1 40 25
M  V30 42 1 41 1
M  V30 43 1 41 9
M  V30 44 1 42 24
M  V30 45 1 42 35
M  V30 46 1 43 4
M  V30 47 1 43 25
M  V30 48 1 44 21
M  V30 49 1 44 41
M  V30 50 1 45 1
M  V30 51 1 46 1
M  V30 52 1 47 2
M  V30 53 1 48 2
M  V30 54 1 49 3
M  V30 55 1 4 50 CFG=1
M  V30 56 1 5 51 CFG=3
M  V30 57 1 52 6
M  V30 58 1 53 6
M  V30 59 1 54 6
M  V30 60 1 55 9
M  V30 61 1 56 9
M  V30 62 1 57 11
M  V30 63 1 58 13
M  V30 64 1 59 13
M  V30 65 1 60 14
M  V30 66 1 61 14
M  V30 67 1 62 14
M  V30 68 1 63 15
M  V30 69 1 64 15
M  V30 70 1 16 65 CFG=3
M  V30 71 1 66 17
M  V30 72 1 67 19
M  V30 73 1 68 20
M  V30 74 1 69 21
M  V30 75 1 70 21
M  V30 76 1 71 22
M  V30 77 1 72 22
M  V30 78 1 23 73 CFG=3
M  V30 79 1 74 24
M  V30 80 1 75 24
M  V30 81 1 76 27
M  V30 82 1 28 77 CFG=1
M  V30 83 1 78 29
M  V30 84 1 79 29
M  V30 85 1 80 30
M  V30 86 1 81 30
M  V30 87 1 82 31
M  V30 88 1 83 31
M  V30 89 1 84 33
M  V30 90 1 85 36
M  V30 91 1 37 86 CFG=1
M  V30 92 1 38 87 CFG=1
M  V30 93 1 88 39
M  V30 94 1 89 39
M  V30 95 1 40 90 CFG=1
M  V30 96 1 91 41
M  V30 97 1 92 42
M  V30 98 1 93 42
M  V30 99 1 35 94 CFG=1
M  V30 END BOND
M  V30 END CTAB
M  END
>  <i_epik_Tot_Q>  (1) 
1

>  <i_epik_Tot_abs_Q>  (1) 
1

>  <i_i_glide_confnum>  (1) 
243

>  <i_i_glide_lignum>  (1) 
72

>  <i_i_glide_posenum>  (1) 
134

>  <i_i_glide_rotatable_bonds>  (1) 
21

>  <i_lp_mmshare_version>  (1) 
72125

>  <i_m_source_file_index>  (1) 
29

>  <i_f3d_flags>  (1) 
2

>  <num_sample>  (1) 
50

>  <b_lp_Chiralities_Consistent>  (1) 
0

>  <r_epik_Charging_Adjusted_Penalty>  (1) 
1.2455417737221615

>  <r_epik_Ionization_Penalty>  (1) 
0.6411459992377706

>  <r_epik_Ionization_Penalty_Charging>  (1) 
0.62277088686108073

>  <r_epik_Ionization_Penalty_Neutral>  (1) 
0.018375112376689838

>  <r_epik_State_Penalty>  (1) 
0.62277088686108073

>  <r_glide_ring_energy>  (1) 
0

>  <r_i_docking_score>  (1) 
-7.3628885693997104

>  <r_i_glide_ecoul>  (1) 
-1.6660680079308638

>  <r_i_glide_eff_state_penalty>  (1) 
0.62277088686108073

>  <r_i_glide_einternal>  (1) 
13.185151954686249

>  <r_i_glide_emodel>  (1) 
-63.53805752183392

>  <r_i_glide_emodel_strain>  (1) 
1.5351680154910383

>  <r_i_glide_energy>  (1) 
-49.934332538925915

>  <r_i_glide_erotb>  (1) 
0.67661073285980611

>  <r_i_glide_esite>  (1) 
-0.0096219917784125392

>  <r_i_glide_evdw>  (1) 
-48.268264530995054

>  <r_i_glide_gscore>  (1) 
-7.985659456260791

>  <r_i_glide_gscore_strain>  (1) 
0

>  <r_i_glide_hbond>  (1) 
-0.23272860019871516

>  <r_i_glide_ligand_efficiency>  (1) 
-0.16733837657726613

>  <r_i_glide_ligand_efficiency_ln>  (1) 
-1.539004331517162

>  <r_i_glide_ligand_efficiency_sa>  (1) 
-0.59076275918571752

>  <r_i_glide_lipo>  (1) 
-4.2507486498651881

>  <r_i_glide_metal>  (1) 
-0

>  <r_i_glide_rewards>  (1) 
-1.5058475195388985

>  <r_lp_Energy>  (1) 
40.866444999999999

>  <s_epik_Chemistry_Notes>  (1) 
This compound contains an acetal/aminal-like group ( X-CH(R)-Y where X, Y are N, S, or O) that may be acid/base labile, releasing an aldehyde. This compound has a N-S or N-O group and may undergo hydrolysis at high or low pH.

>  <s_epik_cmdline>  (1) 
J2VwaWtfcHl0aG9uJywgJy1waHQnLCAnMS4wJywgJy1waCcsICc3LjQnLCAnLXRuJywgJzgnLCAnLW1hJywgJzUwMCcsICctaW1hZScsICc8aW5maWxlLm1hZT4nLCAnLW9tYWUnLCAnPG91dGZpbGUubWFlPic=

>  <s_epik_input>  (1) 
W0NIMl0xW0NIMl1bQ0hdMU9bQ0gyXWMyW2NIXVtjSF1uKFtjSF0yKVtDQEBIXShbQ0hdPU8pW0NAQEhdKFtDSDJdW0NASF0zW0NIMl1bT0hdKVtDQEhdM04oT1tDQF00KFtDSDNdKVtPSF0pW0NIMl1bQ0BASF0oW0NIMl00KVtDQEhdKFtDSDJdW0NIM10pT09bQ0BIXShPW09IXSlbQ0gyXVtDSDJdTjVbQ0gyXVtDSDJdW0NASF0oW0NIMl02KVtDQEBdNTZbT0hd

>  <s_glide_docking_method>  (1) 
confgen

>  <s_i_glide_gridfile>  (1) 
gpcr_5ht2c_6bqh_protein_autoprepared_prepared

>  <s_lp_Force_Field>  (1) 
S-OPLS

>  <s_lp_Variant>  (1) 
DiffSBDD_28_num_sample_50-2

>  <s_m_source_file>  (1) 
generated__ligand_DiffSBDD_2026-05-06_prepared.sdf

>  <GenAI_Model>  (1) 
DiffSBDD

>  <Protein>  (1) 
GPCR_5HT2C

$$$$
DiffSBDD_29_num_sample_50
     RDKit          3D

  0  0  0  0  0  0  0  0  0  0999 V3000
M  V30 BEGIN CTAB
M  V30 COUNTS 79 81 0 0 1
M  V30 BEGIN ATOM
M  V30 1 C 41.872984 33.548651 66.229962 0
M  V30 2 C 38.641448 30.252707 60.326262 0
M  V30 3 C 40.798259 33.538842 65.143729 0
M  V30 4 C 40.290755 26.619935 57.536734 0
M  V30 5 C 36.715555 35.298894 61.257732 0
M  V30 6 C 37.914977 26.036677 56.819055 0
M  V30 7 C 39.934733 35.896214 61.799052 0 CFG=2
M  V30 8 N 37.462738 31.743608 58.653598 0 CHG=1
M  V30 9 C 37.847714 35.310796 60.286204 0 CFG=1
M  V30 10 N 37.466442 27.036725 57.453453 0
M  V30 11 C 39.205084 34.904147 60.917787 0
M  V30 12 C 38.159952 33.002916 58.909482 0 CFG=2
M  V30 13 O 37.465093 29.773521 56.731401 0
M  V30 14 O 41.322017 36.058575 61.489075 0
M  V30 15 C 35.718596 34.506926 60.985821 0
M  V30 16 C 39.769115 25.841746 55.168610 0
M  V30 17 C 36.773969 36.214926 62.475478 0
M  V30 18 C 41.467570 33.988374 62.741425 0
M  V30 19 C 37.222062 34.205384 59.261029 0 CFG=1
M  V30 20 C 39.758720 28.046161 57.571128 0
M  V30 21 C 41.397266 33.465873 67.681587 0
M  V30 22 F 40.494960 34.418846 67.918852 0
M  V30 23 O 36.388333 30.821374 61.053376 0
M  V30 24 O 39.612711 24.421597 57.053507 0
M  V30 25 C 36.714881 37.706809 62.102995 0
M  V30 26 C 38.283826 30.519554 58.826811 0 CFG=2
M  V30 27 F 40.842326 32.275254 67.899945 0
M  V30 28 C 35.763360 33.748280 59.735019 0
M  V30 29 C 37.748998 30.886799 61.412946 0
M  V30 30 C 37.583953 29.366805 58.088053 0 CFG=2
M  V30 31 C 41.368864 33.154889 63.790915 0
M  V30 32 F 42.419953 33.617057 68.523599 0
M  V30 33 C 38.316183 28.003984 58.125262 0 CFG=1
M  V30 34 O 43.067389 33.618312 65.949396 0
M  V30 35 C 41.036554 35.413444 62.726606 0 CFG=2
M  V30 36 C 39.388867 25.737652 56.652768 0 CFG=1
M  V30 37 C 39.095079 33.296162 57.758452 0
M  V30 38 H 39.655412 30.616073 60.497913 0
M  V30 39 H 38.712669 29.189439 60.532760 0
M  V30 40 H 40.353481 34.532572 65.111905 0
M  V30 41 H 40.023815 32.821626 65.417462 0
M  V30 42 H 40.296512 26.239873 58.559466 0
M  V30 43 H 41.326461 26.598130 57.197039 0
M  V30 44 H 37.245888 25.316524 56.340706 0
M  V30 45 H 39.444686 36.840075 62.012457 0
M  V30 46 H 36.997664 31.769664 57.747173 0
M  V30 47 H 37.911078 36.289497 59.810670 0
M  V30 48 H 39.062282 34.000522 61.507603 0
M  V30 49 H 39.908104 34.663701 60.127489 0
M  V30 50 H 38.783334 32.769430 59.760790 0
M  V30 51 H 36.628452 30.212606 56.614820 0
M  V30 52 H 34.853829 34.421362 61.623616 0
M  V30 53 H 39.577143 26.838449 54.768273 0
M  V30 54 H 40.823100 25.621976 55.012670 0
M  V30 55 H 39.193959 25.132446 54.576414 0
M  V30 56 H 35.925358 35.992985 63.123451 0
M  V30 57 H 37.657240 36.021395 63.076337 0
M  V30 58 H 41.890274 33.612284 61.821578 0
M  V30 59 H 37.035860 34.741743 58.329001 0
M  V30 60 H 39.789838 28.481527 56.571732 0
M  V30 61 H 40.403409 28.656825 58.202716 0
M  V30 62 H 36.124820 29.912670 61.006056 0
M  V30 63 H 39.530960 24.372369 57.992529 0
M  V30 64 H 36.667258 38.318267 63.002517 0
M  V30 65 H 37.586579 38.021220 61.529686 0
M  V30 66 H 35.839052 37.957862 61.507404 0
M  V30 67 H 39.229665 30.651386 58.307346 0
M  V30 68 H 34.991736 34.125529 59.062371 0
M  V30 69 H 35.559188 32.702154 59.900652 0
M  V30 70 H 38.001606 31.930683 61.589574 0
M  V30 71 H 37.908732 30.386420 62.368017 0
M  V30 72 H 36.578615 29.231081 58.492417 0
M  V30 73 H 41.714077 32.137488 63.689938 0
M  V30 74 H 38.379235 27.665678 59.157318 0
M  V30 75 H 41.302646 36.002637 63.602756 0
M  V30 76 H 39.975795 33.698536 58.252869 0
M  V30 77 H 39.427482 32.435145 57.179344 0
M  V30 78 H 38.667243 34.014185 57.054657 0
M  V30 79 H 36.727014 31.667441 59.346973 0
M  V30 END ATOM
M  V30 BEGIN BOND
M  V30 1 1 3 1
M  V30 2 1 9 5
M  V30 3 2 10 6
M  V30 4 1 11 7
M  V30 5 1 11 9
M  V30 6 1 12 8
M  V30 7 1 14 7
M  V30 8 2 15 5
M  V30 9 1 17 5
M  V30 10 1 19 9
M  V30 11 1 19 12
M  V30 12 1 20 4
M  V30 13 1 21 1
M  V30 14 1 22 21
M  V30 15 1 25 17
M  V30 16 1 26 2
M  V30 17 1 26 8
M  V30 18 1 27 21
M  V30 19 1 28 15
M  V30 20 1 28 19
M  V30 21 1 29 2
M  V30 22 1 29 23
M  V30 23 1 30 13
M  V30 24 1 30 26
M  V30 25 1 31 3
M  V30 26 2 31 18
M  V30 27 1 32 21
M  V30 28 1 33 10
M  V30 29 1 33 20
M  V30 30 1 33 30
M  V30 31 2 34 1
M  V30 32 1 35 7
M  V30 33 1 35 14
M  V30 34 1 35 18
M  V30 35 1 36 4
M  V30 36 1 36 6
M  V30 37 1 36 16
M  V30 38 1 36 24 CFG=1
M  V30 39 1 37 12
M  V30 40 1 38 2
M  V30 41 1 39 2
M  V30 42 1 40 3
M  V30 43 1 41 3
M  V30 44 1 42 4
M  V30 45 1 43 4
M  V30 46 1 44 6
M  V30 47 1 7 45 CFG=1
M  V30 48 1 46 8
M  V30 49 1 9 47 CFG=3
M  V30 50 1 48 11
M  V30 51 1 49 11
M  V30 52 1 12 50 CFG=1
M  V30 53 1 51 13
M  V30 54 1 52 15
M  V30 55 1 53 16
M  V30 56 1 54 16
M  V30 57 1 55 16
M  V30 58 1 56 17
M  V30 59 1 57 17
M  V30 60 1 58 18
M  V30 61 1 19 59 CFG=3
M  V30 62 1 60 20
M  V30 63 1 61 20
M  V30 64 1 62 23
M  V30 65 1 63 24
M  V30 66 1 64 25
M  V30 67 1 65 25
M  V30 68 1 66 25
M  V30 69 1 26 67 CFG=3
M  V30 70 1 68 28
M  V30 71 1 69 28
M  V30 72 1 70 29
M  V30 73 1 71 29
M  V30 74 1 30 72 CFG=1
M  V30 75 1 73 31
M  V30 76 1 33 74 CFG=1
M  V30 77 1 35 75 CFG=1
M  V30 78 1 76 37
M  V30 79 1 77 37
M  V30 80 1 78 37
M  V30 81 1 79 8
M  V30 END BOND
M  V30 END CTAB
M  END
>  <i_epik_Tot_Q>  (1) 
1

>  <i_epik_Tot_abs_Q>  (1) 
1

>  <i_i_glide_confnum>  (1) 
4490

>  <i_i_glide_lignum>  (1) 
74

>  <i_i_glide_posenum>  (1) 
342

>  <i_i_glide_rotatable_bonds>  (1) 
17

>  <i_lp_mmshare_version>  (1) 
72125

>  <i_m_source_file_index>  (1) 
30

>  <i_f3d_flags>  (1) 
0

>  <num_sample>  (1) 
50

>  <b_lp_Chiralities_Consistent>  (1) 
1

>  <r_epik_Charging_Adjusted_Penalty>  (1) 
0.073066720001252791

>  <r_epik_Ionization_Penalty>  (1) 
0.041882768558209021

>  <r_epik_Ionization_Penalty_Charging>  (1) 
0.011280877963412759

>  <r_epik_Ionization_Penalty_Neutral>  (1) 
0.030601890594796264

>  <r_epik_State_Penalty>  (1) 
0.061785842037840037

>  <r_glide_ring_energy>  (1) 
0

>  <r_i_docking_score>  (1) 
-7.3622703600319062

>  <r_i_glide_ecoul>  (1) 
-6.0843928719497091

>  <r_i_glide_eff_state_penalty>  (1) 
0.061785842037840037

>  <r_i_glide_einternal>  (1) 
4.2147920744846523

>  <r_i_glide_emodel>  (1) 
-55.454427229762778

>  <r_i_glide_emodel_strain>  (1) 
5.9086876816732854

>  <r_i_glide_energy>  (1) 
-39.60803372948105

>  <r_i_glide_erotb>  (1) 
0.87550365807384167

>  <r_i_glide_esite>  (1) 
-0.095671827324048594

>  <r_i_glide_evdw>  (1) 
-33.52364085753134

>  <r_i_glide_gscore>  (1) 
-7.424056202069746

>  <r_i_glide_gscore_strain>  (1) 
0.47717192041832135

>  <r_i_glide_hbond>  (1) 
-0.61875379950146336

>  <r_i_glide_ligand_efficiency>  (1) 
-0.19898028000086232

>  <r_i_glide_ligand_efficiency_ln>  (1) 
-1.5967038449855777

>  <r_i_glide_ligand_efficiency_sa>  (1) 
-0.66304643706550381

>  <r_i_glide_lipo>  (1) 
-3.5825311973547898

>  <r_i_glide_metal>  (1) 
-0

>  <r_i_glide_rewards>  (1) 
-1.8909339827125842

>  <r_lp_Energy>  (1) 
35.125267000000001

>  <s_epik_Chemistry_Notes>  (1) 
This compound has an imine and may undergo hydrolysis.

>  <s_epik_cmdline>  (1) 
J2VwaWtfcHl0aG9uJywgJy1waHQnLCAnMS4wJywgJy1waCcsICc3LjQnLCAnLXRuJywgJzgnLCAnLW1hJywgJzUwMCcsICctaW1hZScsICc8aW5maWxlLm1hZT4nLCAnLW9tYWUnLCAnPG91dGZpbGUubWFlPic=

>  <s_epik_input>  (1) 
RkMoRikoRilDKD1PKVtDSDJdL1tDSF09W0NIXVxbQ0BIXTFPW0NASF0xW0NIMl1bQ0BIXTJbQ0BIXShbQ0gyXVtDSF09QzJbQ0gyXVtDSDNdKVtDQEhdKFtDSDNdKVtOSF1bQ0BASF0oW0NIMl1bQ0gyXVtPSF0pW0NAQEhdKFtPSF0pW0NAQEhdKE49W0NIXTMpW0NIMl1bQ0gyXVtDQEBdMyhbQ0gzXSlbT0hd

>  <s_glide_docking_method>  (1) 
confgen

>  <s_i_glide_gridfile>  (1) 
gpcr_5ht2c_6bqh_protein_autoprepared_prepared

>  <s_lp_Force_Field>  (1) 
S-OPLS

>  <s_lp_Variant>  (1) 
DiffSBDD_29_num_sample_50-2

>  <s_m_source_file>  (1) 
generated__ligand_DiffSBDD_2026-05-06_prepared.sdf

>  <GenAI_Model>  (1) 
DiffSBDD

>  <Protein>  (1) 
GPCR_5HT2C

$$$$
DiffSBDD_19_num_sample_50
     RDKit          3D

  0  0  0  0  0  0  0  0  0  0999 V3000
M  V30 BEGIN CTAB
M  V30 COUNTS 46 49 0 0 1
M  V30 BEGIN ATOM
M  V30 1 N 38.382130 34.931099 60.573953 0
M  V30 2 C 38.415240 31.965042 57.489903 0
M  V30 3 C 39.838705 34.827557 60.773905 0
M  V30 4 C 38.592007 30.442165 59.581922 0
M  V30 5 N 39.017411 29.439014 58.756510 0
M  V30 6 C 38.172665 30.708991 56.681962 0
M  V30 7 C 37.994543 31.716763 58.939861 0 CFG=1
M  V30 8 F 39.867377 34.365713 63.053503 0
M  V30 9 O 36.413119 33.901664 59.787459 0
M  V30 10 O 38.671666 30.361537 60.809439 0
M  V30 11 N 39.632879 36.603479 62.508555 0
M  V30 12 N 39.271620 25.976352 56.317153 0
M  V30 13 C 38.369973 28.218320 56.678090 0 CFG=2
M  V30 14 O 38.433622 32.840397 59.707650 0
M  V30 15 C 38.431318 27.931831 55.170259 0
M  V30 16 O 39.867397 36.821433 63.923856 0
M  V30 17 C 38.180204 36.641907 62.347654 0
M  V30 18 C 38.953132 29.524326 57.257840 0 CFG=2
M  V30 19 C 39.631376 28.211875 59.338592 0
M  V30 20 C 40.233165 35.304402 62.182039 0 CFG=2
M  V30 21 C 39.133873 27.042530 57.180696 0
M  V30 22 C 39.707357 27.033730 58.381090 0
M  V30 23 C 37.753225 36.201937 60.936197 0
M  V30 24 C 37.624838 33.887405 60.003982 0
M  V30 25 C 38.885251 26.487345 55.228205 0
M  V30 26 H 37.837960 32.790388 57.069890 0
M  V30 27 H 39.463958 32.254758 57.431503 0
M  V30 28 H 40.267551 33.836825 60.638748 0
M  V30 29 H 40.304253 35.469782 60.031389 0
M  V30 30 H 38.441680 30.874204 55.638196 0
M  V30 31 H 37.105879 30.476168 56.687983 0
M  V30 32 H 36.910666 31.593386 58.987242 0
M  V30 33 H 39.179443 28.536890 54.657237 0
M  V30 34 H 40.585003 37.445748 63.936565 0
M  V30 35 H 37.699944 36.021426 63.098406 0
M  V30 36 H 37.824588 37.652577 62.535540 0
M  V30 37 H 39.987124 29.622354 56.923576 0
M  V30 38 H 40.642946 28.451305 59.668863 0
M  V30 39 H 39.075710 27.886455 60.219414 0
M  V30 40 H 41.318220 35.380552 62.263057 0
M  V30 41 H 40.266527 26.171280 58.702925 0
M  V30 42 H 36.665670 36.153988 60.888640 0
M  V30 43 H 38.058009 36.952158 60.206402 0
M  V30 44 H 38.856045 25.931721 54.287359 0
M  V30 45 H 37.355385 28.093649 57.053501 0
M  V30 46 H 37.465896 28.032251 54.674307 0
M  V30 END ATOM
M  V30 BEGIN BOND
M  V30 1 1 3 1
M  V30 2 1 5 4
M  V30 3 1 6 2
M  V30 4 1 7 2
M  V30 5 1 7 4
M  V30 6 2 10 4
M  V30 7 1 14 7
M  V30 8 1 15 13
M  V30 9 1 16 11
M  V30 10 1 17 11
M  V30 11 1 18 5
M  V30 12 1 18 6
M  V30 13 1 18 13
M  V30 14 1 19 5
M  V30 15 1 20 3
M  V30 16 1 20 8
M  V30 17 1 20 11
M  V30 18 1 21 12
M  V30 19 1 21 13
M  V30 20 1 22 19
M  V30 21 2 22 21
M  V30 22 1 23 1
M  V30 23 1 23 17
M  V30 24 1 24 1
M  V30 25 2 24 9
M  V30 26 1 24 14
M  V30 27 2 25 12
M  V30 28 1 25 15
M  V30 29 1 26 2
M  V30 30 1 27 2
M  V30 31 1 28 3
M  V30 32 1 29 3
M  V30 33 1 30 6
M  V30 34 1 31 6
M  V30 35 1 7 32 CFG=3
M  V30 36 1 33 15
M  V30 37 1 34 16
M  V30 38 1 35 17
M  V30 39 1 36 17
M  V30 40 1 18 37 CFG=3
M  V30 41 1 38 19
M  V30 42 1 39 19
M  V30 43 1 20 40 CFG=3
M  V30 44 1 41 22
M  V30 45 1 42 23
M  V30 46 1 43 23
M  V30 47 1 44 25
M  V30 48 1 13 45 CFG=1
M  V30 49 1 46 15
M  V30 END BOND
M  V30 END CTAB
M  END
>  <i_epik_Tot_Q>  (1) 
0

>  <i_epik_Tot_abs_Q>  (1) 
0

>  <i_i_glide_confnum>  (1) 
1

>  <i_i_glide_lignum>  (1) 
53

>  <i_i_glide_posenum>  (1) 
270

>  <i_i_glide_rotatable_bonds>  (1) 
4

>  <i_lp_mmshare_version>  (1) 
72125

>  <i_m_source_file_index>  (1) 
20

>  <i_f3d_flags>  (1) 
0

>  <num_sample>  (1) 
50

>  <b_lp_Chiralities_Consistent>  (1) 
1

>  <r_epik_Charging_Adjusted_Penalty>  (1) 
0

>  <r_epik_Ionization_Penalty>  (1) 
0.00023690808741792311

>  <r_epik_Ionization_Penalty_Charging>  (1) 
0

>  <r_epik_Ionization_Penalty_Neutral>  (1) 
0.00023690808741792311

>  <r_epik_State_Penalty>  (1) 
-0

>  <r_glide_ring_energy>  (1) 
0.27322882293605699

>  <r_i_docking_score>  (1) 
-7.361870351440178

>  <r_i_glide_ecoul>  (1) 
-3.5102066930369107

>  <r_i_glide_eff_state_penalty>  (1) 
-0

>  <r_i_glide_einternal>  (1) 
2.6452849113541466

>  <r_i_glide_emodel>  (1) 
-61.692056039717535

>  <r_i_glide_emodel_strain>  (1) 
0.2425435600904251

>  <r_i_glide_energy>  (1) 
-43.658388906635196

>  <r_i_glide_erotb>  (1) 
0.46110279215177946

>  <r_i_glide_esite>  (1) 
-0.033707520702010038

>  <r_i_glide_evdw>  (1) 
-40.148182213598282

>  <r_i_glide_gscore>  (1) 
-7.361870351440178

>  <r_i_glide_gscore_strain>  (1) 
0

>  <r_i_glide_hbond>  (1) 
-0.32000000000000001

>  <r_i_glide_ligand_efficiency>  (1) 
-0.29447481405760711

>  <r_i_glide_ligand_efficiency_ln>  (1) 
-1.7449838907430193

>  <r_i_glide_ligand_efficiency_sa>  (1) 
-0.86104957976137875

>  <r_i_glide_lipo>  (1) 
-2.0032544007907389

>  <r_i_glide_metal>  (1) 
-0

>  <r_i_glide_rewards>  (1) 
-2.9320711074637567

>  <r_lp_Energy>  (1) 
38.735985999999997

>  <r_lp_tautomer_probability>  (1) 
1

>  <s_epik_Chemistry_Notes>  (1) 
This compound has an ester and may undergo hydrolysis at high or low pH. This compound has an imine and may undergo hydrolysis. This compound has a N-S or N-O group and may undergo hydrolysis at high or low pH.

>  <s_epik_cmdline>  (1) 
J2VwaWtfcHl0aG9uJywgJy1waHQnLCAnMS4wJywgJy1waCcsICc3LjQnLCAnLXRuJywgJzgnLCAnLW1hJywgJzUwMCcsICctaW1hZScsICc8aW5maWxlLm1hZT4nLCAnLW9tYWUnLCAnPG91dGZpbGUubWFlPic=

>  <s_epik_input>  (1) 
W0NIMl0xW0NIMl1OKFtPSF0pW0NAQEhdKEYpW0NIMl1OMUMoPU8pT1tDQEhdKEMyPU8pW0NIMl1bQ0gyXVtDQEBIXShOMjMpQz00QyhbQ0gyXVtDSDJdMyk9TltDSDJdW0NIXTQ=

>  <s_glide_docking_method>  (1) 
confgen

>  <s_i_glide_gridfile>  (1) 
gpcr_5ht2c_6bqh_protein_autoprepared_prepared

>  <s_lp_Force_Field>  (1) 
S-OPLS

>  <s_lp_Variant>  (1) 
DiffSBDD_19_num_sample_50-2

>  <s_m_source_file>  (1) 
generated__ligand_DiffSBDD_2026-05-06_prepared.sdf

>  <GenAI_Model>  (1) 
DiffSBDD

>  <Protein>  (1) 
GPCR_5HT2C

$$$$
DiffSBDD_37_num_sample_50
     RDKit          3D

  0  0  0  0  0  0  0  0  0  0999 V3000
M  V30 BEGIN CTAB
M  V30 COUNTS 62 64 0 0 1
M  V30 BEGIN ATOM
M  V30 1 C 39.062562 27.520097 53.910889 0
M  V30 2 F 39.907322 28.996371 50.081021 0
M  V30 3 C 37.741999 33.216478 58.607938 0
M  V30 4 C 37.855871 26.496355 56.420523 0
M  V30 5 C 38.987666 26.021371 54.107548 0
M  V30 6 N 39.867046 29.871024 51.142862 0
M  V30 7 C 36.866130 35.760575 60.295071 0 CFG=1
M  V30 8 C 37.692582 28.834884 57.330111 0
M  V30 9 C 36.832124 37.259397 60.326561 0
M  V30 10 C 38.938012 29.815115 54.756385 0
M  V30 11 C 38.827258 28.422111 54.986401 0
M  V30 12 C 38.483338 27.892162 56.394371 0 CFG=2
M  V30 13 S 39.071175 25.372439 55.786214 0
M  V30 14 O 37.467396 37.621428 59.128602 0
M  V30 15 C 39.503152 29.397870 52.411516 0
M  V30 16 C 39.440821 35.541864 61.043890 0
M  V30 17 C 39.278574 30.299254 53.475222 0
M  V30 18 C 38.145663 34.944453 60.510266 0 CFG=1
M  V30 19 C 36.583740 30.508957 59.466770 0
M  V30 20 C 40.614389 28.782655 59.624968 0
M  V30 21 C 38.031736 30.694706 58.954640 0 CFG=2
M  V30 22 C 39.130204 28.510721 59.345286 0
M  V30 23 C 39.384317 28.015583 52.631887 0
M  V30 24 F 39.867420 31.221426 50.897561 0
M  V30 25 C 38.206615 31.894835 58.002510 0
M  V30 26 O 37.084479 35.027913 61.482987 0
M  V30 27 N 38.587438 29.466388 58.335283 0 CFG=1 CHG=1
M  V30 28 O 35.867436 35.242584 59.453502 0
M  V30 29 C 38.387014 33.538765 59.971434 0
M  V30 30 H 36.661917 33.132853 58.696566 0
M  V30 31 H 37.939637 34.020690 57.898323 0
M  V30 32 H 37.621127 26.179753 57.437157 0
M  V30 33 H 36.940538 26.421453 55.832678 0
M  V30 34 H 38.074811 25.655494 53.637449 0
M  V30 35 H 39.867214 25.621478 53.600504 0
M  V30 36 H 36.925441 28.284451 57.875893 0
M  V30 37 H 37.133052 29.570150 56.751277 0
M  V30 38 H 37.369217 37.657134 61.186809 0
M  V30 39 H 35.806382 37.621971 60.357785 0
M  V30 40 H 38.774558 30.512837 55.560232 0
M  V30 41 H 39.478214 27.767042 56.823809 0
M  V30 42 H 37.115782 37.061883 58.447694 0
M  V30 43 H 40.184359 35.621384 60.253392 0
M  V30 44 H 39.283740 36.533822 61.463415 0
M  V30 45 H 39.847541 34.909235 61.833328 0
M  V30 46 H 39.371895 31.363479 53.311308 0
M  V30 47 H 36.261556 31.348868 60.082114 0
M  V30 48 H 35.864717 30.420858 58.653466 0
M  V30 49 H 36.490687 29.621407 60.085596 0
M  V30 50 H 41.006644 28.071520 60.352910 0
M  V30 51 H 41.214765 28.685660 58.719174 0
M  V30 52 H 40.770347 29.782760 60.028463 0
M  V30 53 H 38.655987 30.894264 59.825462 0
M  V30 54 H 38.559540 28.560144 60.271965 0
M  V30 55 H 39.034745 27.477898 59.010301 0
M  V30 56 H 39.562478 27.324247 51.819877 0
M  V30 57 H 37.638298 31.742327 57.085683 0
M  V30 58 H 39.247359 31.987688 57.693772 0
M  V30 59 H 36.266603 34.661833 58.823519 0
M  V30 60 H 39.462150 33.379105 59.875449 0
M  V30 61 H 38.048388 32.839969 60.735401 0
M  V30 62 H 39.391367 29.774573 57.807552 0
M  V30 END ATOM
M  V30 BEGIN BOND
M  V30 1 1 5 1
M  V30 2 1 6 2
M  V30 3 1 9 7
M  V30 4 2 11 1
M  V30 5 1 11 10
M  V30 6 1 12 4
M  V30 7 1 12 8
M  V30 8 1 12 11
M  V30 9 1 13 4
M  V30 10 1 13 5
M  V30 11 1 14 9
M  V30 12 1 15 6
M  V30 13 2 17 10
M  V30 14 1 17 15
M  V30 15 1 18 7
M  V30 16 1 18 16 CFG=1
M  V30 17 1 21 19
M  V30 18 1 22 20
M  V30 19 1 23 1
M  V30 20 2 23 15
M  V30 21 1 24 6
M  V30 22 1 25 3
M  V30 23 1 25 21
M  V30 24 1 26 7
M  V30 25 1 26 18
M  V30 26 1 27 8
M  V30 27 1 27 21
M  V30 28 1 27 22
M  V30 29 1 7 28 CFG=3
M  V30 30 1 29 3
M  V30 31 1 29 18
M  V30 32 1 30 3
M  V30 33 1 31 3
M  V30 34 1 32 4
M  V30 35 1 33 4
M  V30 36 1 34 5
M  V30 37 1 35 5
M  V30 38 1 36 8
M  V30 39 1 37 8
M  V30 40 1 38 9
M  V30 41 1 39 9
M  V30 42 1 40 10
M  V30 43 1 12 41 CFG=1
M  V30 44 1 42 14
M  V30 45 1 43 16
M  V30 46 1 44 16
M  V30 47 1 45 16
M  V30 48 1 46 17
M  V30 49 1 47 19
M  V30 50 1 48 19
M  V30 51 1 49 19
M  V30 52 1 50 20
M  V30 53 1 51 20
M  V30 54 1 52 20
M  V30 55 1 21 53 CFG=1
M  V30 56 1 54 22
M  V30 57 1 55 22
M  V30 58 1 56 23
M  V30 59 1 57 25
M  V30 60 1 58 25
M  V30 61 1 59 28
M  V30 62 1 60 29
M  V30 63 1 61 29
M  V30 64 1 27 62 CFG=3
M  V30 END BOND
M  V30 END CTAB
M  END
>  <i_epik_Tot_Q>  (1) 
1

>  <i_epik_Tot_abs_Q>  (1) 
1

>  <i_i_glide_confnum>  (1) 
3

>  <i_i_glide_lignum>  (1) 
92

>  <i_i_glide_posenum>  (1) 
335

>  <i_i_glide_rotatable_bonds>  (1) 
12

>  <i_lp_mmshare_version>  (1) 
72125

>  <i_m_source_file_index>  (1) 
38

>  <i_f3d_flags>  (1) 
0

>  <num_sample>  (1) 
50

>  <b_lp_Chiralities_Consistent>  (1) 
1

>  <r_epik_Charging_Adjusted_Penalty>  (1) 
0.031037112904587178

>  <r_epik_Ionization_Penalty>  (1) 
0.015538636701717824

>  <r_epik_Ionization_Penalty_Charging>  (1) 
0.015518556452293627

>  <r_epik_Ionization_Penalty_Neutral>  (1) 
2.0080249424197063e-05

>  <r_epik_State_Penalty>  (1) 
0.015518556452293551

>  <r_glide_ring_energy>  (1) 
0

>  <r_i_docking_score>  (1) 
-7.3618296533981749

>  <r_i_glide_ecoul>  (1) 
-1.959270398639898

>  <r_i_glide_eff_state_penalty>  (1) 
0.015518556452293551

>  <r_i_glide_einternal>  (1) 
11.791314530984526

>  <r_i_glide_emodel>  (1) 
-54.364777017718374

>  <r_i_glide_emodel_strain>  (1) 
3.7106994154986452

>  <r_i_glide_energy>  (1) 
-38.703065599233113

>  <r_i_glide_erotb>  (1) 
0.85436837262661747

>  <r_i_glide_esite>  (1) 
0

>  <r_i_glide_evdw>  (1) 
-36.743795200593212

>  <r_i_glide_gscore>  (1) 
-7.3773482098504681

>  <r_i_glide_gscore_strain>  (1) 
0

>  <r_i_glide_hbond>  (1) 
-0.085865766962095164

>  <r_i_glide_ligand_efficiency>  (1) 
-0.25385619494476463

>  <r_i_glide_ligand_efficiency_ln>  (1) 
-1.6856723107353537

>  <r_i_glide_ligand_efficiency_sa>  (1) 
-0.77992665903338709

>  <r_i_glide_lipo>  (1) 
-3.2584364032712538

>  <r_i_glide_metal>  (1) 
-0

>  <r_i_glide_rewards>  (1) 
-2.7563340924180917

>  <r_lp_Energy>  (1) 
38.592610000000001

>  <s_epik_cmdline>  (1) 
J2VwaWtfcHl0aG9uJywgJy1waHQnLCAnMS4wJywgJy1waCcsICc3LjQnLCAnLXRuJywgJzgnLCAnLW1hJywgJzUwMCcsICctaW1hZScsICc8aW5maWxlLm1hZT4nLCAnLW9tYWUnLCAnPG91dGZpbGUubWFlPic=

>  <s_epik_input>  (1) 
Rk4oRiljKFtjSF0xKVtjSF1bY0hdYyhjMTIpW0NASF0oW0NIMl1TW0NIMl0yKVtDSDJdTihbQ0gyXVtDSDNdKVtDQEhdKFtDSDNdKVtDSDJdW0NIMl1bQ0gyXVtDQEBdKE8zKShbQ0gzXSlDMyhbT0hdKVtDSDJdW09IXQ==

>  <s_glide_docking_method>  (1) 
confgen

>  <s_i_glide_gridfile>  (1) 
gpcr_5ht2c_6bqh_protein_autoprepared_prepared

>  <s_lp_Force_Field>  (1) 
S-OPLS

>  <s_lp_Variant>  (1) 
DiffSBDD_37_num_sample_50-2

>  <s_m_source_file>  (1) 
generated__ligand_DiffSBDD_2026-05-06_prepared.sdf

>  <GenAI_Model>  (1) 
DiffSBDD

>  <Protein>  (1) 
GPCR_5HT2C

$$$$
DiffSBDD_18_num_sample_50
     RDKit          3D

  0  0  0  0  0  0  0  0  0  0999 V3000
M  V30 BEGIN CTAB
M  V30 COUNTS 74 76 0 0 1
M  V30 BEGIN ATOM
M  V30 1 C 38.490874 28.601251 56.350048 0
M  V30 2 C 38.490569 29.938849 55.583169 0 CFG=1
M  V30 3 C 37.106761 24.820414 57.496799 0
M  V30 4 F 41.067442 31.018536 68.220758 0
M  V30 5 C 41.348582 31.897737 63.356239 0
M  V30 6 C 37.947385 32.330526 60.697224 0 CFG=2
M  V30 7 C 37.073097 24.500849 56.000962 0
M  V30 8 C 41.524192 32.316436 64.803229 0
M  V30 9 F 42.357885 34.462143 64.101403 0
M  V30 10 C 39.455807 27.511704 55.837688 0
M  V30 11 C 42.226447 34.003625 66.435574 0
M  V30 12 C 36.590469 31.860026 61.255128 0
M  V30 13 C 40.502380 30.642836 63.141701 0 CFG=2
M  V30 14 N 40.856047 29.889871 61.940807 0
M  V30 15 C 38.305717 31.733349 59.318863 0
M  V30 16 C 38.142555 32.718608 58.140269 0
M  V30 17 O 35.515796 32.254577 60.431868 0
M  V30 18 C 41.896559 33.131248 67.485777 0
M  V30 19 O 41.839841 32.554756 62.436228 0
M  V30 20 C 41.185713 31.443297 65.873672 0
M  V30 21 S 38.621899 25.747972 57.832940 0
M  V30 22 C 38.504687 33.157871 55.650218 0
M  V30 23 C 37.695355 25.692959 55.282730 0
M  V30 24 C 42.045260 33.604801 65.099709 0
M  V30 25 C 37.692319 29.913990 54.257563 0
M  V30 26 N 37.867422 30.931246 56.487341 0 CHG=1
M  V30 27 F 39.902231 25.241669 55.677730 0
M  V30 28 C 39.130232 30.849021 62.449663 0 CFG=2
M  V30 29 C 39.467869 29.586480 61.648778 0
M  V30 30 C 38.249758 29.031668 53.131151 0
M  V30 31 C 38.635568 32.146861 56.796099 0 CFG=2
M  V30 32 C 38.953219 26.076481 56.080834 0 CFG=1
M  V30 33 C 41.378791 31.854933 67.206424 0
M  V30 34 N 39.049962 32.123029 61.668349 0 CHG=1
M  V30 35 H 38.770073 28.784135 57.389512 0
M  V30 36 H 37.467695 28.238113 56.409697 0
M  V30 37 H 39.523008 30.226912 55.374799 0
M  V30 38 H 37.069881 23.917261 58.102471 0
M  V30 39 H 36.260769 25.448581 57.771760 0
M  V30 40 H 37.896069 33.414869 60.585471 0
M  V30 41 H 37.679650 23.621658 55.799290 0
M  V30 42 H 36.063992 24.288092 55.648890 0
M  V30 43 H 39.674524 27.625001 54.780932 0
M  V30 44 H 40.422581 27.645228 56.326841 0
M  V30 45 H 42.619607 34.985040 66.653796 0
M  V30 46 H 36.435691 32.272421 62.251761 0
M  V30 47 H 36.564056 30.774685 61.340980 0
M  V30 48 H 40.456143 29.904348 63.934735 0
M  V30 49 H 41.373574 29.048565 62.171324 0
M  V30 50 H 39.338601 31.394002 59.331841 0
M  V30 51 H 37.705117 30.839001 59.148180 0
M  V30 52 H 37.097833 33.025948 58.058023 0
M  V30 53 H 38.712109 33.621351 58.355813 0
M  V30 54 H 35.467257 33.198942 60.389587 0
M  V30 55 H 42.040347 33.442404 68.510249 0
M  V30 56 H 40.793868 30.462486 65.687888 0
M  V30 57 H 39.067260 34.063030 55.853613 0
M  V30 58 H 38.882022 32.751289 54.712457 0
M  V30 59 H 37.467412 33.449058 55.491386 0
M  V30 60 H 36.968979 26.499910 55.254724 0
M  V30 61 H 37.931731 25.458393 54.245347 0
M  V30 62 H 36.667241 29.617429 54.460851 0
M  V30 63 H 37.633187 30.931051 53.870134 0
M  V30 64 H 37.729202 30.460870 57.368024 0
M  V30 65 H 38.287326 30.704352 63.123566 0
M  V30 66 H 39.152670 28.657929 62.128855 0
M  V30 67 H 39.220822 29.586686 60.589534 0
M  V30 68 H 37.733801 29.220649 52.191336 0
M  V30 69 H 39.309715 29.222193 52.962069 0
M  V30 70 H 38.109472 27.971841 53.337293 0
M  V30 71 H 39.685987 31.882596 56.906738 0
M  V30 72 H 39.931312 32.230685 61.182338 0
M  V30 73 H 36.929685 31.207826 56.194724 0
M  V30 74 H 38.991631 32.872795 62.343585 0
M  V30 END ATOM
M  V30 BEGIN BOND
M  V30 1 1 2 1
M  V30 2 1 7 3
M  V30 3 1 8 5
M  V30 4 1 10 1
M  V30 5 1 12 6
M  V30 6 1 13 5
M  V30 7 1 14 13
M  V30 8 1 15 6
M  V30 9 1 16 15
M  V30 10 1 17 12
M  V30 11 2 18 11
M  V30 12 2 19 5
M  V30 13 1 20 8
M  V30 14 1 21 3
M  V30 15 1 23 7
M  V30 16 2 24 8
M  V30 17 1 24 9
M  V30 18 1 24 11
M  V30 19 1 25 2
M  V30 20 1 26 2
M  V30 21 1 28 13
M  V30 22 1 29 14
M  V30 23 1 29 28
M  V30 24 1 30 25
M  V30 25 1 31 16
M  V30 26 1 31 22
M  V30 27 1 31 26
M  V30 28 1 32 10
M  V30 29 1 32 21
M  V30 30 1 32 23
M  V30 31 1 32 27 CFG=3
M  V30 32 1 33 4
M  V30 33 1 33 18
M  V30 34 2 33 20
M  V30 35 1 34 6
M  V30 36 1 34 28
M  V30 37 1 35 1
M  V30 38 1 36 1
M  V30 39 1 2 37 CFG=3
M  V30 40 1 38 3
M  V30 41 1 39 3
M  V30 42 1 6 40 CFG=3
M  V30 43 1 41 7
M  V30 44 1 42 7
M  V30 45 1 43 10
M  V30 46 1 44 10
M  V30 47 1 45 11
M  V30 48 1 46 12
M  V30 49 1 47 12
M  V30 50 1 13 48 CFG=1
M  V30 51 1 49 14
M  V30 52 1 50 15
M  V30 53 1 51 15
M  V30 54 1 52 16
M  V30 55 1 53 16
M  V30 56 1 54 17
M  V30 57 1 55 18
M  V30 58 1 56 20
M  V30 59 1 57 22
M  V30 60 1 58 22
M  V30 61 1 59 22
M  V30 62 1 60 23
M  V30 63 1 61 23
M  V30 64 1 62 25
M  V30 65 1 63 25
M  V30 66 1 64 26
M  V30 67 1 28 65 CFG=1
M  V30 68 1 66 29
M  V30 69 1 67 29
M  V30 70 1 68 30
M  V30 71 1 69 30
M  V30 72 1 70 30
M  V30 73 1 31 71 CFG=1
M  V30 74 1 72 34
M  V30 75 1 73 26
M  V30 76 1 74 34
M  V30 END BOND
M  V30 END CTAB
M  END
>  <i_epik_Tot_Q>  (1) 
2

>  <i_epik_Tot_abs_Q>  (1) 
2

>  <i_i_glide_confnum>  (1) 
5326

>  <i_i_glide_lignum>  (1) 
50

>  <i_i_glide_posenum>  (1) 
198

>  <i_i_glide_rotatable_bonds>  (1) 
15

>  <i_lp_mmshare_version>  (1) 
72125

>  <i_m_source_file_index>  (1) 
19

>  <i_f3d_flags>  (1) 
0

>  <num_sample>  (1) 
50

>  <b_lp_Chiralities_Consistent>  (1) 
1

>  <r_epik_Charging_Adjusted_Penalty>  (1) 
0.1621260604540144

>  <r_epik_Ionization_Penalty>  (1) 
0.081641699249211233

>  <r_epik_Ionization_Penalty_Charging>  (1) 
0.081638306134831307

>  <r_epik_Ionization_Penalty_Neutral>  (1) 
3.3931143799284323e-06

>  <r_epik_State_Penalty>  (1) 
0.080487754319183077

>  <r_glide_ring_energy>  (1) 
0

>  <r_i_docking_score>  (1) 
-7.3616133644523574

>  <r_i_glide_ecoul>  (1) 
-4.6485925438890998

>  <r_i_glide_eff_state_penalty>  (1) 
0.080487754319183077

>  <r_i_glide_einternal>  (1) 
20.363871263131447

>  <r_i_glide_emodel>  (1) 
-66.173234057199679

>  <r_i_glide_emodel_strain>  (1) 
2.3518727474673682

>  <r_i_glide_energy>  (1) 
-49.687231988863367

>  <r_i_glide_erotb>  (1) 
0.96692483815447339

>  <r_i_glide_esite>  (1) 
-0.10000000000000001

>  <r_i_glide_evdw>  (1) 
-45.038639444974265

>  <r_i_glide_gscore>  (1) 
-7.4421011187715402

>  <r_i_glide_gscore_strain>  (1) 
0

>  <r_i_glide_hbond>  (1) 
-0.48756522662443846

>  <r_i_glide_ligand_efficiency>  (1) 
-0.21651804013095169

>  <r_i_glide_ligand_efficiency_ln>  (1) 
-1.6263868784682429

>  <r_i_glide_ligand_efficiency_sa>  (1) 
-0.70143439799770291

>  <r_i_glide_lipo>  (1) 
-3.6301654487128148

>  <r_i_glide_metal>  (1) 
-0

>  <r_i_glide_rewards>  (1) 
-1.2420744277566826

>  <r_lp_Energy>  (1) 
44.339452000000001

>  <r_lp_tautomer_probability>  (1) 
0.99990000499974985

>  <s_epik_cmdline>  (1) 
J2VwaWtfcHl0aG9uJywgJy1waHQnLCAnMS4wJywgJy1waCcsICc3LjQnLCAnLXRuJywgJzgnLCAnLW1hJywgJzUwMCcsICctaW1hZScsICc8aW5maWxlLm1hZT4nLCAnLW9tYWUnLCAnPG91dGZpbGUubWFlPic=

>  <s_epik_input>  (1) 
W0NIMl0xW0NIMl1bQ0gyXVNbQ0BdMShGKVtDSDJdW0NIMl1bQ0BASF0oW0NIMl1bQ0gzXSlbTkhdW0NAQEhdKFtDSDNdKVtDSDJdW0NIMl1bQ0BASF0oW0NIMl1bT0hdKVtOSF1bQ0BIXTJbQ0gyXVtOSF1bQ0BIXTJDKD1PKWMzW2NIXWMoRilbY0hdW2NIXWMzRg==

>  <s_glide_docking_method>  (1) 
confgen

>  <s_i_glide_gridfile>  (1) 
gpcr_5ht2c_6bqh_protein_autoprepared_prepared

>  <s_lp_Force_Field>  (1) 
S-OPLS

>  <s_lp_Variant>  (1) 
DiffSBDD_18_num_sample_50-1

>  <s_m_source_file>  (1) 
generated__ligand_DiffSBDD_2026-05-06_prepared.sdf

>  <GenAI_Model>  (1) 
DiffSBDD

>  <Protein>  (1) 
GPCR_5HT2C

$$$$
DiffSBDD_23_num_sample_50
     RDKit          3D

  0  0  0  0  0  0  0  0  0  0999 V3000
M  V30 BEGIN CTAB
M  V30 COUNTS 61 65 0 0 1
M  V30 BEGIN ATOM
M  V30 1 C 38.193357 26.599693 56.846277 0
M  V30 2 C 40.376324 30.200835 65.985614 0 CFG=1
M  V30 3 C 38.501206 31.393459 56.819370 0
M  V30 4 C 37.404529 31.662599 60.109392 0 CFG=1
M  V30 5 S 43.637475 28.231038 64.253332 0
M  V30 6 C 38.901920 30.144144 57.305397 0
M  V30 7 C 39.219875 27.673138 57.079833 0
M  V30 8 N 44.428349 28.985884 66.596265 0
M  V30 9 C 42.538612 29.144326 65.269798 0
M  V30 10 C 42.469435 30.214823 67.580978 0
M  V30 11 S 39.826914 30.965537 61.316238 0
M  V30 12 O 39.708525 29.689601 60.598338 0
M  V30 13 C 37.861842 30.380482 54.708967 0
M  V30 14 C 41.156289 29.491412 64.833689 0 CFG=2
M  V30 15 N 38.316165 31.811974 61.268383 0
M  V30 16 C 37.988006 31.515570 55.524912 0
M  V30 17 C 38.779877 28.990811 56.505474 0
M  V30 18 C 38.494656 34.223182 60.764963 0
M  V30 19 C 38.570226 25.938371 55.546401 0
M  V30 20 O 39.067501 24.821361 55.556813 0
M  V30 21 Cl 35.790279 31.551579 60.860371 0
M  V30 22 C 38.064725 27.928039 54.219842 0
M  V30 23 S 38.667359 32.821617 57.833626 0
M  V30 24 N 39.888880 30.582873 62.985175 0
M  V30 25 O 40.914428 31.917694 61.053529 0
M  V30 26 N 38.297923 26.679128 54.415468 0
M  V30 27 C 38.287091 33.159738 61.844530 0
M  V30 28 C 43.116767 29.458845 66.475952 0
M  V30 29 C 44.831662 28.333649 65.513555 0
M  V30 30 O 37.413815 34.113082 59.852329 0
M  V30 31 C 38.243857 29.099335 55.175171 0
M  V30 32 N 41.123758 30.243910 63.581381 0
M  V30 33 N 39.509025 29.221465 66.653649 0 CHG=1
M  V30 34 C 37.404656 32.879176 59.140282 0 CFG=2
M  V30 35 C 41.249091 30.981414 67.019473 0
M  V30 36 H 37.163116 26.954793 56.869297 0
M  V30 37 H 38.274157 25.846916 57.633183 0
M  V30 38 H 39.670169 30.913773 65.558844 0
M  V30 39 H 37.561838 30.716114 59.597194 0
M  V30 40 H 39.308610 30.064495 58.296617 0
M  V30 41 H 39.352279 27.784750 58.157805 0
M  V30 42 H 40.211114 27.419835 56.696103 0
M  V30 43 H 42.140505 29.521190 68.354862 0
M  V30 44 H 43.170874 30.905055 68.051750 0
M  V30 45 H 37.467293 30.488059 53.715344 0
M  V30 46 H 40.653923 28.548895 64.608715 0
M  V30 47 H 37.685075 32.483992 55.152579 0
M  V30 48 H 39.459277 34.119896 60.265859 0
M  V30 49 H 38.472631 35.217000 61.212153 0
M  V30 50 H 37.688174 28.218524 53.235371 0
M  V30 51 H 39.219109 29.834945 63.176863 0
M  V30 52 H 39.012143 33.252197 62.653688 0
M  V30 53 H 37.294924 33.320436 62.253534 0
M  V30 54 H 45.826018 27.913722 65.461122 0
M  V30 55 H 41.733538 31.058908 63.628237 0
M  V30 56 H 40.061309 28.511693 67.117485 0
M  V30 57 H 38.933161 29.680347 67.343623 0
M  V30 58 H 36.449223 32.870825 58.625078 0
M  V30 59 H 40.643359 31.372789 67.836938 0
M  V30 60 H 41.634893 31.861926 66.502494 0
M  V30 61 H 38.914377 28.787250 65.955593 0
M  V30 END ATOM
M  V30 BEGIN BOND
M  V30 1 2 6 3
M  V30 2 1 7 1
M  V30 3 1 9 5
M  V30 4 2 12 11
M  V30 5 1 14 2
M  V30 6 1 14 9
M  V30 7 1 15 4
M  V30 8 1 15 11
M  V30 9 1 16 3
M  V30 10 2 16 13
M  V30 11 1 17 6
M  V30 12 1 17 7
M  V30 13 1 19 1
M  V30 14 2 20 19
M  V30 15 1 21 4
M  V30 16 1 23 3
M  V30 17 1 24 11
M  V30 18 2 25 11
M  V30 19 1 26 19
M  V30 20 2 26 22
M  V30 21 1 27 15
M  V30 22 1 27 18
M  V30 23 1 28 8
M  V30 24 2 28 9
M  V30 25 1 28 10
M  V30 26 1 29 5
M  V30 27 2 29 8
M  V30 28 1 30 18
M  V30 29 1 31 13
M  V30 30 2 31 17
M  V30 31 1 31 22
M  V30 32 1 32 14
M  V30 33 1 32 24
M  V30 34 1 33 2
M  V30 35 1 34 4
M  V30 36 1 34 23
M  V30 37 1 34 30
M  V30 38 1 35 2
M  V30 39 1 35 10
M  V30 40 1 36 1
M  V30 41 1 37 1
M  V30 42 1 2 38 CFG=3
M  V30 43 1 4 39 CFG=3
M  V30 44 1 40 6
M  V30 45 1 41 7
M  V30 46 1 42 7
M  V30 47 1 43 10
M  V30 48 1 44 10
M  V30 49 1 45 13
M  V30 50 1 14 46 CFG=3
M  V30 51 1 47 16
M  V30 52 1 48 18
M  V30 53 1 49 18
M  V30 54 1 50 22
M  V30 55 1 51 24
M  V30 56 1 52 27
M  V30 57 1 53 27
M  V30 58 1 54 29
M  V30 59 1 55 32
M  V30 60 1 56 33
M  V30 61 1 57 33
M  V30 62 1 34 58 CFG=3
M  V30 63 1 59 35
M  V30 64 1 60 35
M  V30 65 1 61 33
M  V30 END BOND
M  V30 END CTAB
M  END
>  <i_epik_Tot_Q>  (1) 
1

>  <i_epik_Tot_abs_Q>  (1) 
1

>  <i_i_glide_confnum>  (1) 
550

>  <i_i_glide_lignum>  (1) 
62

>  <i_i_glide_posenum>  (1) 
237

>  <i_i_glide_rotatable_bonds>  (1) 
6

>  <i_lp_mmshare_version>  (1) 
72125

>  <i_m_source_file_index>  (1) 
24

>  <i_f3d_flags>  (1) 
0

>  <num_sample>  (1) 
50

>  <b_lp_Chiralities_Consistent>  (1) 
1

>  <r_epik_Charging_Adjusted_Penalty>  (1) 
0.20786405117440027

>  <r_epik_Ionization_Penalty>  (1) 
0.17784020352230567

>  <r_epik_Ionization_Penalty_Charging>  (1) 
0.046839863378715332

>  <r_epik_Ionization_Penalty_Neutral>  (1) 
0.13100034014359035

>  <r_epik_State_Penalty>  (1) 
0.16102418779568495

>  <r_glide_ring_energy>  (1) 
2.368635989624321

>  <r_i_docking_score>  (1) 
-7.3439011683715902

>  <r_i_glide_ecoul>  (1) 
-9.1180426759453095

>  <r_i_glide_eff_state_penalty>  (1) 
0.16102418779568495

>  <r_i_glide_einternal>  (1) 
2.3772013049155607

>  <r_i_glide_emodel>  (1) 
-92.636145670713645

>  <r_i_glide_emodel_strain>  (1) 
0.7716912836915526

>  <r_i_glide_energy>  (1) 
-65.035478877630254

>  <r_i_glide_erotb>  (1) 
0.32266353053763186

>  <r_i_glide_esite>  (1) 
0

>  <r_i_glide_evdw>  (1) 
-55.917436201684943

>  <r_i_glide_gscore>  (1) 
-7.5049253561672753

>  <r_i_glide_gscore_strain>  (1) 
0

>  <r_i_glide_hbond>  (1) 
-0.18789556458875945

>  <r_i_glide_ligand_efficiency>  (1) 
-0.20982574766775972

>  <r_i_glide_ligand_efficiency_ln>  (1) 
-1.6121492955623755

>  <r_i_glide_ligand_efficiency_sa>  (1) 
-0.68635393420614099

>  <r_i_glide_lipo>  (1) 
-1.5654946181134632

>  <r_i_glide_metal>  (1) 
-0

>  <r_i_glide_rewards>  (1) 
-1.9106204925266415

>  <r_lp_Energy>  (1) 
46.497914999999999

>  <s_epik_Chemistry_Notes>  (1) 
This compound has an imine and may undergo hydrolysis. This compound contains an acetal/aminal-like group ( X-CH(R)-Y where X, Y are N, S, or O) that may be acid/base labile, releasing an aldehyde.

>  <s_epik_cmdline>  (1) 
J2VwaWtfcHl0aG9uJywgJy1waHQnLCAnMS4wJywgJy1waCcsICc3LjQnLCAnLXRuJywgJzgnLCAnLW1hJywgJzUwMCcsICctaW1hZScsICc8aW5maWxlLm1hZT4nLCAnLW9tYWUnLCAnPG91dGZpbGUubWFlPic=

>  <s_epik_input>  (1) 
W0NIMl0xW0NIMl1DKD1PKU49W0NIXWMoYzEyKVtjSF1bY0hdYyhbY0hdMilTW0NAQEhdM09bQ0gyXVtDSDJdTihbQ0BIXTNDbClTKD1PKSg9TylbTkhdW05IXVtDQEBIXTRbQ0BASF0oW05IMl0pW0NIMl1bQ0gyXWMoYzQ1KW5bY0hdczU=

>  <s_glide_docking_method>  (1) 
confgen

>  <s_i_glide_gridfile>  (1) 
gpcr_5ht2c_6bqh_protein_autoprepared_prepared

>  <s_lp_Force_Field>  (1) 
S-OPLS

>  <s_lp_Variant>  (1) 
DiffSBDD_23_num_sample_50-1

>  <s_m_source_file>  (1) 
generated__ligand_DiffSBDD_2026-05-06_prepared.sdf

>  <GenAI_Model>  (1) 
DiffSBDD

>  <Protein>  (1) 
GPCR_5HT2C

$$$$
DiffSBDD_19_num_sample_50
     RDKit          3D

  0  0  0  0  0  0  0  0  0  0999 V3000
M  V30 BEGIN CTAB
M  V30 COUNTS 46 49 0 0 1
M  V30 BEGIN ATOM
M  V30 1 N 38.484742 35.312184 60.767813 0
M  V30 2 C 38.654042 33.012002 57.187609 0
M  V30 3 C 39.931740 35.048857 60.900716 0
M  V30 4 C 38.023943 31.154644 58.888502 0
M  V30 5 N 38.446138 30.238586 57.968605 0
M  V30 6 C 38.412252 32.009945 56.085854 0
M  V30 7 C 37.867403 32.623935 58.438546 0 CFG=1
M  V30 8 F 39.867405 34.152063 63.053480 0
M  V30 9 O 36.428941 34.628023 59.842942 0
M  V30 10 O 37.775013 30.846722 60.057231 0
M  V30 11 N 39.942477 36.455571 62.921252 0
M  V30 12 N 38.647576 27.275696 54.940858 0
M  V30 13 C 38.116685 29.574874 55.584539 0 CFG=2
M  V30 14 O 38.355988 33.458204 59.485912 0
M  V30 15 C 38.514627 29.539424 54.104283 0
M  V30 16 O 40.267404 36.421430 64.333180 0
M  V30 17 C 38.500686 36.670365 62.845649 0
M  V30 18 C 38.771278 30.591230 56.544063 0 CFG=2
M  V30 19 C 38.665048 28.824996 58.383096 0
M  V30 20 C 40.374594 35.174896 62.364135 0 CFG=2
M  V30 21 C 38.501908 28.183304 55.968605 0
M  V30 22 C 38.753669 27.840116 57.232398 0
M  V30 23 C 37.964785 36.523439 61.408674 0
M  V30 24 C 37.638036 34.474293 60.017498 0
M  V30 25 C 38.648496 28.040397 53.934938 0
M  V30 26 H 38.340492 34.001873 56.852831 0
M  V30 27 H 39.719115 33.074682 57.404764 0
M  V30 28 H 40.267403 34.072338 60.559766 0
M  V30 29 H 40.463343 35.777946 60.291758 0
M  V30 30 H 38.988471 32.279325 55.200093 0
M  V30 31 H 37.368309 32.056642 55.785367 0
M  V30 32 H 36.806416 32.789862 58.253714 0
M  V30 33 H 39.471952 30.025247 53.913261 0
M  V30 34 H 40.905523 37.127059 64.418012 0
M  V30 35 H 37.967871 36.021430 63.524310 0
M  V30 36 H 38.271368 37.649372 63.230035 0
M  V30 37 H 39.855602 30.495793 56.464118 0
M  V30 38 H 39.595765 28.772178 58.949181 0
M  V30 39 H 37.867405 28.488165 59.045828 0
M  V30 40 H 41.459312 35.091072 62.440367 0
M  V30 41 H 39.050575 26.829293 57.471814 0
M  V30 42 H 36.874425 36.539586 61.434509 0
M  V30 43 H 38.267413 37.382490 60.809643 0
M  V30 44 H 38.743609 27.674793 52.908917 0
M  V30 45 H 37.030391 29.646389 55.668435 0
M  V30 46 H 37.747677 29.953761 53.453505 0
M  V30 END ATOM
M  V30 BEGIN BOND
M  V30 1 1 3 1
M  V30 2 1 5 4
M  V30 3 1 6 2
M  V30 4 1 7 2
M  V30 5 1 7 4
M  V30 6 2 10 4
M  V30 7 1 14 7
M  V30 8 1 15 13
M  V30 9 1 16 11
M  V30 10 1 17 11
M  V30 11 1 18 5
M  V30 12 1 18 6
M  V30 13 1 18 13
M  V30 14 1 19 5
M  V30 15 1 20 3
M  V30 16 1 20 8
M  V30 17 1 20 11
M  V30 18 1 21 12
M  V30 19 1 21 13
M  V30 20 1 22 19
M  V30 21 2 22 21
M  V30 22 1 23 1
M  V30 23 1 23 17
M  V30 24 1 24 1
M  V30 25 2 24 9
M  V30 26 1 24 14
M  V30 27 2 25 12
M  V30 28 1 25 15
M  V30 29 1 26 2
M  V30 30 1 27 2
M  V30 31 1 28 3
M  V30 32 1 29 3
M  V30 33 1 30 6
M  V30 34 1 31 6
M  V30 35 1 7 32 CFG=3
M  V30 36 1 33 15
M  V30 37 1 34 16
M  V30 38 1 35 17
M  V30 39 1 36 17
M  V30 40 1 18 37 CFG=1
M  V30 41 1 38 19
M  V30 42 1 39 19
M  V30 43 1 20 40 CFG=3
M  V30 44 1 41 22
M  V30 45 1 42 23
M  V30 46 1 43 23
M  V30 47 1 44 25
M  V30 48 1 13 45 CFG=3
M  V30 49 1 46 15
M  V30 END BOND
M  V30 END CTAB
M  END
>  <i_epik_Tot_Q>  (1) 
0

>  <i_epik_Tot_abs_Q>  (1) 
0

>  <i_i_glide_confnum>  (1) 
1

>  <i_i_glide_lignum>  (1) 
53

>  <i_i_glide_posenum>  (1) 
332

>  <i_i_glide_rotatable_bonds>  (1) 
4

>  <i_lp_mmshare_version>  (1) 
72125

>  <i_m_source_file_index>  (1) 
20

>  <i_f3d_flags>  (1) 
0

>  <num_sample>  (1) 
50

>  <b_lp_Chiralities_Consistent>  (1) 
1

>  <r_epik_Charging_Adjusted_Penalty>  (1) 
0

>  <r_epik_Ionization_Penalty>  (1) 
0.00023690808741792311

>  <r_epik_Ionization_Penalty_Charging>  (1) 
0

>  <r_epik_Ionization_Penalty_Neutral>  (1) 
0.00023690808741792311

>  <r_epik_State_Penalty>  (1) 
-0

>  <r_glide_ring_energy>  (1) 
0.27322882293605699

>  <r_i_docking_score>  (1) 
-7.3432970196356377

>  <r_i_glide_ecoul>  (1) 
-6.0443730838123644

>  <r_i_glide_eff_state_penalty>  (1) 
-0

>  <r_i_glide_einternal>  (1) 
3.5866251127163222

>  <r_i_glide_emodel>  (1) 
-62.103813186820261

>  <r_i_glide_emodel_strain>  (1) 
0.31935826088962926

>  <r_i_glide_energy>  (1) 
-44.667076985772638

>  <r_i_glide_erotb>  (1) 
0.46110279215177946

>  <r_i_glide_esite>  (1) 
-0.11377189198824206

>  <r_i_glide_evdw>  (1) 
-38.622703901960271

>  <r_i_glide_gscore>  (1) 
-7.3432970196356377

>  <r_i_glide_gscore_strain>  (1) 
0

>  <r_i_glide_hbond>  (1) 
-0.32000000000000001

>  <r_i_glide_ligand_efficiency>  (1) 
-0.2937318807854255

>  <r_i_glide_ligand_efficiency_ln>  (1) 
-1.7405814545075038

>  <r_i_glide_ligand_efficiency_sa>  (1) 
-0.85887722969521119

>  <r_i_glide_lipo>  (1) 
-1.5837677604877494

>  <r_i_glide_metal>  (1) 
-0

>  <r_i_glide_rewards>  (1) 
-2.9490690016415568

>  <r_lp_Energy>  (1) 
38.735985999999997

>  <r_lp_tautomer_probability>  (1) 
1

>  <s_epik_Chemistry_Notes>  (1) 
This compound has an ester and may undergo hydrolysis at high or low pH. This compound has an imine and may undergo hydrolysis. This compound has a N-S or N-O group and may undergo hydrolysis at high or low pH.

>  <s_epik_cmdline>  (1) 
J2VwaWtfcHl0aG9uJywgJy1waHQnLCAnMS4wJywgJy1waCcsICc3LjQnLCAnLXRuJywgJzgnLCAnLW1hJywgJzUwMCcsICctaW1hZScsICc8aW5maWxlLm1hZT4nLCAnLW9tYWUnLCAnPG91dGZpbGUubWFlPic=

>  <s_epik_input>  (1) 
W0NIMl0xW0NIMl1OKFtPSF0pW0NAQEhdKEYpW0NIMl1OMUMoPU8pT1tDQEhdKEMyPU8pW0NIMl1bQ0gyXVtDQEBIXShOMjMpQz00QyhbQ0gyXVtDSDJdMyk9TltDSDJdW0NIXTQ=

>  <s_glide_docking_method>  (1) 
confgen

>  <s_i_glide_gridfile>  (1) 
gpcr_5ht2c_6bqh_protein_autoprepared_prepared

>  <s_lp_Force_Field>  (1) 
S-OPLS

>  <s_lp_Variant>  (1) 
DiffSBDD_19_num_sample_50-2

>  <s_m_source_file>  (1) 
generated__ligand_DiffSBDD_2026-05-06_prepared.sdf

>  <GenAI_Model>  (1) 
DiffSBDD

>  <Protein>  (1) 
GPCR_5HT2C

$$$$
DiffSBDD_20_num_sample_50
     RDKit          3D

  0  0  0  0  0  0  0  0  0  0999 V3000
M  V30 BEGIN CTAB
M  V30 COUNTS 77 81 0 0 1
M  V30 BEGIN ATOM
M  V30 1 C 37.504917 36.590317 62.246740 0
M  V30 2 C 39.024198 36.877659 64.132009 0
M  V30 3 C 37.394028 33.475769 60.708620 0 CFG=2
M  V30 4 C 40.156622 27.399036 56.098069 0
M  V30 5 C 39.867069 35.877369 63.622357 0
M  V30 6 C 37.073429 30.144010 58.872598 0
M  V30 7 C 41.522425 33.819052 62.650303 0
M  V30 8 C 38.397515 30.144119 58.064641 0 CFG=1
M  V30 9 C 37.657255 29.576030 55.674393 0
M  V30 10 C 38.513546 29.092823 56.899699 0 CFG=2
M  V30 11 C 38.634018 31.597210 57.627463 0
M  V30 12 F 36.270770 25.221570 56.653360 0
M  V30 13 C 38.667435 32.536858 58.829784 0
M  V30 14 C 41.032454 35.515369 64.327566 0
M  V30 15 O 38.045957 30.759078 61.000385 0
M  V30 16 C 38.133882 27.691187 57.442611 0
M  V30 17 C 37.045391 35.716333 59.462677 0
M  V30 18 C 37.084133 31.155116 60.034442 0 CFG=1
M  V30 19 C 37.954410 34.896310 60.406001 0 CFG=1
M  V30 20 C 40.373419 34.186272 61.930472 0
M  V30 21 C 38.577132 28.405321 52.011199 0
M  V30 22 F 37.465357 23.791474 55.585176 0
M  V30 23 C 38.688318 29.205500 53.314224 0
M  V30 24 O 38.264555 25.910275 55.769443 0
M  V30 25 C 37.841034 37.221356 63.450582 0
M  V30 26 C 38.339777 35.589281 61.713830 0
M  V30 27 C 37.626444 28.786716 54.347080 0
M  V30 28 C 38.237428 24.560229 57.692744 0
M  V30 29 C 39.449976 25.471133 57.658678 0
M  V30 30 C 37.517931 24.861561 56.372990 0
M  V30 31 N 37.408740 32.524338 59.584027 0
M  V30 32 C 39.005835 26.621605 56.751447 0 CFG=1
M  V30 33 C 41.854893 34.485057 63.845213 0
M  V30 34 C 39.994667 28.868625 56.519715 0
M  V30 35 O 36.040256 33.570181 61.110610 0
M  V30 36 C 39.530375 35.217287 62.414645 0
M  V30 37 H 36.598991 36.870816 61.735417 0
M  V30 38 H 39.275956 37.376326 65.057133 0
M  V30 39 H 37.961640 33.065477 61.542048 0
M  V30 40 H 40.098970 27.297124 55.016236 0
M  V30 41 H 41.133907 27.015128 56.391197 0
M  V30 42 H 36.851413 29.162502 59.278010 0
M  V30 43 H 36.228983 30.396628 58.242625 0
M  V30 44 H 42.157222 33.026937 62.281629 0
M  V30 45 H 39.182675 29.899477 58.780629 0
M  V30 46 H 36.633550 29.693600 56.021283 0
M  V30 47 H 37.956995 30.578919 55.380291 0
M  V30 48 H 37.835562 31.952914 56.977244 0
M  V30 49 H 39.555309 31.683537 57.053288 0
M  V30 50 H 38.877938 33.517886 58.412481 0
M  V30 51 H 39.467908 32.270166 59.506935 0
M  V30 52 H 41.286774 36.021104 65.248192 0
M  V30 53 H 38.422185 29.938110 60.724105 0
M  V30 54 H 38.376635 27.653015 58.505049 0
M  V30 55 H 37.067397 27.490020 57.384203 0
M  V30 56 H 37.471991 36.695306 59.244674 0
M  V30 57 H 36.934459 35.191120 58.516082 0
M  V30 58 H 36.042485 35.873600 59.856797 0
M  V30 59 H 36.101589 31.144688 60.507305 0
M  V30 60 H 38.900327 34.861110 59.879163 0
M  V30 61 H 40.137633 33.667473 61.020352 0
M  V30 62 H 39.302513 28.753394 51.275843 0
M  V30 63 H 38.759888 27.344306 52.183740 0
M  V30 64 H 37.585031 28.500673 51.571378 0
M  V30 65 H 38.587281 30.267590 53.094533 0
M  V30 66 H 39.690486 29.091975 53.713197 0
M  V30 67 H 37.189582 37.978973 63.853174 0
M  V30 68 H 37.629213 27.716992 54.502784 0
M  V30 69 H 36.667556 28.988230 53.878383 0
M  V30 70 H 37.603195 24.822215 58.538422 0
M  V30 71 H 38.511319 23.512058 57.807204 0
M  V30 72 H 40.267459 24.927389 57.187958 0
M  V30 73 H 39.784976 25.790599 58.646371 0
M  V30 74 H 42.741586 34.202787 64.392178 0
M  V30 75 H 40.350988 29.570458 55.766633 0
M  V30 76 H 40.630821 29.016911 57.392870 0
M  V30 77 H 35.548065 33.902112 60.374953 0
M  V30 END ATOM
M  V30 BEGIN BOND
M  V30 1 1 5 2
M  V30 2 1 8 6
M  V30 3 1 10 8
M  V30 4 1 10 9 CFG=3
M  V30 5 1 11 8
M  V30 6 1 13 11
M  V30 7 2 14 5
M  V30 8 1 16 10
M  V30 9 1 18 6
M  V30 10 1 18 15
M  V30 11 1 19 3
M  V30 12 1 19 17
M  V30 13 1 20 7
M  V30 14 1 23 21
M  V30 15 1 25 1
M  V30 16 2 25 2
M  V30 17 2 26 1
M  V30 18 1 26 19
M  V30 19 1 27 9
M  V30 20 1 27 23
M  V30 21 1 29 28
M  V30 22 1 30 12
M  V30 23 1 30 22
M  V30 24 1 30 24
M  V30 25 1 30 28
M  V30 26 1 31 3
M  V30 27 1 31 13
M  V30 28 1 31 18
M  V30 29 1 32 4
M  V30 30 1 32 16
M  V30 31 1 32 24 CFG=3
M  V30 32 1 32 29
M  V30 33 2 33 7
M  V30 34 1 33 14
M  V30 35 1 34 4
M  V30 36 1 34 10
M  V30 37 1 35 3
M  V30 38 1 36 5
M  V30 39 2 36 20
M  V30 40 1 36 26
M  V30 41 1 37 1
M  V30 42 1 38 2
M  V30 43 1 3 39 CFG=1
M  V30 44 1 40 4
M  V30 45 1 41 4
M  V30 46 1 42 6
M  V30 47 1 43 6
M  V30 48 1 44 7
M  V30 49 1 8 45 CFG=1
M  V30 50 1 46 9
M  V30 51 1 47 9
M  V30 52 1 48 11
M  V30 53 1 49 11
M  V30 54 1 50 13
M  V30 55 1 51 13
M  V30 56 1 52 14
M  V30 57 1 53 15
M  V30 58 1 54 16
M  V30 59 1 55 16
M  V30 60 1 56 17
M  V30 61 1 57 17
M  V30 62 1 58 17
M  V30 63 1 18 59 CFG=1
M  V30 64 1 19 60 CFG=3
M  V30 65 1 61 20
M  V30 66 1 62 21
M  V30 67 1 63 21
M  V30 68 1 64 21
M  V30 69 1 65 23
M  V30 70 1 66 23
M  V30 71 1 67 25
M  V30 72 1 68 27
M  V30 73 1 69 27
M  V30 74 1 70 28
M  V30 75 1 71 28
M  V30 76 1 72 29
M  V30 77 1 73 29
M  V30 78 1 74 33
M  V30 79 1 75 34
M  V30 80 1 76 34
M  V30 81 1 77 35
M  V30 END BOND
M  V30 END CTAB
M  END
>  <i_epik_Tot_Q>  (1) 
0

>  <i_epik_Tot_abs_Q>  (1) 
0

>  <i_i_glide_confnum>  (1) 
442

>  <i_i_glide_lignum>  (1) 
56

>  <i_i_glide_posenum>  (1) 
128

>  <i_i_glide_rotatable_bonds>  (1) 
9

>  <i_lp_mmshare_version>  (1) 
72125

>  <i_m_source_file_index>  (1) 
21

>  <i_f3d_flags>  (1) 
0

>  <num_sample>  (1) 
50

>  <b_lp_Chiralities_Consistent>  (1) 
1

>  <r_epik_Charging_Adjusted_Penalty>  (1) 
0.32925283897171748

>  <r_epik_Ionization_Penalty>  (1) 
0.0090765548759611635

>  <r_epik_Ionization_Penalty_Charging>  (1) 
0

>  <r_epik_Ionization_Penalty_Neutral>  (1) 
0.0090765548759611635

>  <r_epik_State_Penalty>  (1) 
0.32925283897171748

>  <r_glide_ring_energy>  (1) 
0.080070214121148439

>  <r_i_docking_score>  (1) 
-7.335288348070895

>  <r_i_glide_ecoul>  (1) 
-0.85922836160109795

>  <r_i_glide_eff_state_penalty>  (1) 
0.32925283897171748

>  <r_i_glide_einternal>  (1) 
7.2477979453546766

>  <r_i_glide_emodel>  (1) 
-37.559510315153588

>  <r_i_glide_emodel_strain>  (1) 
2.2714156509727843

>  <r_i_glide_energy>  (1) 
-42.841870424618392

>  <r_i_glide_erotb>  (1) 
0.48702584280874928

>  <r_i_glide_esite>  (1) 
-0.048270208407562333

>  <r_i_glide_evdw>  (1) 
-41.982642063017295

>  <r_i_glide_gscore>  (1) 
-7.6645411870426123

>  <r_i_glide_gscore_strain>  (1) 
0

>  <r_i_glide_hbond>  (1) 
0

>  <r_i_glide_ligand_efficiency>  (1) 
-0.20375800966863597

>  <r_i_glide_ligand_efficiency_ln>  (1) 
-1.6003617409600315

>  <r_i_glide_ligand_efficiency_sa>  (1) 
-0.67279412430540408

>  <r_i_glide_lipo>  (1) 
-4.4906837026487434

>  <r_i_glide_metal>  (1) 
-0

>  <r_i_glide_rewards>  (1) 
-1.3845967614040278

>  <r_lp_Energy>  (1) 
40.512656

>  <s_epik_Chemistry_Notes>  (1) 
This compound contains an acetal/aminal-like group ( X-CH(R)-Y where X, Y are N, S, or O) that may be acid/base labile, releasing an aldehyde.

>  <s_epik_cmdline>  (1) 
J2VwaWtfcHl0aG9uJywgJy1waHQnLCAnMS4wJywgJy1waCcsICc3LjQnLCAnLXRuJywgJzgnLCAnLW1hJywgJzUwMCcsICctaW1hZScsICc8aW5maWxlLm1hZT4nLCAnLW9tYWUnLCAnPG91dGZpbGUubWFlPic=

>  <s_epik_input>  (1) 
W2NIXTFbY0hdW2NIXVtjSF1jKGMxMiljKFtjSF1bY0hdW2NIXTIpW0NASF0oW0NIM10pW0NAQEhdKFtPSF0pTihbQ0gyXVtDSDJdMylbQ0BIXShbT0hdKVtDSDJdW0NASF0zW0NAQF0oW0NIMl00KShbQ0gyXVtDSDJdW0NIMl1bQ0gzXSlbQ0gyXVtDSDJdW0NAXTQ1T0MoRikoRilbQ0gyXVtDSDJdNQ==

>  <s_glide_docking_method>  (1) 
confgen

>  <s_i_glide_gridfile>  (1) 
gpcr_5ht2c_6bqh_protein_autoprepared_prepared

>  <s_lp_Force_Field>  (1) 
S-OPLS

>  <s_lp_Variant>  (1) 
DiffSBDD_20_num_sample_50-1

>  <s_m_source_file>  (1) 
generated__ligand_DiffSBDD_2026-05-06_prepared.sdf

>  <GenAI_Model>  (1) 
DiffSBDD

>  <Protein>  (1) 
GPCR_5HT2C

$$$$
DiffSBDD_20_num_sample_50
     RDKit          3D

  0  0  0  0  0  0  0  0  0  0999 V3000
M  V30 BEGIN CTAB
M  V30 COUNTS 77 81 0 0 1
M  V30 BEGIN ATOM
M  V30 1 C 36.825973 35.719668 61.719003 0
M  V30 2 C 38.261293 36.821427 63.348557 0
M  V30 3 C 37.656112 32.307027 60.845021 0 CFG=2
M  V30 4 C 37.602844 28.755599 55.071391 0
M  V30 5 C 39.314261 35.950611 63.014550 0
M  V30 6 C 38.828298 28.944394 59.347538 0
M  V30 7 C 41.438392 34.221039 62.361578 0
M  V30 8 C 39.291948 29.341690 57.925744 0 CFG=1
M  V30 9 C 39.969993 26.880489 57.357570 0
M  V30 10 C 39.265974 28.184239 56.851901 0 CFG=2
M  V30 11 C 38.486243 30.580527 57.485805 0
M  V30 12 F 39.467393 27.430585 51.256565 0
M  V30 13 C 38.494516 31.724743 58.488614 0
M  V30 14 C 40.539920 36.049668 63.692086 0
M  V30 15 O 40.011882 30.611853 60.653502 0
M  V30 16 C 39.988422 28.646135 55.559554 0
M  V30 17 C 36.328935 34.047155 59.437141 0
M  V30 18 C 38.719255 30.102908 60.350092 0 CFG=1
M  V30 19 C 37.618015 33.776664 60.280302 0 CFG=1
M  V30 20 C 40.218276 34.113832 61.672378 0
M  V30 21 C 38.355054 24.250645 56.622464 0
M  V30 22 F 37.640857 28.421421 51.864437 0
M  V30 23 C 38.051338 25.099086 57.852281 0
M  V30 24 O 39.067409 27.754602 53.506704 0
M  V30 25 C 37.022237 36.709294 62.699410 0
M  V30 26 C 37.867015 34.848622 61.358948 0
M  V30 27 C 39.256587 25.920015 58.342949 0
M  V30 28 C 39.625020 29.567006 52.215332 0
M  V30 29 C 39.194050 30.119689 53.561198 0
M  V30 30 C 38.917618 28.222757 52.175183 0
M  V30 31 N 37.968149 31.276121 59.812528 0 CFG=1 CHG=1
M  V30 32 C 38.971475 28.854947 54.415505 0 CFG=1
M  V30 33 C 41.595629 35.184353 63.374254 0
M  V30 34 C 37.867405 27.883561 56.304883 0
M  V30 35 O 36.488278 31.916438 61.296579 0 CHG=-1
M  V30 36 C 39.135698 34.967816 62.006960 0
M  V30 37 H 35.872620 35.621429 61.243312 0
M  V30 38 H 38.402427 37.570634 64.113730 0
M  V30 39 H 38.464354 32.282867 61.563777 0
M  V30 40 H 36.866770 28.305112 54.404273 0
M  V30 41 H 37.211787 29.736442 55.329855 0
M  V30 42 H 39.552903 28.261428 59.784564 0
M  V30 43 H 37.867495 28.436005 59.290190 0
M  V30 44 H 42.257007 33.561801 62.112955 0
M  V30 45 H 40.332840 29.646878 58.030400 0
M  V30 46 H 40.259382 26.256512 56.512024 0
M  V30 47 H 40.919659 27.173838 57.808011 0
M  V30 48 H 38.841495 30.957497 56.527085 0
M  V30 49 H 37.437464 30.313678 57.361312 0
M  V30 50 H 39.467394 32.195033 58.579031 0
M  V30 51 H 37.876086 32.480187 58.021778 0
M  V30 52 H 40.667405 36.792135 64.464712 0
M  V30 53 H 40.211246 30.378454 61.549419 0
M  V30 54 H 40.603110 29.528768 55.725596 0
M  V30 55 H 40.667406 27.863977 55.247369 0
M  V30 56 H 36.363583 35.025808 58.958222 0
M  V30 57 H 36.143714 33.318871 58.653524 0
M  V30 58 H 35.424841 33.995229 60.043603 0
M  V30 59 H 38.267407 29.761889 61.279034 0
M  V30 60 H 38.453149 33.953863 59.606928 0
M  V30 61 H 40.116264 33.374208 60.898016 0
M  V30 62 H 37.502617 23.621434 56.369978 0
M  V30 63 H 38.601174 24.838058 55.739219 0
M  V30 64 H 39.211839 23.621429 56.843096 0
M  V30 65 H 37.754488 24.422685 58.653471 0
M  V30 66 H 37.176254 25.724746 57.688340 0
M  V30 67 H 36.212569 37.372998 62.964814 0
M  V30 68 H 40.030471 25.221433 58.653492 0
M  V30 69 H 38.939610 26.407008 59.250910 0
M  V30 70 H 40.697912 29.409980 52.208512 0
M  V30 71 H 39.393648 30.209958 51.367268 0
M  V30 72 H 38.263603 30.676191 53.453515 0
M  V30 73 H 39.931218 30.807549 53.976540 0
M  V30 74 H 42.534684 35.264701 63.902307 0
M  V30 75 H 37.829203 26.869766 55.921302 0
M  V30 76 H 37.104384 27.963942 57.078344 0
M  V30 77 H 37.035247 30.942310 59.616638 0
M  V30 END ATOM
M  V30 BEGIN BOND
M  V30 1 1 5 2
M  V30 2 1 8 6
M  V30 3 1 10 8
M  V30 4 1 10 9 CFG=1
M  V30 5 1 11 8
M  V30 6 1 13 11
M  V30 7 2 14 5
M  V30 8 1 16 10
M  V30 9 1 18 6
M  V30 10 1 18 15
M  V30 11 1 19 3
M  V30 12 1 19 17
M  V30 13 1 20 7
M  V30 14 1 23 21
M  V30 15 1 25 1
M  V30 16 2 25 2
M  V30 17 2 26 1
M  V30 18 1 26 19
M  V30 19 1 27 9
M  V30 20 1 27 23
M  V30 21 1 29 28
M  V30 22 1 30 12
M  V30 23 1 30 22
M  V30 24 1 30 24
M  V30 25 1 30 28
M  V30 26 1 31 3
M  V30 27 1 31 13
M  V30 28 1 31 18
M  V30 29 1 32 4
M  V30 30 1 32 16
M  V30 31 1 32 24 CFG=3
M  V30 32 1 32 29
M  V30 33 2 33 7
M  V30 34 1 33 14
M  V30 35 1 34 4
M  V30 36 1 34 10
M  V30 37 1 35 3
M  V30 38 1 36 5
M  V30 39 2 36 20
M  V30 40 1 36 26
M  V30 41 1 37 1
M  V30 42 1 38 2
M  V30 43 1 3 39 CFG=1
M  V30 44 1 40 4
M  V30 45 1 41 4
M  V30 46 1 42 6
M  V30 47 1 43 6
M  V30 48 1 44 7
M  V30 49 1 8 45 CFG=1
M  V30 50 1 46 9
M  V30 51 1 47 9
M  V30 52 1 48 11
M  V30 53 1 49 11
M  V30 54 1 50 13
M  V30 55 1 51 13
M  V30 56 1 52 14
M  V30 57 1 53 15
M  V30 58 1 54 16
M  V30 59 1 55 16
M  V30 60 1 56 17
M  V30 61 1 57 17
M  V30 62 1 58 17
M  V30 63 1 18 59 CFG=1
M  V30 64 1 19 60 CFG=3
M  V30 65 1 61 20
M  V30 66 1 62 21
M  V30 67 1 63 21
M  V30 68 1 64 21
M  V30 69 1 65 23
M  V30 70 1 66 23
M  V30 71 1 67 25
M  V30 72 1 68 27
M  V30 73 1 69 27
M  V30 74 1 70 28
M  V30 75 1 71 28
M  V30 76 1 72 29
M  V30 77 1 73 29
M  V30 78 1 74 33
M  V30 79 1 75 34
M  V30 80 1 76 34
M  V30 81 1 31 77 CFG=3
M  V30 END BOND
M  V30 END CTAB
M  END
>  <i_epik_Tot_Q>  (1) 
0

>  <i_epik_Tot_abs_Q>  (1) 
2

>  <i_i_glide_confnum>  (1) 
650

>  <i_i_glide_lignum>  (1) 
58

>  <i_i_glide_posenum>  (1) 
30

>  <i_i_glide_rotatable_bonds>  (1) 
8

>  <i_lp_mmshare_version>  (1) 
72125

>  <i_m_source_file_index>  (1) 
21

>  <i_f3d_flags>  (1) 
0

>  <num_sample>  (1) 
50

>  <b_lp_Chiralities_Consistent>  (1) 
1

>  <r_epik_Charging_Adjusted_Penalty>  (1) 
0.70686764658740575

>  <r_epik_Ionization_Penalty>  (1) 
0.13730248461042968

>  <r_epik_Ionization_Penalty_Charging>  (1) 
0.016711854413244867

>  <r_epik_Ionization_Penalty_Neutral>  (1) 
0.12059063019718481

>  <r_epik_State_Penalty>  (1) 
0.6901557921741609

>  <r_glide_ring_energy>  (1) 
0.22414232888405461

>  <r_i_docking_score>  (1) 
-7.3291257525315201

>  <r_i_glide_ecoul>  (1) 
-3.9743573177164482

>  <r_i_glide_eff_state_penalty>  (1) 
0.6901557921741609

>  <r_i_glide_einternal>  (1) 
11.538027950307388

>  <r_i_glide_emodel>  (1) 
-44.501115202639639

>  <r_i_glide_emodel_strain>  (1) 
1.4816409759481104

>  <r_i_glide_energy>  (1) 
-33.666329992608873

>  <r_i_glide_erotb>  (1) 
0.48702584280874928

>  <r_i_glide_esite>  (1) 
-0.024634504235052163

>  <r_i_glide_evdw>  (1) 
-29.691972674892426

>  <r_i_glide_gscore>  (1) 
-8.0192815447056809

>  <r_i_glide_gscore_strain>  (1) 
0

>  <r_i_glide_hbond>  (1) 
-0.1197370285871989

>  <r_i_glide_ligand_efficiency>  (1) 
-0.20358682645920889

>  <r_i_glide_ligand_efficiency_ln>  (1) 
-1.5990172291074305

>  <r_i_glide_ligand_efficiency_sa>  (1) 
-0.67222888980164353

>  <r_i_glide_lipo>  (1) 
-4.4427347930791541

>  <r_i_glide_metal>  (1) 
-0

>  <r_i_glide_rewards>  (1) 
-1.8384488302109374

>  <r_lp_Energy>  (1) 
64.332168999999993

>  <s_epik_Chemistry_Notes>  (1) 
This compound contains an acetal/aminal-like group ( X-CH(R)-Y where X, Y are N, S, or O) that may be acid/base labile, releasing an aldehyde.

>  <s_epik_cmdline>  (1) 
J2VwaWtfcHl0aG9uJywgJy1waHQnLCAnMS4wJywgJy1waCcsICc3LjQnLCAnLXRuJywgJzgnLCAnLW1hJywgJzUwMCcsICctaW1hZScsICc8aW5maWxlLm1hZT4nLCAnLW9tYWUnLCAnPG91dGZpbGUubWFlPic=

>  <s_epik_input>  (1) 
W2NIXTFbY0hdW2NIXVtjSF1jKGMxMiljKFtjSF1bY0hdW2NIXTIpW0NASF0oW0NIM10pW0NAQEhdKFtPSF0pTihbQ0gyXVtDSDJdMylbQ0BIXShbT0hdKVtDSDJdW0NASF0zW0NAQF0oW0NIMl00KShbQ0gyXVtDSDJdW0NIMl1bQ0gzXSlbQ0gyXVtDSDJdW0NAXTQ1T0MoRikoRilbQ0gyXVtDSDJdNQ==

>  <s_glide_docking_method>  (1) 
confgen

>  <s_i_glide_gridfile>  (1) 
gpcr_5ht2c_6bqh_protein_autoprepared_prepared

>  <s_lp_Force_Field>  (1) 
S-OPLS

>  <s_lp_Variant>  (1) 
DiffSBDD_20_num_sample_50-3

>  <s_m_source_file>  (1) 
generated__ligand_DiffSBDD_2026-05-06_prepared.sdf

>  <GenAI_Model>  (1) 
DiffSBDD

>  <Protein>  (1) 
GPCR_5HT2C

$$$$
DiffSBDD_18_num_sample_50
     RDKit          3D

  0  0  0  0  0  0  0  0  0  0999 V3000
M  V30 BEGIN CTAB
M  V30 COUNTS 73 75 0 0 1
M  V30 BEGIN ATOM
M  V30 1 C 37.753292 27.332879 54.292715 0
M  V30 2 C 37.780190 26.273308 55.408767 0 CFG=1
M  V30 3 C 40.085523 30.776819 51.620170 0
M  V30 4 F 39.867675 37.087913 63.126930 0
M  V30 5 C 39.455670 32.641333 61.011533 0
M  V30 6 C 38.797305 30.843992 57.441888 0 CFG=2
M  V30 7 C 40.104807 29.709478 50.519883 0
M  V30 8 C 40.113141 33.589872 61.992638 0
M  V30 9 F 41.622001 31.856544 62.722546 0
M  V30 10 C 38.918109 27.276626 53.282856 0
M  V30 11 C 41.791585 34.017511 63.727135 0
M  V30 12 C 38.092679 31.301268 56.147874 0
M  V30 13 C 38.349641 33.274087 60.179336 0 CFG=2
M  V30 14 N 37.029474 33.202853 60.794976 0
M  V30 15 C 39.334052 29.388885 57.401233 0
M  V30 16 C 38.325394 28.285533 57.810438 0
M  V30 17 O 37.067474 30.421427 55.766535 0
M  V30 18 C 41.348988 35.348972 63.830899 0
M  V30 19 O 39.808509 31.464314 60.919269 0
M  V30 20 C 39.673205 34.936699 62.107475 0
M  V30 21 S 39.467404 30.021422 53.146343 0
M  V30 22 C 40.099141 26.543369 58.408234 0
M  V30 23 C 39.942942 28.331876 51.170944 0
M  V30 24 C 41.181635 33.135796 62.812915 0
M  V30 25 C 37.645946 24.832262 54.887439 0
M  V30 26 N 39.004991 26.444958 56.221089 0 CHG=1
M  V30 27 F 37.747743 28.633842 51.853550 0
M  V30 28 C 37.747730 32.518241 58.975082 0 CFG=2
M  V30 29 C 36.379066 32.921466 59.524850 0
M  V30 30 C 36.921521 23.904544 55.869733 0
M  V30 31 C 38.811865 26.827190 57.635609 0 CFG=2
M  V30 32 C 38.968907 28.488495 52.340087 0 CFG=1
M  V30 33 C 40.292429 35.807073 63.023079 0
M  V30 34 N 38.022283 31.107727 58.664961 0
M  V30 35 H 36.803620 27.271865 53.757888 0
M  V30 36 H 37.758529 28.309052 54.762494 0
M  V30 37 H 36.907892 26.439212 56.039149 0
M  V30 38 H 39.467395 31.621393 51.326476 0
M  V30 39 H 41.068988 31.188290 51.805971 0
M  V30 40 H 39.677115 31.479724 57.453507 0
M  V30 41 H 39.265319 29.882917 49.853621 0
M  V30 42 H 41.007008 29.773212 49.912410 0
M  V30 43 H 39.867479 27.170043 53.798682 0
M  V30 44 H 38.801446 26.396204 52.661933 0
M  V30 45 H 42.603488 33.670372 64.349286 0
M  V30 46 H 38.831327 31.358614 55.356488 0
M  V30 47 H 37.674509 32.304637 56.209926 0
M  V30 48 H 38.583665 34.278806 59.828467 0
M  V30 49 H 36.744344 34.114029 61.139491 0
M  V30 50 H 39.724311 29.188823 56.403103 0
M  V30 51 H 40.194457 29.334358 58.069024 0
M  V30 52 H 38.071034 28.427642 58.861852 0
M  V30 53 H 37.388150 28.416862 57.277108 0
M  V30 54 H 36.292676 30.752193 56.234795 0
M  V30 55 H 41.821408 36.021229 64.533363 0
M  V30 56 H 38.864005 35.305870 61.502479 0
M  V30 57 H 39.978929 26.821600 59.453762 0
M  V30 58 H 40.346162 25.482302 58.366629 0
M  V30 59 H 40.951544 27.094498 58.008637 0
M  V30 60 H 40.910480 28.021485 51.556878 0
M  V30 61 H 39.614173 27.575889 50.456382 0
M  V30 62 H 37.070417 24.838500 53.960023 0
M  V30 63 H 38.627642 24.421868 54.653506 0
M  V30 64 H 39.583031 27.146515 55.781745 0
M  V30 65 H 37.938531 33.129187 58.095097 0
M  V30 66 H 35.970464 33.816217 59.051126 0
M  V30 67 H 35.649798 32.111506 59.575478 0
M  V30 68 H 36.802335 22.909353 55.440708 0
M  V30 69 H 37.462808 23.808302 56.811595 0
M  V30 70 H 35.922204 24.278371 56.093532 0
M  V30 71 H 38.046835 26.168546 58.050514 0
M  V30 72 H 38.502958 30.700458 59.463604 0
M  V30 73 H 39.505740 25.568293 56.203065 0
M  V30 END ATOM
M  V30 BEGIN BOND
M  V30 1 1 2 1
M  V30 2 1 7 3
M  V30 3 1 8 5
M  V30 4 1 10 1
M  V30 5 1 12 6
M  V30 6 1 13 5
M  V30 7 1 14 13
M  V30 8 1 15 6
M  V30 9 1 16 15
M  V30 10 1 17 12
M  V30 11 2 18 11
M  V30 12 2 19 5
M  V30 13 1 20 8
M  V30 14 1 21 3
M  V30 15 1 23 7
M  V30 16 2 24 8
M  V30 17 1 24 9
M  V30 18 1 24 11
M  V30 19 1 25 2
M  V30 20 1 26 2
M  V30 21 1 28 13
M  V30 22 1 29 14
M  V30 23 1 29 28
M  V30 24 1 30 25
M  V30 25 1 31 16
M  V30 26 1 31 22
M  V30 27 1 31 26
M  V30 28 1 32 10
M  V30 29 1 32 21
M  V30 30 1 32 23
M  V30 31 1 32 27 CFG=3
M  V30 32 1 33 4
M  V30 33 1 33 18
M  V30 34 2 33 20
M  V30 35 1 34 6
M  V30 36 1 34 28
M  V30 37 1 35 1
M  V30 38 1 36 1
M  V30 39 1 2 37 CFG=1
M  V30 40 1 38 3
M  V30 41 1 39 3
M  V30 42 1 6 40 CFG=1
M  V30 43 1 41 7
M  V30 44 1 42 7
M  V30 45 1 43 10
M  V30 46 1 44 10
M  V30 47 1 45 11
M  V30 48 1 46 12
M  V30 49 1 47 12
M  V30 50 1 13 48 CFG=3
M  V30 51 1 49 14
M  V30 52 1 50 15
M  V30 53 1 51 15
M  V30 54 1 52 16
M  V30 55 1 53 16
M  V30 56 1 54 17
M  V30 57 1 55 18
M  V30 58 1 56 20
M  V30 59 1 57 22
M  V30 60 1 58 22
M  V30 61 1 59 22
M  V30 62 1 60 23
M  V30 63 1 61 23
M  V30 64 1 62 25
M  V30 65 1 63 25
M  V30 66 1 64 26
M  V30 67 1 28 65 CFG=3
M  V30 68 1 66 29
M  V30 69 1 67 29
M  V30 70 1 68 30
M  V30 71 1 69 30
M  V30 72 1 70 30
M  V30 73 1 31 71 CFG=1
M  V30 74 1 72 34
M  V30 75 1 73 26
M  V30 END BOND
M  V30 END CTAB
M  END
>  <i_epik_Tot_Q>  (1) 
1

>  <i_epik_Tot_abs_Q>  (1) 
1

>  <i_i_glide_confnum>  (1) 
5953

>  <i_i_glide_lignum>  (1) 
51

>  <i_i_glide_posenum>  (1) 
280

>  <i_i_glide_rotatable_bonds>  (1) 
15

>  <i_lp_mmshare_version>  (1) 
72125

>  <i_m_source_file_index>  (1) 
19

>  <i_f3d_flags>  (1) 
0

>  <num_sample>  (1) 
50

>  <b_lp_Chiralities_Consistent>  (1) 
1

>  <r_epik_Charging_Adjusted_Penalty>  (1) 
1.2230517339192002

>  <r_epik_Ionization_Penalty>  (1) 
1.2279427693353704

>  <r_epik_Ionization_Penalty_Charging>  (1) 
0.0005303694580283578

>  <r_epik_Ionization_Penalty_Neutral>  (1) 
1.2274123998773421

>  <r_epik_State_Penalty>  (1) 
1.2225213644611719

>  <r_glide_ring_energy>  (1) 
0

>  <r_i_docking_score>  (1) 
-7.3215274811781432

>  <r_i_glide_ecoul>  (1) 
-6.969108185835351

>  <r_i_glide_eff_state_penalty>  (1) 
1.2225213644611719

>  <r_i_glide_einternal>  (1) 
20.506346588561261

>  <r_i_glide_emodel>  (1) 
-66.987080842872501

>  <r_i_glide_emodel_strain>  (1) 
2.7578416568557884

>  <r_i_glide_energy>  (1) 
-51.12793498197761

>  <r_i_glide_erotb>  (1) 
0.97048419377231765

>  <r_i_glide_esite>  (1) 
0

>  <r_i_glide_evdw>  (1) 
-44.158826796142257

>  <r_i_glide_gscore>  (1) 
-8.5440488456393151

>  <r_i_glide_gscore_strain>  (1) 
0

>  <r_i_glide_hbond>  (1) 
-0.16

>  <r_i_glide_ligand_efficiency>  (1) 
-0.21533904356406303

>  <r_i_glide_ligand_efficiency_ln>  (1) 
-1.6175307824820282

>  <r_i_glide_ligand_efficiency_sa>  (1) 
-0.69761490680594485

>  <r_i_glide_lipo>  (1) 
-4.8689038479504587

>  <r_i_glide_metal>  (1) 
-0

>  <r_i_glide_rewards>  (1) 
-1.2323216237787569

>  <r_lp_Energy>  (1) 
36.781953999999999

>  <r_lp_tautomer_probability>  (1) 
0.99990000499974985

>  <s_epik_cmdline>  (1) 
J2VwaWtfcHl0aG9uJywgJy1waHQnLCAnMS4wJywgJy1waCcsICc3LjQnLCAnLXRuJywgJzgnLCAnLW1hJywgJzUwMCcsICctaW1hZScsICc8aW5maWxlLm1hZT4nLCAnLW9tYWUnLCAnPG91dGZpbGUubWFlPic=

>  <s_epik_input>  (1) 
W0NIMl0xW0NIMl1bQ0gyXVNbQ0BdMShGKVtDSDJdW0NIMl1bQ0BASF0oW0NIMl1bQ0gzXSlbTkhdW0NAQEhdKFtDSDNdKVtDSDJdW0NIMl1bQ0BASF0oW0NIMl1bT0hdKVtOSF1bQ0BIXTJbQ0gyXVtOSF1bQ0BIXTJDKD1PKWMzW2NIXWMoRilbY0hdW2NIXWMzRg==

>  <s_glide_docking_method>  (1) 
confgen

>  <s_i_glide_gridfile>  (1) 
gpcr_5ht2c_6bqh_protein_autoprepared_prepared

>  <s_lp_Force_Field>  (1) 
S-OPLS

>  <s_lp_Variant>  (1) 
DiffSBDD_18_num_sample_50-2

>  <s_m_source_file>  (1) 
generated__ligand_DiffSBDD_2026-05-06_prepared.sdf

>  <GenAI_Model>  (1) 
DiffSBDD

>  <Protein>  (1) 
GPCR_5HT2C

$$$$
DiffSBDD_44_num_sample_50
     RDKit          3D

  0  0  0  0  0  0  0  0  0  0999 V3000
M  V30 BEGIN CTAB
M  V30 COUNTS 65 67 0 0 1
M  V30 BEGIN ATOM
M  V30 1 C 40.166349 36.395633 64.093358 0
M  V30 2 C 39.467454 30.043747 53.533356 0
M  V30 3 C 40.427012 32.495089 63.574438 0
M  V30 4 O 38.116482 29.717390 60.009526 0
M  V30 5 O 38.207003 36.400000 62.693544 0
M  V30 6 C 39.523559 32.627980 62.405096 0
M  V30 7 F 41.115002 30.145336 66.326983 0
M  V30 8 C 39.067416 27.694460 52.918833 0
M  V30 9 C 38.772445 30.775396 55.902876 0 CFG=2
M  V30 10 O 37.978994 26.207938 54.343481 0
M  V30 11 C 41.557039 35.900113 63.658470 0
M  V30 12 C 41.200104 31.234279 65.527825 0
M  V30 13 C 39.308247 36.885838 62.929532 0
M  V30 14 C 39.346272 28.960924 52.548392 0
M  V30 15 O 39.690446 31.208188 53.214621 0
M  V30 16 O 41.467417 34.615396 63.044681 0
M  V30 17 O 35.696203 32.439951 60.141249 0
M  V30 18 C 38.514838 28.292970 55.200529 0
M  V30 19 C 39.077200 28.888575 60.645804 0
M  V30 20 C 39.867388 38.012684 62.083281 0
M  V30 21 O 37.467405 31.049091 55.453465 0
M  V30 22 C 42.142380 32.238233 65.809252 0
M  V30 23 C 39.314176 29.629227 55.018590 0 CFG=1
M  V30 24 C 37.886592 31.983774 60.868871 0 CFG=2
M  V30 25 C 40.346018 31.358402 64.416478 0
M  V30 26 C 38.220197 31.443383 58.350023 0
M  V30 27 C 41.378174 33.507204 63.862405 0
M  V30 28 C 39.245460 27.610593 50.788549 0
M  V30 29 C 38.769432 30.383357 57.386252 0
M  V30 30 O 39.003018 26.821567 51.892247 0
M  V30 31 N 38.878943 27.276226 54.225237 0
M  V30 32 O 36.515104 31.639992 61.050285 0
M  V30 33 C 42.235262 33.370683 64.981570 0
M  V30 34 C 38.533831 31.063011 59.803777 0 CFG=2
M  V30 35 N 38.604489 31.797953 62.116434 0
M  V30 36 C 39.466795 28.920020 51.143158 0
M  V30 37 H 39.646060 35.621447 64.642040 0
M  V30 38 H 40.267387 37.221503 64.793587 0
M  V30 39 H 39.682434 33.505790 61.771605 0
M  V30 40 H 39.379461 31.673892 55.777194 0
M  V30 41 H 37.264164 26.408010 53.755985 0
M  V30 42 H 42.238761 35.939848 64.504266 0
M  V30 43 H 41.994772 36.578439 62.929497 0
M  V30 44 H 35.690569 31.904234 59.356978 0
M  V30 45 H 38.699857 27.872455 56.188844 0
M  V30 46 H 37.445795 28.488572 55.128819 0
M  V30 47 H 38.673544 27.882479 60.735559 0
M  V30 48 H 39.995569 28.825504 60.061103 0
M  V30 49 H 39.322397 29.242251 61.646751 0
M  V30 50 H 40.666450 37.622124 61.453508 0
M  V30 51 H 39.091204 38.442859 61.450923 0
M  V30 52 H 40.266937 38.788918 62.735228 0
M  V30 53 H 36.940107 31.492757 56.119365 0
M  V30 54 H 42.798268 32.138566 66.662133 0
M  V30 55 H 40.333309 29.428047 55.349052 0
M  V30 56 H 37.949439 33.025049 60.536692 0
M  V30 57 H 39.624822 30.580393 64.207909 0
M  V30 58 H 37.144599 31.526249 58.214560 0
M  V30 59 H 38.645192 32.421481 58.122790 0
M  V30 60 H 39.224050 27.086455 49.853500 0
M  V30 61 H 39.789585 30.125621 57.672016 0
M  V30 62 H 38.177973 29.480382 57.530325 0
M  V30 63 H 42.967844 34.130652 65.201697 0
M  V30 64 H 39.617085 31.129370 59.899004 0
M  V30 65 H 39.683019 29.736513 50.469235 0
M  V30 END ATOM
M  V30 BEGIN BOND
M  V30 1 1 6 3
M  V30 2 1 11 1
M  V30 3 1 12 7
M  V30 4 1 13 1
M  V30 5 2 13 5
M  V30 6 1 14 2
M  V30 7 2 14 8
M  V30 8 2 15 2
M  V30 9 1 16 11
M  V30 10 1 19 4
M  V30 11 1 20 13
M  V30 12 1 21 9
M  V30 13 1 22 12
M  V30 14 1 23 2
M  V30 15 1 23 9
M  V30 16 1 23 18
M  V30 17 1 25 3
M  V30 18 2 25 12
M  V30 19 2 27 3
M  V30 20 1 27 16
M  V30 21 1 29 9
M  V30 22 1 29 26
M  V30 23 1 30 8
M  V30 24 1 30 28
M  V30 25 1 31 8
M  V30 26 1 31 10
M  V30 27 1 31 18
M  V30 28 1 32 17
M  V30 29 1 32 24
M  V30 30 2 33 22
M  V30 31 1 33 27
M  V30 32 1 34 4
M  V30 33 1 34 24
M  V30 34 1 34 26
M  V30 35 2 35 6
M  V30 36 1 35 24
M  V30 37 1 36 14
M  V30 38 2 36 28
M  V30 39 1 37 1
M  V30 40 1 38 1
M  V30 41 1 39 6
M  V30 42 1 9 40 CFG=1
M  V30 43 1 41 10
M  V30 44 1 42 11
M  V30 45 1 43 11
M  V30 46 1 44 17
M  V30 47 1 45 18
M  V30 48 1 46 18
M  V30 49 1 47 19
M  V30 50 1 48 19
M  V30 51 1 49 19
M  V30 52 1 50 20
M  V30 53 1 51 20
M  V30 54 1 52 20
M  V30 55 1 53 21
M  V30 56 1 54 22
M  V30 57 1 23 55 CFG=1
M  V30 58 1 24 56 CFG=3
M  V30 59 1 57 25
M  V30 60 1 58 26
M  V30 61 1 59 26
M  V30 62 1 60 28
M  V30 63 1 61 29
M  V30 64 1 62 29
M  V30 65 1 63 33
M  V30 66 1 34 64 CFG=3
M  V30 67 1 65 36
M  V30 END BOND
M  V30 END CTAB
M  END
>  <i_epik_Tot_Q>  (1) 
0

>  <i_epik_Tot_abs_Q>  (1) 
0

>  <i_i_glide_confnum>  (1) 
1050

>  <i_i_glide_lignum>  (1) 
102

>  <i_i_glide_posenum>  (1) 
150

>  <i_i_glide_rotatable_bonds>  (1) 
16

>  <i_lp_mmshare_version>  (1) 
72125

>  <i_m_source_file_index>  (1) 
45

>  <i_f3d_flags>  (1) 
0

>  <num_sample>  (1) 
50

>  <b_lp_Chiralities_Consistent>  (1) 
1

>  <r_epik_Charging_Adjusted_Penalty>  (1) 
0

>  <r_epik_Ionization_Penalty>  (1) 
0.00046426775496228489

>  <r_epik_Ionization_Penalty_Charging>  (1) 
0

>  <r_epik_Ionization_Penalty_Neutral>  (1) 
0.00046426775496228489

>  <r_epik_State_Penalty>  (1) 
-0

>  <r_glide_ring_energy>  (1) 
0

>  <r_i_docking_score>  (1) 
-7.3178713104444233

>  <r_i_glide_ecoul>  (1) 
-7.838215774008523

>  <r_i_glide_eff_state_penalty>  (1) 
-0

>  <r_i_glide_einternal>  (1) 
8.5177958576092987

>  <r_i_glide_emodel>  (1) 
-75.624499980767496

>  <r_i_glide_emodel_strain>  (1) 
1.4140615885145991

>  <r_i_glide_energy>  (1) 
-55.547046040405952

>  <r_i_glide_erotb>  (1) 
0.87096195952989475

>  <r_i_glide_esite>  (1) 
-0.11624855510003336

>  <r_i_glide_evdw>  (1) 
-47.708830266397428

>  <r_i_glide_gscore>  (1) 
-7.3178713104444233

>  <r_i_glide_gscore_strain>  (1) 
0

>  <r_i_glide_hbond>  (1) 
-0.15917502948408721

>  <r_i_glide_ligand_efficiency>  (1) 
-0.20327420306790064

>  <r_i_glide_ligand_efficiency_ln>  (1) 
-1.5965618139039126

>  <r_i_glide_ligand_efficiency_sa>  (1) 
-0.67119663010724095

>  <r_i_glide_lipo>  (1) 
-2.5926468443654884

>  <r_i_glide_metal>  (1) 
-0

>  <r_i_glide_rewards>  (1) 
-1.7595889616035592

>  <r_lp_Energy>  (1) 
22.676888999999999

>  <r_lp_tautomer_probability>  (1) 
1

>  <s_epik_Chemistry_Notes>  (1) 
This compound has an imine and may undergo hydrolysis. This compound contains an acetal/aminal-like group ( X-CH(R)-Y where X, Y are N, S, or O) that may be acid/base labile, releasing an aldehyde. This compound has a N-S or N-O group and may undergo hydrolysis at high or low pH.

>  <s_epik_cmdline>  (1) 
J2VwaWtfcHl0aG9uJywgJy1waHQnLCAnMS4wJywgJy1waCcsICc3LjQnLCAnLXRuJywgJzgnLCAnLW1hJywgJzUwMCcsICctaW1hZScsICc8aW5maWxlLm1hZT4nLCAnLW9tYWUnLCAnPG91dGZpbGUubWFlPic=

>  <s_epik_input>  (1) 
Tz1DKFtDSDNdKVtDSDJdW0NIMl1PYzFbY0hdW2NIXWMoRilbY0hdYzEvW0NIXT1OL1tDQEhdKE9bT0hdKVtDQEBIXShPW0NIM10pW0NIMl1bQ0gyXVtDQEhdKFtPSF0pW0NAQEhdKFtDSDJdTjJbT0hdKUMoPU8pYyhjMjMpW2NIXVtjSF1vMw==

>  <s_glide_docking_method>  (1) 
confgen

>  <s_i_glide_gridfile>  (1) 
gpcr_5ht2c_6bqh_protein_autoprepared_prepared

>  <s_lp_Force_Field>  (1) 
S-OPLS

>  <s_lp_Variant>  (1) 
DiffSBDD_44_num_sample_50-1

>  <s_m_source_file>  (1) 
generated__ligand_DiffSBDD_2026-05-06_prepared.sdf

>  <GenAI_Model>  (1) 
DiffSBDD

>  <Protein>  (1) 
GPCR_5HT2C

$$$$
DiffSBDD_44_num_sample_50
     RDKit          3D

  0  0  0  0  0  0  0  0  0  0999 V3000
M  V30 BEGIN CTAB
M  V30 COUNTS 65 67 0 0 1
M  V30 BEGIN ATOM
M  V30 1 C 40.458050 35.866406 64.090142 0
M  V30 2 C 39.467448 30.103157 53.376576 0
M  V30 3 C 40.893520 31.183174 63.322786 0
M  V30 4 O 38.667140 28.477983 59.731119 0
M  V30 5 O 41.358715 35.678642 61.858182 0
M  V30 6 C 39.944764 31.399884 62.205909 0
M  V30 7 F 42.701839 28.423582 64.955326 0
M  V30 8 C 39.068867 27.731116 52.902822 0
M  V30 9 C 38.416862 30.956077 55.524874 0 CFG=2
M  V30 10 O 38.149332 26.260920 54.466498 0
M  V30 11 C 41.330194 34.682130 64.527123 0
M  V30 12 C 42.263361 29.673250 64.677719 0
M  V30 13 C 40.590877 36.264289 62.621201 0
M  V30 14 C 39.305371 28.978803 52.462524 0
M  V30 15 O 39.770328 31.221460 52.986246 0
M  V30 16 O 40.883363 33.546149 63.802579 0
M  V30 17 O 36.954438 32.069969 61.453367 0
M  V30 18 C 38.661503 28.395341 55.199960 0
M  V30 19 C 39.144533 27.443844 58.879347 0
M  V30 20 C 39.723302 37.416255 62.140383 0
M  V30 21 O 37.067295 30.820063 55.148004 0
M  V30 22 C 42.715524 30.762024 65.444099 0
M  V30 23 C 39.247301 29.812498 54.881694 0 CFG=1
M  V30 24 C 38.629429 30.831214 60.355280 0 CFG=2
M  V30 25 C 41.357963 29.880455 63.622049 0
M  V30 26 C 37.948286 30.092655 57.977721 0
M  V30 27 C 41.345051 32.279154 64.096707 0
M  V30 28 C 39.133292 27.554972 50.768477 0
M  V30 29 C 38.595199 31.140330 57.041868 0
M  V30 30 O 38.956829 26.821489 51.919232 0
M  V30 31 N 38.992125 27.359396 54.237067 0
M  V30 32 O 37.259347 30.829671 60.750946 0
M  V30 33 C 42.261232 32.062945 65.159258 0
M  V30 34 C 38.826082 29.800576 59.219352 0 CFG=2
M  V30 35 N 39.513557 30.476569 61.454602 0
M  V30 36 C 39.357816 28.876677 51.054398 0
M  V30 37 H 39.413697 35.622882 64.253181 0
M  V30 38 H 40.667294 36.736768 64.710530 0
M  V30 39 H 39.618022 32.429947 62.042126 0
M  V30 40 H 38.738520 31.910020 55.106858 0
M  V30 41 H 38.719681 25.533384 54.661601 0
M  V30 42 H 41.191149 34.531604 65.595896 0
M  V30 43 H 42.386852 34.872810 64.343093 0
M  V30 44 H 36.648652 32.611388 60.740499 0
M  V30 45 H 39.048138 28.063836 56.160576 0
M  V30 46 H 37.576014 28.430247 55.289281 0
M  V30 47 H 39.320051 26.539291 59.453550 0
M  V30 48 H 38.410978 27.190738 58.115897 0
M  V30 49 H 40.087317 27.700485 58.395230 0
M  V30 50 H 39.420033 38.021457 62.991000 0
M  V30 51 H 40.271758 38.049106 61.453698 0
M  V30 52 H 38.836622 37.039990 61.628559 0
M  V30 53 H 36.505550 31.244795 55.803569 0
M  V30 54 H 43.411247 30.599212 66.253995 0
M  V30 55 H 40.252200 29.846056 55.304932 0
M  V30 56 H 38.876353 31.813792 59.943687 0
M  V30 57 H 41.015792 29.037493 63.038971 0
M  V30 58 H 37.751974 29.175644 57.440449 0
M  V30 59 H 36.949141 30.420468 58.269372 0
M  V30 60 H 39.068633 26.987140 49.853448 0
M  V30 61 H 38.225188 32.128097 57.329167 0
M  V30 62 H 39.668833 31.174591 57.202455 0
M  V30 63 H 42.616165 32.890009 65.754101 0
M  V30 64 H 39.872433 29.867883 58.921691 0
M  V30 65 H 39.530362 29.664959 50.336140 0
M  V30 END ATOM
M  V30 BEGIN BOND
M  V30 1 1 6 3
M  V30 2 1 11 1
M  V30 3 1 12 7
M  V30 4 1 13 1
M  V30 5 2 13 5
M  V30 6 1 14 2
M  V30 7 2 14 8
M  V30 8 2 15 2
M  V30 9 1 16 11
M  V30 10 1 19 4
M  V30 11 1 20 13
M  V30 12 1 21 9
M  V30 13 1 22 12
M  V30 14 1 23 2
M  V30 15 1 23 9
M  V30 16 1 23 18
M  V30 17 1 25 3
M  V30 18 2 25 12
M  V30 19 2 27 3
M  V30 20 1 27 16
M  V30 21 1 29 9
M  V30 22 1 29 26
M  V30 23 1 30 8
M  V30 24 1 30 28
M  V30 25 1 31 8
M  V30 26 1 31 10
M  V30 27 1 31 18
M  V30 28 1 32 17
M  V30 29 1 32 24
M  V30 30 2 33 22
M  V30 31 1 33 27
M  V30 32 1 34 4
M  V30 33 1 34 24
M  V30 34 1 34 26
M  V30 35 2 35 6
M  V30 36 1 35 24
M  V30 37 1 36 14
M  V30 38 2 36 28
M  V30 39 1 37 1
M  V30 40 1 38 1
M  V30 41 1 39 6
M  V30 42 1 9 40 CFG=3
M  V30 43 1 41 10
M  V30 44 1 42 11
M  V30 45 1 43 11
M  V30 46 1 44 17
M  V30 47 1 45 18
M  V30 48 1 46 18
M  V30 49 1 47 19
M  V30 50 1 48 19
M  V30 51 1 49 19
M  V30 52 1 50 20
M  V30 53 1 51 20
M  V30 54 1 52 20
M  V30 55 1 53 21
M  V30 56 1 54 22
M  V30 57 1 23 55 CFG=1
M  V30 58 1 24 56 CFG=3
M  V30 59 1 57 25
M  V30 60 1 58 26
M  V30 61 1 59 26
M  V30 62 1 60 28
M  V30 63 1 61 29
M  V30 64 1 62 29
M  V30 65 1 63 33
M  V30 66 1 34 64 CFG=3
M  V30 67 1 65 36
M  V30 END BOND
M  V30 END CTAB
M  END
>  <i_epik_Tot_Q>  (1) 
0

>  <i_epik_Tot_abs_Q>  (1) 
0

>  <i_i_glide_confnum>  (1) 
3706

>  <i_i_glide_lignum>  (1) 
102

>  <i_i_glide_posenum>  (1) 
395

>  <i_i_glide_rotatable_bonds>  (1) 
16

>  <i_lp_mmshare_version>  (1) 
72125

>  <i_m_source_file_index>  (1) 
45

>  <i_f3d_flags>  (1) 
0

>  <num_sample>  (1) 
50

>  <b_lp_Chiralities_Consistent>  (1) 
1

>  <r_epik_Charging_Adjusted_Penalty>  (1) 
0

>  <r_epik_Ionization_Penalty>  (1) 
0.00046426775496228489

>  <r_epik_Ionization_Penalty_Charging>  (1) 
0

>  <r_epik_Ionization_Penalty_Neutral>  (1) 
0.00046426775496228489

>  <r_epik_State_Penalty>  (1) 
-0

>  <r_glide_ring_energy>  (1) 
0

>  <r_i_docking_score>  (1) 
-7.3161264913404471

>  <r_i_glide_ecoul>  (1) 
-7.0362422783478902

>  <r_i_glide_eff_state_penalty>  (1) 
-0

>  <r_i_glide_einternal>  (1) 
8.1325536599496928

>  <r_i_glide_emodel>  (1) 
-75.676604979861338

>  <r_i_glide_emodel_strain>  (1) 
1.1560948638507185

>  <r_i_glide_energy>  (1) 
-55.154702954111642

>  <r_i_glide_erotb>  (1) 
0.87096195952989475

>  <r_i_glide_esite>  (1) 
-0.053220675078457597

>  <r_i_glide_evdw>  (1) 
-48.11846067576375

>  <r_i_glide_gscore>  (1) 
-7.3161264913404471

>  <r_i_glide_gscore_strain>  (1) 
0

>  <r_i_glide_hbond>  (1) 
-0.16

>  <r_i_glide_ligand_efficiency>  (1) 
-0.20322573587056797

>  <r_i_glide_ligand_efficiency_ln>  (1) 
-1.5961811415149896

>  <r_i_glide_ligand_efficiency_sa>  (1) 
-0.67103659494769075

>  <r_i_glide_lipo>  (1) 
-2.8617622684215362

>  <r_i_glide_metal>  (1) 
-0

>  <r_i_glide_rewards>  (1) 
-1.6507461318299774

>  <r_lp_Energy>  (1) 
22.676888999999999

>  <r_lp_tautomer_probability>  (1) 
1

>  <s_epik_Chemistry_Notes>  (1) 
This compound has an imine and may undergo hydrolysis. This compound contains an acetal/aminal-like group ( X-CH(R)-Y where X, Y are N, S, or O) that may be acid/base labile, releasing an aldehyde. This compound has a N-S or N-O group and may undergo hydrolysis at high or low pH.

>  <s_epik_cmdline>  (1) 
J2VwaWtfcHl0aG9uJywgJy1waHQnLCAnMS4wJywgJy1waCcsICc3LjQnLCAnLXRuJywgJzgnLCAnLW1hJywgJzUwMCcsICctaW1hZScsICc8aW5maWxlLm1hZT4nLCAnLW9tYWUnLCAnPG91dGZpbGUubWFlPic=

>  <s_epik_input>  (1) 
Tz1DKFtDSDNdKVtDSDJdW0NIMl1PYzFbY0hdW2NIXWMoRilbY0hdYzEvW0NIXT1OL1tDQEhdKE9bT0hdKVtDQEBIXShPW0NIM10pW0NIMl1bQ0gyXVtDQEhdKFtPSF0pW0NAQEhdKFtDSDJdTjJbT0hdKUMoPU8pYyhjMjMpW2NIXVtjSF1vMw==

>  <s_glide_docking_method>  (1) 
confgen

>  <s_i_glide_gridfile>  (1) 
gpcr_5ht2c_6bqh_protein_autoprepared_prepared

>  <s_lp_Force_Field>  (1) 
S-OPLS

>  <s_lp_Variant>  (1) 
DiffSBDD_44_num_sample_50-1

>  <s_m_source_file>  (1) 
generated__ligand_DiffSBDD_2026-05-06_prepared.sdf

>  <GenAI_Model>  (1) 
DiffSBDD

>  <Protein>  (1) 
GPCR_5HT2C

$$$$
DiffSBDD_49_num_sample_50
     RDKit          3D

  0  0  0  0  0  0  0  0  0  0999 V3000
M  V30 BEGIN CTAB
M  V30 COUNTS 82 89 0 0 1
M  V30 BEGIN ATOM
M  V30 1 C 39.467433 33.479285 63.079588 0
M  V30 2 C 42.620939 30.963473 64.222984 0
M  V30 3 C 38.238699 33.228528 58.855635 0 CFG=1
M  V30 4 O 39.382927 27.270111 53.538373 0
M  V30 5 C 40.676592 29.021976 62.828608 0
M  V30 6 C 40.349795 28.327904 59.275370 0
M  V30 7 C 39.201893 30.104617 60.066084 0 CFG=2
M  V30 8 C 42.021478 29.748635 64.828953 0 CFG=2
M  V30 9 C 38.233460 25.860357 55.038511 0
M  V30 10 O 37.127269 27.165106 53.349425 0
M  V30 11 C 40.842200 31.548154 62.596761 0
M  V30 12 C 44.346807 28.848138 65.604976 0
M  V30 13 C 37.378487 33.014822 60.072246 0
M  V30 14 C 38.171943 26.821670 53.898834 0
M  V30 15 C 40.331351 32.846159 62.014218 0 CFG=2
M  V30 16 O 37.897840 29.944618 58.095190 0
M  V30 17 C 38.922372 30.353683 61.567606 0
M  V30 18 O 37.467403 34.021427 58.000914 0
M  V30 19 C 42.138371 27.978595 66.535679 0
M  V30 20 O 42.667403 32.890508 62.956726 0
M  V30 21 C 38.730858 33.706294 60.223938 0 CFG=2
M  V30 22 C 37.145342 24.205256 56.446310 0
M  V30 23 C 42.065494 31.737281 63.278739 0
M  V30 24 C 39.527128 25.791741 55.814579 0 CFG=1
M  V30 25 C 38.468428 27.091753 57.861865 0
M  V30 26 O 39.344154 28.187802 52.400817 0
M  V30 27 C 38.889670 27.910913 59.104796 0 CFG=2
M  V30 28 O 42.951244 30.138965 67.027729 0
M  V30 29 O 41.837008 27.439680 64.111149 0
M  V30 30 C 39.477639 24.805685 56.993022 0 CFG=2
M  V30 31 C 42.883977 29.182930 65.985747 0 CFG=2
M  V30 32 C 38.168206 29.255261 59.305490 0 CFG=1
M  V30 33 O 40.455601 29.494425 59.834681 0
M  V30 34 C 42.044719 26.934790 65.432761 0
M  V30 35 C 41.485187 28.753838 63.854726 0
M  V30 36 O 41.293665 27.623923 58.930963 0
M  V30 37 C 40.396178 27.009131 56.144611 0
M  V30 38 C 40.187285 30.345772 62.383760 0
M  V30 39 C 38.221233 24.058450 57.219855 0
M  V30 40 C 41.753541 33.545000 62.026668 0
M  V30 41 C 38.861260 35.199695 60.506228 0
M  V30 42 C 37.146541 25.126313 55.341141 0
M  V30 43 O 39.836302 32.866040 60.654572 0
M  V30 44 C 39.586591 26.298884 57.202051 0 CFG=1
M  V30 45 H 39.867348 33.221543 64.064079 0
M  V30 46 H 39.467419 34.564423 63.055136 0
M  V30 47 H 38.456651 33.091893 63.014237 0
M  V30 48 H 43.555352 31.284880 64.655511 0
M  V30 49 H 38.722038 32.418171 58.324403 0
M  V30 50 H 40.326477 28.169990 62.265131 0
M  V30 51 H 39.309294 31.044696 59.565908 0
M  V30 52 H 41.110926 30.125228 65.300185 0
M  V30 53 H 44.403917 28.207930 64.724383 0
M  V30 54 H 44.935017 29.740087 65.389566 0
M  V30 55 H 44.855786 28.332054 66.420269 0
M  V30 56 H 37.187262 31.970891 60.276895 0
M  V30 57 H 36.501767 33.646647 60.212015 0
M  V30 58 H 36.992421 29.818506 57.843882 0
M  V30 59 H 38.356451 31.249496 61.768665 0
M  V30 60 H 38.267426 29.621162 61.998646 0
M  V30 61 H 36.832892 33.458837 57.568919 0
M  V30 62 H 41.133359 28.266573 66.850013 0
M  V30 63 H 42.630946 27.560226 67.414156 0
M  V30 64 H 36.267299 23.626980 56.653465 0
M  V30 65 H 38.013233 27.721221 57.099221 0
M  V30 66 H 37.673365 26.417861 58.171682 0
M  V30 67 H 39.237179 27.580682 51.684452 0
M  V30 68 H 38.688037 27.290692 59.974283 0
M  V30 69 H 42.072340 30.327494 67.319338 0
M  V30 70 H 40.355532 24.189139 57.103649 0
M  V30 71 H 37.232104 29.170059 59.853494 0
M  V30 72 H 41.249477 26.225888 65.663892 0
M  V30 73 H 42.963376 26.348301 65.406876 0
M  V30 74 H 41.467391 26.880666 56.253505 0
M  V30 75 H 40.074978 28.013123 55.871940 0
M  V30 76 H 38.200244 23.364433 58.046457 0
M  V30 77 H 41.689904 34.615772 62.222352 0
M  V30 78 H 42.224227 33.422794 61.053520 0
M  V30 79 H 38.215653 35.778961 59.852763 0
M  V30 80 H 38.507415 35.454894 61.498898 0
M  V30 81 H 39.890632 35.536990 60.377462 0
M  V30 82 H 36.267415 25.221426 54.747165 0
M  V30 END ATOM
M  V30 BEGIN BOND
M  V30 1 1 8 2
M  V30 2 1 13 3
M  V30 3 1 14 4
M  V30 4 1 14 9
M  V30 5 2 14 10
M  V30 6 1 15 1
M  V30 7 1 15 11
M  V30 8 1 17 7
M  V30 9 1 18 3
M  V30 10 1 21 3
M  V30 11 1 21 13
M  V30 12 2 23 2
M  V30 13 1 23 11
M  V30 14 1 23 20
M  V30 15 1 24 9
M  V30 16 1 26 4
M  V30 17 1 27 6
M  V30 18 1 27 25
M  V30 19 1 30 24
M  V30 20 1 31 8
M  V30 21 1 31 12
M  V30 22 1 31 19
M  V30 23 1 31 28 CFG=1
M  V30 24 1 32 7
M  V30 25 1 32 16
M  V30 26 1 32 27
M  V30 27 1 33 6
M  V30 28 1 33 7
M  V30 29 1 34 19
M  V30 30 1 34 29
M  V30 31 2 35 5
M  V30 32 1 35 8
M  V30 33 1 35 29
M  V30 34 2 36 6
M  V30 35 1 24 37 CFG=1
M  V30 36 1 38 5
M  V30 37 2 38 11
M  V30 38 1 38 17
M  V30 39 2 39 22
M  V30 40 1 39 30
M  V30 41 1 40 15
M  V30 42 1 40 20
M  V30 43 1 41 21
M  V30 44 2 42 9
M  V30 45 1 42 22
M  V30 46 1 15 43 CFG=3
M  V30 47 1 21 43 CFG=1
M  V30 48 1 44 24
M  V30 49 1 44 25 CFG=1
M  V30 50 1 44 30
M  V30 51 1 44 37
M  V30 52 1 45 1
M  V30 53 1 46 1
M  V30 54 1 47 1
M  V30 55 1 48 2
M  V30 56 1 3 49 CFG=3
M  V30 57 1 50 5
M  V30 58 1 7 51 CFG=3
M  V30 59 1 8 52 CFG=1
M  V30 60 1 53 12
M  V30 61 1 54 12
M  V30 62 1 55 12
M  V30 63 1 56 13
M  V30 64 1 57 13
M  V30 65 1 58 16
M  V30 66 1 59 17
M  V30 67 1 60 17
M  V30 68 1 61 18
M  V30 69 1 62 19
M  V30 70 1 63 19
M  V30 71 1 64 22
M  V30 72 1 65 25
M  V30 73 1 66 25
M  V30 74 1 67 26
M  V30 75 1 27 68 CFG=1
M  V30 76 1 69 28
M  V30 77 1 30 70 CFG=3
M  V30 78 1 32 71 CFG=1
M  V30 79 1 72 34
M  V30 80 1 73 34
M  V30 81 1 74 37
M  V30 82 1 75 37
M  V30 83 1 76 39
M  V30 84 1 77 40
M  V30 85 1 78 40
M  V30 86 1 79 41
M  V30 87 1 80 41
M  V30 88 1 81 41
M  V30 89 1 82 42
M  V30 END BOND
M  V30 END CTAB
M  END
>  <i_epik_Tot_Q>  (1) 
0

>  <i_epik_Tot_abs_Q>  (1) 
0

>  <i_i_glide_confnum>  (1) 
564

>  <i_i_glide_lignum>  (1) 
110

>  <i_i_glide_posenum>  (1) 
218

>  <i_i_glide_rotatable_bonds>  (1) 
12

>  <i_lp_mmshare_version>  (1) 
72125

>  <i_m_source_file_index>  (1) 
50

>  <i_f3d_flags>  (1) 
2

>  <num_sample>  (1) 
50

>  <b_lp_Chiralities_Consistent>  (1) 
0

>  <r_epik_Charging_Adjusted_Penalty>  (1) 
0

>  <r_epik_Ionization_Penalty>  (1) 
1.8283090470904203e-05

>  <r_epik_Ionization_Penalty_Charging>  (1) 
0

>  <r_epik_Ionization_Penalty_Neutral>  (1) 
1.8283090470904203e-05

>  <r_epik_State_Penalty>  (1) 
-0

>  <r_glide_ring_energy>  (1) 
0.96358372370287459

>  <r_i_docking_score>  (1) 
-7.3149796828728135

>  <r_i_glide_ecoul>  (1) 
-1.1667614299923308

>  <r_i_glide_eff_state_penalty>  (1) 
-0

>  <r_i_glide_einternal>  (1) 
9.7993494526708655

>  <r_i_glide_emodel>  (1) 
-47.914716577227978

>  <r_i_glide_emodel_strain>  (1) 
5.8001133382404362

>  <r_i_glide_energy>  (1) 
-42.668537328406657

>  <r_i_glide_erotb>  (1) 
0.32668660388354631

>  <r_i_glide_esite>  (1) 
0

>  <r_i_glide_evdw>  (1) 
-41.50177589841433

>  <r_i_glide_gscore>  (1) 
-7.3149796828728135

>  <r_i_glide_gscore_strain>  (1) 
0.45002833456010904

>  <r_i_glide_hbond>  (1) 
-0.063555904957851128

>  <r_i_glide_ligand_efficiency>  (1) 
-0.16624953824710939

>  <r_i_glide_ligand_efficiency_ln>  (1) 
-1.528990329106547

>  <r_i_glide_ligand_efficiency_sa>  (1) 
-0.58691878059940938

>  <r_i_glide_lipo>  (1) 
-4.7817132143901562

>  <r_i_glide_metal>  (1) 
-0

>  <r_i_glide_rewards>  (1) 
-0.99632249254889571

>  <r_lp_Energy>  (1) 
38.622012999999995

>  <r_lp_tautomer_probability>  (1) 
1

>  <s_epik_Chemistry_Notes>  (1) 
This compound has an ester and may undergo hydrolysis at high or low pH.

>  <s_epik_cmdline>  (1) 
J2VwaWtfcHl0aG9uJywgJy1waHQnLCAnMS4wJywgJy1waCcsICc3LjQnLCAnLXRuJywgJzgnLCAnLW1hJywgJzUwMCcsICctaW1hZScsICc8aW5maWxlLm1hZT4nLCAnLW9tYWUnLCAnPG91dGZpbGUubWFlPic=

>  <s_epik_input>  (1) 
W0NIMl0xW0NAQEhdKFtPSF0pW0NAXTEoW0NIM10pT1tDQF0yKFtDSDNdKVtDSDJdT0MoPVtDSF0zKUMyPUMoW0NIXT1DKFtDQEhdMzQpT1tDSDJdW0NIMl1bQ0BdNChbQ0gzXSlbT0hdKVtDSDJdW0NAQEhdKE81KVtDQEBIXShbT0hdKVtDQEhdKEM1PU8pW0NIMl1bQ0BdNihbQ0gyXTcpW0NAQEhdKEM2NzgpW0NIXT1bQ0hdW0NIXT1DOEMoPU8pT1tPSF0=

>  <s_glide_docking_method>  (1) 
confgen

>  <s_i_glide_gridfile>  (1) 
gpcr_5ht2c_6bqh_protein_autoprepared_prepared

>  <s_lp_Force_Field>  (1) 
S-OPLS

>  <s_lp_Variant>  (1) 
DiffSBDD_49_num_sample_50-1

>  <s_m_source_file>  (1) 
generated__ligand_DiffSBDD_2026-05-06_prepared.sdf

>  <GenAI_Model>  (1) 
DiffSBDD

>  <Protein>  (1) 
GPCR_5HT2C

$$$$
DiffSBDD_13_num_sample_50
     RDKit          3D

  0  0  0  0  0  0  0  0  0  0999 V3000
M  V30 BEGIN CTAB
M  V30 COUNTS 68 71 0 0 1
M  V30 BEGIN ATOM
M  V30 1 C 41.845833 28.286047 58.724972 0
M  V30 2 C 38.430238 25.083887 56.408459 0
M  V30 3 N 41.474714 31.400402 64.559195 0
M  V30 4 C 38.718738 27.138633 54.515655 0
M  V30 5 C 41.650157 33.210171 63.357294 0
M  V30 6 N 39.269787 29.609516 54.100178 0 CFG=1 CHG=1
M  V30 7 F 37.867398 24.659460 58.546487 0
M  V30 8 C 41.157272 29.698643 62.808429 0
M  V30 9 C 40.073419 30.097319 51.783014 0 CFG=1
M  V30 10 C 39.067406 28.165403 61.418999 0
M  V30 11 C 39.551764 30.679672 53.108317 0
M  V30 12 C 41.389613 31.149990 63.246220 0
M  V30 13 C 40.435876 28.417337 59.342890 0 CFG=1
M  V30 14 N 40.514159 30.796687 65.398082 0
M  V30 15 N 39.251449 29.012056 51.304308 0
M  V30 16 O 41.111184 28.753550 63.599428 0
M  V30 17 O 41.826719 27.679038 57.453023 0
M  V30 18 C 38.841305 28.281516 53.523345 0 CFG=1
M  V30 19 C 39.502538 29.971942 57.623780 0
M  V30 20 C 38.262120 24.021420 57.453531 0
M  V30 21 C 39.853474 26.421322 54.951760 0
M  V30 22 C 40.109436 30.967504 50.552041 0
M  V30 23 C 39.706987 25.396641 55.905623 0
M  V30 24 C 40.175856 29.660955 55.268525 0
M  V30 25 N 41.499403 32.072559 62.381038 0
M  V30 26 C 40.184891 29.916517 49.453516 0
M  V30 27 C 37.460782 26.800875 55.003121 0
M  V30 28 C 37.309954 25.778999 55.946595 0
M  V30 29 O 41.607814 32.756976 64.767669 0
M  V30 30 C 39.467411 30.387975 56.384829 0
M  V30 31 C 40.482410 28.373603 60.886161 0 CFG=1
M  V30 32 O 41.009349 29.571756 61.456779 0
M  V30 33 C 39.474954 27.883941 52.184585 0
M  V30 34 C 39.614899 29.621494 58.879653 0
M  V30 35 O 39.867409 28.675771 50.063989 0
M  V30 36 H 42.455665 27.633452 59.345653 0
M  V30 37 H 42.344914 29.251484 58.653505 0
M  V30 38 H 42.604700 33.708876 63.193419 0
M  V30 39 H 40.867630 33.953873 63.194395 0
M  V30 40 H 41.067395 29.697136 51.933209 0
M  V30 41 H 38.424476 27.622758 60.721013 0
M  V30 42 H 39.070886 27.621428 62.356378 0
M  V30 43 H 38.667407 29.156899 61.612456 0
M  V30 44 H 38.667357 31.297340 53.053506 0
M  V30 45 H 40.293360 31.381490 53.480919 0
M  V30 46 H 39.886268 27.528085 59.028504 0
M  V30 47 H 40.448488 29.805600 65.163959 0
M  V30 48 H 40.818123 30.879849 66.365392 0
M  V30 49 H 41.925827 26.741154 57.551332 0
M  V30 50 H 37.808381 28.494703 53.243725 0
M  V30 51 H 37.459461 23.328757 57.202996 0
M  V30 52 H 39.181579 23.478384 57.674339 0
M  V30 53 H 40.830437 26.666879 54.574182 0
M  V30 54 H 39.211880 31.576595 50.444122 0
M  V30 55 H 40.975666 31.621013 50.533918 0
M  V30 56 H 40.572848 24.859294 56.255899 0
M  V30 57 H 41.092575 30.199757 55.042867 0
M  V30 58 H 40.502642 28.692948 55.613605 0
M  V30 59 H 41.187314 29.863862 49.034383 0
M  V30 60 H 39.467421 30.117218 48.658481 0
M  V30 61 H 36.596538 27.336030 54.653512 0
M  V30 62 H 36.327807 25.535790 56.326226 0
M  V30 63 H 38.921761 31.281714 56.114835 0
M  V30 64 H 41.114989 27.555152 61.197865 0
M  V30 65 H 38.960418 27.013058 51.772853 0
M  V30 66 H 40.528408 27.621579 52.253475 0
M  V30 67 H 39.115860 30.188421 59.651472 0
M  V30 68 H 38.408280 29.914737 54.530236 0
M  V30 END ATOM
M  V30 BEGIN BOND
M  V30 1 1 11 6
M  V30 2 1 11 9
M  V30 3 1 12 3
M  V30 4 1 12 8
M  V30 5 1 13 1
M  V30 6 1 14 3
M  V30 7 1 15 9
M  V30 8 2 16 8
M  V30 9 1 17 1
M  V30 10 1 18 4
M  V30 11 1 18 6
M  V30 12 1 20 2
M  V30 13 1 20 7
M  V30 14 1 21 4
M  V30 15 1 22 9
M  V30 16 1 23 2
M  V30 17 2 23 21
M  V30 18 1 24 6
M  V30 19 1 25 5
M  V30 20 2 25 12
M  V30 21 1 26 22
M  V30 22 2 27 4
M  V30 23 2 28 2
M  V30 24 1 28 27
M  V30 25 1 29 3
M  V30 26 1 29 5
M  V30 27 2 30 19
M  V30 28 1 30 24
M  V30 29 1 31 10
M  V30 30 1 31 13
M  V30 31 1 32 8
M  V30 32 1 32 31
M  V30 33 1 33 15
M  V30 34 1 33 18
M  V30 35 1 34 13
M  V30 36 2 34 19
M  V30 37 1 35 15
M  V30 38 1 35 26
M  V30 39 1 36 1
M  V30 40 1 37 1
M  V30 41 1 38 5
M  V30 42 1 39 5
M  V30 43 1 9 40 CFG=1
M  V30 44 1 41 10
M  V30 45 1 42 10
M  V30 46 1 43 10
M  V30 47 1 44 11
M  V30 48 1 45 11
M  V30 49 1 13 46 CFG=3
M  V30 50 1 47 14
M  V30 51 1 48 14
M  V30 52 1 49 17
M  V30 53 1 18 50 CFG=3
M  V30 54 1 51 20
M  V30 55 1 52 20
M  V30 56 1 53 21
M  V30 57 1 54 22
M  V30 58 1 55 22
M  V30 59 1 56 23
M  V30 60 1 57 24
M  V30 61 1 58 24
M  V30 62 1 59 26
M  V30 63 1 60 26
M  V30 64 1 61 27
M  V30 65 1 62 28
M  V30 66 1 63 30
M  V30 67 1 31 64 CFG=3
M  V30 68 1 65 33
M  V30 69 1 66 33
M  V30 70 1 67 34
M  V30 71 1 6 68 CFG=1
M  V30 END BOND
M  V30 END CTAB
M  END
>  <i_epik_Tot_Q>  (1) 
1

>  <i_epik_Tot_abs_Q>  (1) 
1

>  <i_i_glide_confnum>  (1) 
1052

>  <i_i_glide_lignum>  (1) 
43

>  <i_i_glide_posenum>  (1) 
157

>  <i_i_glide_rotatable_bonds>  (1) 
11

>  <i_lp_mmshare_version>  (1) 
72125

>  <i_m_source_file_index>  (1) 
14

>  <i_f3d_flags>  (1) 
0

>  <num_sample>  (1) 
50

>  <b_lp_Chiralities_Consistent>  (1) 
1

>  <r_epik_Charging_Adjusted_Penalty>  (1) 
1.4651263053542571

>  <r_epik_Ionization_Penalty>  (1) 
0.72306607658712641

>  <r_epik_Ionization_Penalty_Charging>  (1) 
0.72300917426663169

>  <r_epik_Ionization_Penalty_Neutral>  (1) 
5.6902320494737884e-05

>  <r_epik_State_Penalty>  (1) 
0.74211713108762534

>  <r_glide_ring_energy>  (1) 
0

>  <r_i_docking_score>  (1) 
-7.3143915237575827

>  <r_i_glide_ecoul>  (1) 
-4.1252511914411443

>  <r_i_glide_eff_state_penalty>  (1) 
0.74211713108762534

>  <r_i_glide_einternal>  (1) 
8.1917778096419287

>  <r_i_glide_emodel>  (1) 
-61.758269148075499

>  <r_i_glide_emodel_strain>  (1) 
6.7891954090766546

>  <r_i_glide_energy>  (1) 
-40.579504203802507

>  <r_i_glide_erotb>  (1) 
0.76112016271400151

>  <r_i_glide_esite>  (1) 
-0.038302430451958219

>  <r_i_glide_evdw>  (1) 
-36.454253012361363

>  <r_i_glide_gscore>  (1) 
-8.0565086548452083

>  <r_i_glide_gscore_strain>  (1) 
0.69729885226916366

>  <r_i_glide_hbond>  (1) 
-0.43365289349907649

>  <r_i_glide_ligand_efficiency>  (1) 
-0.20898261496450235

>  <r_i_glide_ligand_efficiency_ln>  (1) 
-1.6056712736383254

>  <r_i_glide_ligand_efficiency_sa>  (1) 
-0.68359599122549763

>  <r_i_glide_lipo>  (1) 
-4.6051998099830911

>  <r_i_glide_metal>  (1) 
-0

>  <r_i_glide_rewards>  (1) 
-1.9962722065600078

>  <r_lp_Energy>  (1) 
-4.4146960000000002

>  <s_epik_Chemistry_Notes>  (1) 
This compound has an ester and may undergo hydrolysis at high or low pH. This compound has an imine and may undergo hydrolysis. This compound contains an acetal/aminal-like group ( X-CH(R)-Y where X, Y are N, S, or O) that may be acid/base labile, releasing an aldehyde. This compound has a N-S or N-O group and may undergo hydrolysis at high or low pH.

>  <s_epik_cmdline>  (1) 
J2VwaWtfcHl0aG9uJywgJy1waHQnLCAnMS4wJywgJy1waCcsICc3LjQnLCAnLXRuJywgJzgnLCAnLW1hJywgJzUwMCcsICctaW1hZScsICc8aW5maWxlLm1hZT4nLCAnLW9tYWUnLCAnPG91dGZpbGUubWFlPic=

>  <s_epik_input>  (1) 
TzFbQ0gyXU49QyhOMVtOSDJdKUMoPU8pT1tDQEBIXShbQ0gzXSlbQ0BIXShbQ0gyXVtPSF0pW0NIXT1DPVtDSF1bQ0gyXU4oW0NIMl0yKVtDQEhdKGMoW2NIXVtjSF0zKVtjSF1bY0hdYzNbQ0gyXUYpW0NIMl1OKFtDQEhdMjQpT1tDSDJdW0NIMl00

>  <s_glide_docking_method>  (1) 
confgen

>  <s_i_glide_gridfile>  (1) 
gpcr_5ht2c_6bqh_protein_autoprepared_prepared

>  <s_lp_Force_Field>  (1) 
S-OPLS

>  <s_lp_Variant>  (1) 
DiffSBDD_13_num_sample_50-2

>  <s_m_source_file>  (1) 
generated__ligand_DiffSBDD_2026-05-06_prepared.sdf

>  <GenAI_Model>  (1) 
DiffSBDD

>  <Protein>  (1) 
GPCR_5HT2C

$$$$
DiffSBDD_29_num_sample_50
     RDKit          3D

  0  0  0  0  0  0  0  0  0  0999 V3000
M  V30 BEGIN CTAB
M  V30 COUNTS 79 81 0 0 1
M  V30 BEGIN ATOM
M  V30 1 C 43.123327 29.017573 64.556333 0
M  V30 2 C 38.618700 29.557688 58.736286 0
M  V30 3 C 42.440466 30.382461 64.719615 0
M  V30 4 C 38.776589 28.494548 53.193877 0
M  V30 5 C 37.230672 34.896423 61.734587 0
M  V30 6 C 39.437897 27.403712 55.395864 0
M  V30 7 C 40.792089 33.338275 61.895455 0 CFG=2
M  V30 8 N 37.467417 31.694866 58.477621 0 CHG=1
M  V30 9 C 38.483983 34.274105 61.218951 0 CFG=1
M  V30 10 N 39.346813 28.513248 56.013807 0
M  V30 11 C 39.466809 33.922633 62.359023 0
M  V30 12 C 37.945968 32.975651 59.031147 0 CFG=2
M  V30 13 O 37.867407 31.836635 55.767178 0
M  V30 14 O 40.726738 32.178618 61.053681 0
M  V30 15 C 36.142665 34.184595 61.638386 0
M  V30 16 C 37.629433 26.374529 54.036941 0
M  V30 17 C 37.295565 36.294799 62.333011 0
M  V30 18 C 40.511275 31.054625 63.206049 0
M  V30 19 C 37.782029 32.978362 60.568957 0 CFG=2
M  V30 20 C 38.092717 29.527741 54.074224 0
M  V30 21 C 44.630755 28.959087 64.812443 0
M  V30 22 F 44.910007 29.519919 65.988847 0
M  V30 23 O 40.115778 28.034791 59.854197 0
M  V30 24 O 39.867396 26.421428 53.241738 0
M  V30 25 C 37.754035 37.350424 61.320209 0
M  V30 26 C 38.469924 30.813337 57.835330 0 CFG=2
M  V30 27 F 45.057126 27.696948 64.822688 0
M  V30 28 C 36.249845 32.853503 61.016439 0
M  V30 29 C 40.076001 29.221710 59.096708 0
M  V30 30 C 37.987569 30.560127 56.376711 0 CFG=2
M  V30 31 C 40.993234 30.350084 64.247981 0
M  V30 32 F 45.272214 29.621088 63.853543 0
M  V30 33 C 38.875888 29.749142 55.395723 0 CFG=1
M  V30 34 O 42.486533 28.012326 64.234715 0
M  V30 35 C 41.302484 31.981102 62.345061 0 CFG=2
M  V30 36 C 38.939963 27.179743 53.973553 0 CFG=1
M  V30 37 C 37.209522 34.119504 58.317098 0
M  V30 38 H 38.123690 28.699593 58.280401 0
M  V30 39 H 38.090533 29.701105 59.680886 0
M  V30 40 H 43.024723 31.137422 64.197883 0
M  V30 41 H 42.454999 30.654677 65.774594 0
M  V30 42 H 39.746754 28.888936 52.887171 0
M  V30 43 H 38.209790 28.337328 52.274101 0
M  V30 44 H 39.882637 26.523214 55.867213 0
M  V30 45 H 41.524023 34.068487 61.556579 0
M  V30 46 H 36.769172 31.910110 57.762492 0
M  V30 47 H 38.963779 34.909576 60.474787 0
M  V30 48 H 39.700719 34.814148 62.941104 0
M  V30 49 H 38.990155 33.232839 63.053242 0
M  V30 50 H 39.008426 33.102674 58.819425 0
M  V30 51 H 36.944839 32.088228 55.769338 0
M  V30 52 H 35.184104 34.529761 61.989642 0
M  V30 53 H 36.884026 26.880477 54.650263 0
M  V30 54 H 37.189725 26.230582 53.053539 0
M  V30 55 H 37.786764 25.385875 54.470741 0
M  V30 56 H 36.308331 36.562690 62.710458 0
M  V30 57 H 37.956521 36.302290 63.199417 0
M  V30 58 H 39.464543 30.953710 62.957221 0
M  V30 59 H 38.286330 32.087810 60.943132 0
M  V30 60 H 37.072787 29.203544 54.283674 0
M  V30 61 H 38.007661 30.465649 53.526135 0
M  V30 62 H 39.945286 27.301513 59.282348 0
M  V30 63 H 39.512712 26.272587 52.378372 0
M  V30 64 H 37.660687 38.354462 61.732780 0
M  V30 65 H 38.799578 37.202511 61.055064 0
M  V30 66 H 37.160320 37.309397 60.406161 0
M  V30 67 H 39.432921 31.315881 57.758762 0
M  V30 68 H 35.539919 32.734223 60.197283 0
M  V30 69 H 36.091262 32.073996 61.761264 0
M  V30 70 H 40.508024 30.021116 59.697522 0
M  V30 71 H 40.705913 29.103952 58.215870 0
M  V30 72 H 37.001839 30.093915 56.414965 0
M  V30 73 H 40.324093 29.706080 64.803814 0
M  V30 74 H 39.763916 30.341382 55.167335 0
M  V30 75 H 42.375147 31.808608 62.321829 0
M  V30 76 H 37.467389 35.095666 58.723904 0
M  V30 77 H 37.468149 34.129021 57.258395 0
M  V30 78 H 36.125509 34.022732 58.383066 0
M  V30 79 H 36.980649 31.183950 59.197265 0
M  V30 END ATOM
M  V30 BEGIN BOND
M  V30 1 1 3 1
M  V30 2 1 9 5
M  V30 3 2 10 6
M  V30 4 1 11 7
M  V30 5 1 11 9
M  V30 6 1 12 8
M  V30 7 1 14 7
M  V30 8 2 15 5
M  V30 9 1 17 5
M  V30 10 1 19 9
M  V30 11 1 19 12
M  V30 12 1 20 4
M  V30 13 1 21 1
M  V30 14 1 22 21
M  V30 15 1 25 17
M  V30 16 1 26 2
M  V30 17 1 26 8
M  V30 18 1 27 21
M  V30 19 1 28 15
M  V30 20 1 28 19
M  V30 21 1 29 2
M  V30 22 1 29 23
M  V30 23 1 30 13
M  V30 24 1 30 26
M  V30 25 1 31 3
M  V30 26 2 31 18
M  V30 27 1 32 21
M  V30 28 1 33 10
M  V30 29 1 33 20
M  V30 30 1 33 30
M  V30 31 2 34 1
M  V30 32 1 35 7
M  V30 33 1 35 14
M  V30 34 1 35 18
M  V30 35 1 36 4
M  V30 36 1 36 6
M  V30 37 1 36 16
M  V30 38 1 36 24 CFG=3
M  V30 39 1 37 12
M  V30 40 1 38 2
M  V30 41 1 39 2
M  V30 42 1 40 3
M  V30 43 1 41 3
M  V30 44 1 42 4
M  V30 45 1 43 4
M  V30 46 1 44 6
M  V30 47 1 7 45 CFG=3
M  V30 48 1 46 8
M  V30 49 1 9 47 CFG=3
M  V30 50 1 48 11
M  V30 51 1 49 11
M  V30 52 1 12 50 CFG=1
M  V30 53 1 51 13
M  V30 54 1 52 15
M  V30 55 1 53 16
M  V30 56 1 54 16
M  V30 57 1 55 16
M  V30 58 1 56 17
M  V30 59 1 57 17
M  V30 60 1 58 18
M  V30 61 1 19 59 CFG=1
M  V30 62 1 60 20
M  V30 63 1 61 20
M  V30 64 1 62 23
M  V30 65 1 63 24
M  V30 66 1 64 25
M  V30 67 1 65 25
M  V30 68 1 66 25
M  V30 69 1 26 67 CFG=3
M  V30 70 1 68 28
M  V30 71 1 69 28
M  V30 72 1 70 29
M  V30 73 1 71 29
M  V30 74 1 30 72 CFG=1
M  V30 75 1 73 31
M  V30 76 1 33 74 CFG=3
M  V30 77 1 35 75 CFG=3
M  V30 78 1 76 37
M  V30 79 1 77 37
M  V30 80 1 78 37
M  V30 81 1 79 8
M  V30 END BOND
M  V30 END CTAB
M  END
>  <i_epik_Tot_Q>  (1) 
1

>  <i_epik_Tot_abs_Q>  (1) 
1

>  <i_i_glide_confnum>  (1) 
328

>  <i_i_glide_lignum>  (1) 
76

>  <i_i_glide_posenum>  (1) 
137

>  <i_i_glide_rotatable_bonds>  (1) 
17

>  <i_lp_mmshare_version>  (1) 
72125

>  <i_m_source_file_index>  (1) 
30

>  <i_f3d_flags>  (1) 
0

>  <num_sample>  (1) 
50

>  <b_lp_Chiralities_Consistent>  (1) 
1

>  <r_epik_Charging_Adjusted_Penalty>  (1) 
0.073066720001252791

>  <r_epik_Ionization_Penalty>  (1) 
0.041882768558209021

>  <r_epik_Ionization_Penalty_Charging>  (1) 
0.011280877963412759

>  <r_epik_Ionization_Penalty_Neutral>  (1) 
0.030601890594796264

>  <r_epik_State_Penalty>  (1) 
0.061785842037840037

>  <r_glide_ring_energy>  (1) 
0

>  <r_i_docking_score>  (1) 
-7.3103610732917836

>  <r_i_glide_ecoul>  (1) 
-6.8500381430523749

>  <r_i_glide_eff_state_penalty>  (1) 
0.061785842037840037

>  <r_i_glide_einternal>  (1) 
12.021645224965514

>  <r_i_glide_emodel>  (1) 
-60.949620814390016

>  <r_i_glide_emodel_strain>  (1) 
4.484369346222465

>  <r_i_glide_energy>  (1) 
-47.988708038600834

>  <r_i_glide_erotb>  (1) 
0.87550365807384167

>  <r_i_glide_esite>  (1) 
-0.093159331784333693

>  <r_i_glide_evdw>  (1) 
-41.13866989554846

>  <r_i_glide_gscore>  (1) 
-7.3721469153296235

>  <r_i_glide_gscore_strain>  (1) 
0.12109233655561624

>  <r_i_glide_hbond>  (1) 
-0.43745927695697456

>  <r_i_glide_ligand_efficiency>  (1) 
-0.19757732630518335

>  <r_i_glide_ligand_efficiency_ln>  (1) 
-1.585445937617985

>  <r_i_glide_ligand_efficiency_sa>  (1) 
-0.65837148410391488

>  <r_i_glide_lipo>  (1) 
-3.2023976697633794

>  <r_i_glide_metal>  (1) 
-0

>  <r_i_glide_rewards>  (1) 
-1.5512874152191145

>  <r_lp_Energy>  (1) 
32.688037999999999

>  <s_epik_Chemistry_Notes>  (1) 
This compound has an imine and may undergo hydrolysis.

>  <s_epik_cmdline>  (1) 
J2VwaWtfcHl0aG9uJywgJy1waHQnLCAnMS4wJywgJy1waCcsICc3LjQnLCAnLXRuJywgJzgnLCAnLW1hJywgJzUwMCcsICctaW1hZScsICc8aW5maWxlLm1hZT4nLCAnLW9tYWUnLCAnPG91dGZpbGUubWFlPic=

>  <s_epik_input>  (1) 
RkMoRikoRilDKD1PKVtDSDJdL1tDSF09W0NIXVxbQ0BIXTFPW0NASF0xW0NIMl1bQ0BIXTJbQ0BIXShbQ0gyXVtDSF09QzJbQ0gyXVtDSDNdKVtDQEhdKFtDSDNdKVtOSF1bQ0BASF0oW0NIMl1bQ0gyXVtPSF0pW0NAQEhdKFtPSF0pW0NAQEhdKE49W0NIXTMpW0NIMl1bQ0gyXVtDQEBdMyhbQ0gzXSlbT0hd

>  <s_glide_docking_method>  (1) 
confgen

>  <s_i_glide_gridfile>  (1) 
gpcr_5ht2c_6bqh_protein_autoprepared_prepared

>  <s_lp_Force_Field>  (1) 
S-OPLS

>  <s_lp_Variant>  (1) 
DiffSBDD_29_num_sample_50-4

>  <s_m_source_file>  (1) 
generated__ligand_DiffSBDD_2026-05-06_prepared.sdf

>  <GenAI_Model>  (1) 
DiffSBDD

>  <Protein>  (1) 
GPCR_5HT2C

$$$$
DiffSBDD_43_num_sample_50
     RDKit          3D

  0  0  0  0  0  0  0  0  0  0999 V3000
M  V30 BEGIN CTAB
M  V30 COUNTS 63 64 0 0 1
M  V30 BEGIN ATOM
M  V30 1 O 35.320363 33.429898 60.941881 0
M  V30 2 C 38.363777 25.868816 57.334680 0
M  V30 3 C 37.854382 30.143286 58.250050 0
M  V30 4 C 39.865556 33.705961 61.138885 0
M  V30 5 C 36.775866 31.807726 59.865022 0 CFG=1
M  V30 6 C 40.012344 30.508109 50.800145 0
M  V30 7 C 37.867319 26.870809 55.160539 0
M  V30 8 O 38.893869 29.118784 52.384691 0
M  V30 9 C 38.321975 26.995997 56.491161 0
M  V30 10 C 38.418207 31.371049 61.772538 0
M  V30 11 C 37.507350 24.481153 55.526364 0
M  V30 12 C 38.007123 32.184117 60.691382 0
M  V30 13 C 38.735399 33.351979 60.376633 0
M  V30 14 C 38.705886 31.603518 55.220877 0
M  V30 15 O 39.067452 31.621425 54.026402 0 CHG=-1
M  V30 16 C 39.923436 29.116437 51.427662 0 CFG=1
M  V30 17 C 36.812130 30.355716 59.343173 0
M  V30 18 C 40.273103 32.893597 62.215161 0
M  V30 19 C 37.467443 25.606276 54.680719 0
M  V30 20 C 39.560002 28.059526 50.403512 0
M  V30 21 C 37.331721 29.476737 54.746437 0
M  V30 22 O 38.760924 32.585715 55.996185 0
M  V30 23 C 39.116542 28.232523 53.464600 0
M  V30 24 C 35.469266 32.061810 60.634446 0
M  V30 25 N 37.467431 30.421345 56.998581 0
M  V30 26 C 37.955046 24.612833 56.853313 0
M  V30 27 C 38.235521 30.243199 55.769678 0 CFG=2
M  V30 28 C 41.218714 30.640383 49.870702 0
M  V30 29 C 37.812415 28.089366 54.223684 0 CFG=1
M  V30 30 O 38.977594 29.725312 58.532412 0
M  V30 31 C 39.550389 31.726229 62.530788 0
M  V30 32 H 35.317174 33.919511 60.131788 0
M  V30 33 H 38.710692 25.970131 58.352737 0
M  V30 34 H 40.419693 34.600684 60.896834 0
M  V30 35 H 36.756657 32.457340 58.987909 0
M  V30 36 H 39.096672 30.733491 50.253518 0
M  V30 37 H 40.092399 31.257909 51.587101 0
M  V30 38 H 38.638093 27.943826 56.866585 0
M  V30 39 H 37.867585 30.476310 62.019906 0
M  V30 40 H 37.195217 23.516135 55.154527 0
M  V30 41 H 38.425757 33.976565 59.551159 0
M  V30 42 H 40.894175 28.875059 51.853508 0
M  V30 43 H 36.979565 29.641648 60.146603 0
M  V30 44 H 35.843872 30.093497 58.912294 0
M  V30 45 H 41.139903 33.165491 62.798445 0
M  V30 46 H 37.121896 25.500380 53.662314 0
M  V30 47 H 40.377313 28.021376 49.710280 0
M  V30 48 H 39.421780 27.065603 50.828394 0
M  V30 49 H 38.667453 28.339198 49.853386 0
M  V30 50 H 36.295781 29.437660 55.055090 0
M  V30 51 H 37.208804 30.092448 53.857794 0
M  V30 52 H 39.867264 28.641095 54.133676 0
M  V30 53 H 39.460289 27.258270 53.113144 0
M  V30 54 H 35.424890 31.471877 61.548931 0
M  V30 55 H 34.618017 31.768954 60.019974 0
M  V30 56 H 36.573516 30.925478 56.898859 0
M  V30 57 H 37.987148 23.749409 57.501057 0
M  V30 58 H 39.164131 29.710701 55.962236 0
M  V30 59 H 41.223647 31.621384 49.419791 0
M  V30 60 H 42.156313 30.508086 50.410996 0
M  V30 61 H 41.189912 29.925825 49.053635 0
M  V30 62 H 37.067952 27.812381 53.476257 0
M  V30 63 H 39.863937 31.102302 63.356086 0
M  V30 END ATOM
M  V30 BEGIN BOND
M  V30 1 1 9 2
M  V30 2 2 9 7
M  V30 3 1 12 5
M  V30 4 1 12 10
M  V30 5 1 13 4
M  V30 6 2 13 12
M  V30 7 1 15 14
M  V30 8 1 16 6
M  V30 9 1 16 8
M  V30 10 1 17 3
M  V30 11 1 17 5
M  V30 12 2 18 4
M  V30 13 1 19 7
M  V30 14 2 19 11
M  V30 15 1 20 16
M  V30 16 2 22 14
M  V30 17 1 23 8
M  V30 18 1 24 1
M  V30 19 1 24 5
M  V30 20 1 25 3
M  V30 21 2 26 2
M  V30 22 1 26 11
M  V30 23 1 27 14
M  V30 24 1 27 21
M  V30 25 1 27 25
M  V30 26 1 28 6
M  V30 27 1 29 7
M  V30 28 1 29 21
M  V30 29 1 29 23
M  V30 30 2 30 3
M  V30 31 2 31 10
M  V30 32 1 31 18
M  V30 33 1 32 1
M  V30 34 1 33 2
M  V30 35 1 34 4
M  V30 36 1 5 35 CFG=3
M  V30 37 1 36 6
M  V30 38 1 37 6
M  V30 39 1 38 9
M  V30 40 1 39 10
M  V30 41 1 40 11
M  V30 42 1 41 13
M  V30 43 1 16 42 CFG=1
M  V30 44 1 43 17
M  V30 45 1 44 17
M  V30 46 1 45 18
M  V30 47 1 46 19
M  V30 48 1 47 20
M  V30 49 1 48 20
M  V30 50 1 49 20
M  V30 51 1 50 21
M  V30 52 1 51 21
M  V30 53 1 52 23
M  V30 54 1 53 23
M  V30 55 1 54 24
M  V30 56 1 55 24
M  V30 57 1 56 25
M  V30 58 1 57 26
M  V30 59 1 27 58 CFG=1
M  V30 60 1 59 28
M  V30 61 1 60 28
M  V30 62 1 61 28
M  V30 63 1 29 62 CFG=3
M  V30 64 1 63 31
M  V30 END BOND
M  V30 END CTAB
M  END
>  <i_epik_Tot_Q>  (1) 
-1

>  <i_epik_Tot_abs_Q>  (1) 
1

>  <i_i_glide_confnum>  (1) 
492

>  <i_i_glide_lignum>  (1) 
101

>  <i_i_glide_posenum>  (1) 
41

>  <i_i_glide_rotatable_bonds>  (1) 
15

>  <i_lp_mmshare_version>  (1) 
72125

>  <i_m_source_file_index>  (1) 
44

>  <i_f3d_flags>  (1) 
0

>  <num_sample>  (1) 
50

>  <b_lp_Chiralities_Consistent>  (1) 
1

>  <r_epik_Charging_Adjusted_Penalty>  (1) 
6.4622408798935545e-05

>  <r_epik_Ionization_Penalty>  (1) 
6.4697991859273242e-05

>  <r_epik_Ionization_Penalty_Charging>  (1) 
6.4622408798935545e-05

>  <r_epik_Ionization_Penalty_Neutral>  (1) 
7.5583060337697202e-08

>  <r_epik_State_Penalty>  (1) 
-0

>  <r_glide_ring_energy>  (1) 
0

>  <r_i_docking_score>  (1) 
-7.3095759628224037

>  <r_i_glide_ecoul>  (1) 
-4.754863635307899

>  <r_i_glide_eff_state_penalty>  (1) 
-0

>  <r_i_glide_einternal>  (1) 
16.446329736064584

>  <r_i_glide_emodel>  (1) 
-62.002634640445301

>  <r_i_glide_emodel_strain>  (1) 
2.2692923648786021

>  <r_i_glide_energy>  (1) 
-49.183807319199879

>  <r_i_glide_erotb>  (1) 
1.0908865233182055

>  <r_i_glide_esite>  (1) 
-0.15178125656541352

>  <r_i_glide_evdw>  (1) 
-44.42894368389198

>  <r_i_glide_gscore>  (1) 
-7.3095759628224037

>  <r_i_glide_gscore_strain>  (1) 
0

>  <r_i_glide_hbond>  (1) 
-0.15704151091124977

>  <r_i_glide_ligand_efficiency>  (1) 
-0.23579277299427109

>  <r_i_glide_ligand_efficiency_ln>  (1) 
-1.6485333912169369

>  <r_i_glide_ligand_efficiency_sa>  (1) 
-0.74071485505791912

>  <r_i_glide_lipo>  (1) 
-4.3876711418396361

>  <r_i_glide_metal>  (1) 
-0

>  <r_i_glide_rewards>  (1) 
-0.76929184733352618

>  <r_lp_Energy>  (1) 
36.114167000000002

>  <r_lp_tautomer_probability>  (1) 
1

>  <s_epik_cmdline>  (1) 
J2VwaWtfcHl0aG9uJywgJy1waHQnLCAnMS4wJywgJy1waCcsICc3LjQnLCAnLXRuJywgJzgnLCAnLW1hJywgJzUwMCcsICctaW1hZScsICc8aW5maWxlLm1hZT4nLCAnLW9tYWUnLCAnPG91dGZpbGUubWFlPic=

>  <s_epik_input>  (1) 
W2NIXTFbY0hdW2NIXVtjSF1bY0hdYzFbQ0BIXShbQ0gyXVtPSF0pW0NIMl1DKD1PKVtOSF1bQ0BIXShDKD1PKVtPSF0pW0NIMl1bQ0BASF0oW0NIMl1PW0NAQEhdKFtDSDNdKVtDSDJdW0NIM10pYzJbY0hdW2NIXVtjSF1bY0hdW2NIXTI=

>  <s_glide_docking_method>  (1) 
confgen

>  <s_i_glide_gridfile>  (1) 
gpcr_5ht2c_6bqh_protein_autoprepared_prepared

>  <s_lp_Force_Field>  (1) 
S-OPLS

>  <s_lp_Variant>  (1) 
DiffSBDD_43_num_sample_50-1

>  <s_m_source_file>  (1) 
generated__ligand_DiffSBDD_2026-05-06_prepared.sdf

>  <GenAI_Model>  (1) 
DiffSBDD

>  <Protein>  (1) 
GPCR_5HT2C

$$$$
DiffSBDD_25_num_sample_50
     RDKit          3D

  0  0  0  0  0  0  0  0  0  0999 V3000
M  V30 BEGIN CTAB
M  V30 COUNTS 59 60 0 0 1
M  V30 BEGIN ATOM
M  V30 1 C 38.537280 28.159084 55.650129 0 CFG=2
M  V30 2 C 39.465598 29.954000 54.076976 0
M  V30 3 C 37.690401 37.143922 60.223039 0
M  V30 4 C 38.197223 38.212104 61.201913 0
M  V30 5 C 37.865250 30.992489 59.214292 0 CFG=1
M  V30 6 C 38.931900 28.655359 54.256762 0
M  V30 7 C 38.089076 29.251065 56.649359 0
M  V30 8 C 38.784383 27.797966 53.143183 0
M  V30 9 C 36.279254 34.205096 60.379381 0
M  V30 10 C 39.741051 29.510851 51.691448 0
M  V30 11 C 37.037267 29.708276 58.993233 0 CFG=1
M  V30 12 C 39.425705 36.217660 61.641576 0
M  V30 13 N 35.648369 30.021040 58.653520 0 CHG=1
M  V30 14 C 36.955529 33.108930 59.586686 0
M  V30 15 C 39.867322 30.378024 52.794444 0
M  V30 16 C 37.641294 28.682898 58.012123 0
M  V30 17 N 39.034795 37.516906 62.202905 0 CHG=1
M  V30 18 N 37.121812 31.931115 60.037792 0
M  V30 19 C 38.288837 35.807962 60.695678 0 CFG=1
M  V30 20 C 40.923968 27.988451 56.691486 0
M  V30 21 C 37.250269 34.884091 61.362659 0
M  V30 22 C 39.191364 28.223450 51.864288 0
M  V30 23 C 39.659419 27.250747 56.218175 0
M  V30 24 Cl 40.265990 30.023677 50.131653 0
M  V30 25 O 39.068241 30.632922 59.860075 0
M  V30 26 H 37.670434 27.517139 55.488910 0
M  V30 27 H 39.578250 30.618444 54.919554 0
M  V30 28 H 38.015253 37.365774 59.205790 0
M  V30 29 H 36.600808 37.125360 60.190060 0
M  V30 30 H 38.789454 38.969453 60.685357 0
M  V30 31 H 37.364772 38.723058 61.685669 0
M  V30 32 H 38.125432 31.425172 58.246190 0
M  V30 33 H 37.279066 29.836055 56.211896 0
M  V30 34 H 38.912528 29.940760 56.824722 0
M  V30 35 H 38.370510 26.808369 53.274955 0
M  V30 36 H 35.844608 34.930201 59.693558 0
M  V30 37 H 35.446413 33.770586 60.932932 0
M  V30 38 H 36.951864 29.221327 59.955431 0
M  V30 39 H 39.633755 35.489947 62.428367 0
M  V30 40 H 40.346150 36.361120 61.071894 0
M  V30 41 H 35.595861 30.668362 57.853503 0
M  V30 42 H 35.120633 29.187294 58.449767 0
M  V30 43 H 37.301279 33.406436 58.590578 0
M  V30 44 H 40.286694 31.362921 52.658382 0
M  V30 45 H 38.498996 28.223624 58.503252 0
M  V30 46 H 36.936768 27.865583 57.853098 0
M  V30 47 H 39.846234 38.058196 62.468144 0
M  V30 48 H 38.726818 35.268386 59.857566 0
M  V30 49 H 41.697451 27.276767 56.980917 0
M  V30 50 H 41.332550 28.620815 55.903817 0
M  V30 51 H 40.731789 28.617641 57.561061 0
M  V30 52 H 36.682902 35.446636 62.105163 0
M  V30 53 H 37.777737 34.099115 61.903341 0
M  V30 54 H 39.086451 27.560440 51.017407 0
M  V30 55 H 39.274063 26.660396 57.049725 0
M  V30 56 H 39.944318 26.516230 55.464054 0
M  V30 57 H 39.130253 29.691286 59.914717 0
M  V30 58 H 38.475179 37.346377 63.027254 0
M  V30 59 H 35.241070 30.518736 59.430922 0
M  V30 END ATOM
M  V30 BEGIN BOND
M  V30 1 1 4 3
M  V30 2 1 6 1
M  V30 3 1 6 2
M  V30 4 1 7 1
M  V30 5 2 8 6
M  V30 6 1 11 5
M  V30 7 1 13 11
M  V30 8 1 14 9
M  V30 9 2 15 2
M  V30 10 1 15 10
M  V30 11 1 16 7
M  V30 12 1 16 11
M  V30 13 1 17 4
M  V30 14 1 17 12
M  V30 15 1 18 5
M  V30 16 2 18 14
M  V30 17 1 19 3
M  V30 18 1 19 12
M  V30 19 1 21 9
M  V30 20 1 21 19
M  V30 21 1 22 8
M  V30 22 2 22 10
M  V30 23 1 23 1
M  V30 24 1 23 20
M  V30 25 1 24 10
M  V30 26 1 25 5
M  V30 27 1 1 26 CFG=3
M  V30 28 1 27 2
M  V30 29 1 28 3
M  V30 30 1 29 3
M  V30 31 1 30 4
M  V30 32 1 31 4
M  V30 33 1 5 32 CFG=3
M  V30 34 1 33 7
M  V30 35 1 34 7
M  V30 36 1 35 8
M  V30 37 1 36 9
M  V30 38 1 37 9
M  V30 39 1 11 38 CFG=1
M  V30 40 1 39 12
M  V30 41 1 40 12
M  V30 42 1 41 13
M  V30 43 1 42 13
M  V30 44 1 43 14
M  V30 45 1 44 15
M  V30 46 1 45 16
M  V30 47 1 46 16
M  V30 48 1 47 17
M  V30 49 1 19 48 CFG=3
M  V30 50 1 49 20
M  V30 51 1 50 20
M  V30 52 1 51 20
M  V30 53 1 52 21
M  V30 54 1 53 21
M  V30 55 1 54 22
M  V30 56 1 55 23
M  V30 57 1 56 23
M  V30 58 1 57 25
M  V30 59 1 58 17
M  V30 60 1 59 13
M  V30 END BOND
M  V30 END CTAB
M  END
>  <i_epik_Tot_Q>  (1) 
2

>  <i_epik_Tot_abs_Q>  (1) 
2

>  <i_i_glide_confnum>  (1) 
165

>  <i_i_glide_lignum>  (1) 
66

>  <i_i_glide_posenum>  (1) 
353

>  <i_i_glide_rotatable_bonds>  (1) 
11

>  <i_lp_mmshare_version>  (1) 
72125

>  <i_m_source_file_index>  (1) 
26

>  <i_f3d_flags>  (1) 
0

>  <num_sample>  (1) 
50

>  <b_lp_Chiralities_Consistent>  (1) 
1

>  <r_epik_Charging_Adjusted_Penalty>  (1) 
0.45127827763218775

>  <r_epik_Ionization_Penalty>  (1) 
0.041210974459634293

>  <r_epik_Ionization_Penalty_Charging>  (1) 
0.040598438679583813

>  <r_epik_Ionization_Penalty_Neutral>  (1) 
0.0006125357800504809

>  <r_epik_State_Penalty>  (1) 
0.41067983895260396

>  <r_glide_ring_energy>  (1) 
0

>  <r_i_docking_score>  (1) 
-7.3081596606349839

>  <r_i_glide_ecoul>  (1) 
-7.4334877938379709

>  <r_i_glide_eff_state_penalty>  (1) 
0.41067983895260396

>  <r_i_glide_einternal>  (1) 
7.417161877741437

>  <r_i_glide_emodel>  (1) 
-65.126006376613361

>  <r_i_glide_emodel_strain>  (1) 
0.19913252125397918

>  <r_i_glide_energy>  (1) 
-42.691211952805503

>  <r_i_glide_erotb>  (1) 
0.99595821917536853

>  <r_i_glide_esite>  (1) 
-0.19771015547349338

>  <r_i_glide_evdw>  (1) 
-35.257724158967534

>  <r_i_glide_gscore>  (1) 
-7.7188394995875882

>  <r_i_glide_gscore_strain>  (1) 
0

>  <r_i_glide_hbond>  (1) 
-0.18183924793825484

>  <r_i_glide_ligand_efficiency>  (1) 
-0.29232638642539938

>  <r_i_glide_ligand_efficiency_ln>  (1) 
-1.7322528474426699

>  <r_i_glide_ligand_efficiency_sa>  (1) 
-0.8547675392555365

>  <r_i_glide_lipo>  (1) 
-3.6896472643705649

>  <r_i_glide_metal>  (1) 
-0

>  <r_i_glide_rewards>  (1) 
-1.7676916739565698

>  <r_lp_Energy>  (1) 
33.902127

>  <r_lp_tautomer_probability>  (1) 
0.49999300000000002

>  <s_epik_Chemistry_Notes>  (1) 
This compound has an imine and may undergo hydrolysis. This compound contains an acetal/aminal-like group ( X-CH(R)-Y where X, Y are N, S, or O) that may be acid/base labile, releasing an aldehyde.

>  <s_epik_cmdline>  (1) 
J2VwaWtfcHl0aG9uJywgJy1waHQnLCAnMS4wJywgJy1waCcsICc3LjQnLCAnLXRuJywgJzgnLCAnLW1hJywgJzUwMCcsICctaW1hZScsICc8aW5maWxlLm1hZT4nLCAnLW9tYWUnLCAnPG91dGZpbGUubWFlPic=

>  <s_epik_input>  (1) 
W2NIXTFbY0hdYyhDbClbY0hdW2NIXWMxW0NAQEhdKFtDSDJdW0NIM10pW0NIMl1bQ0gyXVtDQEhdKFtOSDJdKVtDQEhdKFtPSF0pXE49W0NIXVxbQ0gyXVtDSDJdW0NASF0yW0NIMl1bQ0gyXVtOSF1bQ0gyXTI=

>  <s_glide_docking_method>  (1) 
confgen

>  <s_i_glide_gridfile>  (1) 
gpcr_5ht2c_6bqh_protein_autoprepared_prepared

>  <s_lp_Force_Field>  (1) 
S-OPLS

>  <s_lp_Variant>  (1) 
DiffSBDD_25_num_sample_50-1

>  <s_m_source_file>  (1) 
generated__ligand_DiffSBDD_2026-05-06_prepared.sdf

>  <GenAI_Model>  (1) 
DiffSBDD

>  <Protein>  (1) 
GPCR_5HT2C

$$$$
DiffSBDD_10_num_sample_50
     RDKit          3D

  0  0  0  0  0  0  0  0  0  0999 V3000
M  V30 BEGIN CTAB
M  V30 COUNTS 65 67 0 0 1
M  V30 BEGIN ATOM
M  V30 1 C 39.449449 30.864534 53.982369 0
M  V30 2 C 39.563858 29.633064 53.110639 0
M  V30 3 C 37.959701 24.779242 57.277526 0
M  V30 4 N 38.176582 28.225572 54.667403 0 CFG=1 CHG=1
M  V30 5 O 36.507391 31.621444 61.682568 0 CHG=-1
M  V30 6 O 39.467178 31.353890 57.053496 0
M  V30 7 C 40.914561 31.835573 62.834197 0
M  V30 8 C 37.449628 24.711807 55.965238 0
M  V30 9 C 39.816140 34.024170 61.437989 0
M  V30 10 O 35.730970 32.623209 59.453511 0
M  V30 11 N 39.643373 30.297452 61.455339 0
M  V30 12 C 37.536218 25.830522 55.122029 0
M  V30 13 C 38.683745 33.468877 58.759931 0
M  V30 14 C 39.999715 31.605774 61.784873 0
M  V30 15 C 39.465920 28.335098 53.937049 0 CFG=1
M  V30 16 C 40.496379 26.001643 53.503322 0
M  V30 17 C 38.122499 27.008950 55.595390 0
M  V30 18 O 36.682173 34.145625 61.282762 0
M  V30 19 C 37.744193 29.487133 55.349204 0
M  V30 20 N 37.867463 31.952547 55.572733 0
M  V30 21 C 39.702985 27.176420 52.931756 0
M  V30 22 P 36.772433 32.758486 60.774690 0
M  V30 23 C 41.111939 35.660316 62.869154 0
M  V30 24 C 41.277113 33.150615 63.184245 0
M  V30 25 C 38.547754 32.092637 56.718651 0
M  V30 26 N 38.099333 33.113144 57.464625 0
M  V30 27 C 38.570304 25.966256 57.744440 0
M  V30 28 O 37.067448 25.764985 53.854569 0 CHG=-1
M  V30 29 F 37.867254 23.705154 58.087015 0
M  V30 30 C 38.656458 27.089439 56.899653 0
M  V30 31 C 39.445740 32.705914 61.076867 0
M  V30 32 C 38.079683 30.832134 54.652086 0 CFG=1
M  V30 33 C 38.444867 32.478066 59.927525 0 CFG=2
M  V30 34 C 40.726676 34.244328 62.488092 0
M  V30 35 H 39.532102 31.753764 53.360571 0
M  V30 36 H 40.272754 30.892809 54.697646 0
M  V30 37 H 38.787362 29.629239 52.343546 0
M  V30 38 H 40.511692 29.685679 52.573756 0
M  V30 39 H 41.335985 31.000394 63.374952 0
M  V30 40 H 36.994887 23.799709 55.608891 0
M  V30 41 H 39.395624 34.866913 60.911321 0
M  V30 42 H 36.113666 32.071541 58.785366 0
M  V30 43 H 39.854261 29.553832 62.106560 0
M  V30 44 H 38.829523 30.139174 60.879256 0
M  V30 45 H 38.264327 34.425257 59.049268 0
M  V30 46 H 39.754171 33.621408 58.613511 0
M  V30 47 H 40.204496 28.336505 54.743249 0
M  V30 48 H 40.667416 25.237544 52.747694 0
M  V30 49 H 41.467395 26.310399 53.852841 0
M  V30 50 H 40.001314 25.521726 54.342217 0
M  V30 51 H 38.107798 29.500448 56.365159 0
M  V30 52 H 36.667540 29.463148 55.453784 0
M  V30 53 H 37.108223 32.594002 55.370653 0
M  V30 54 H 38.775166 26.847359 52.470761 0
M  V30 55 H 40.267422 27.545670 52.077919 0
M  V30 56 H 41.649036 35.689582 63.817399 0
M  V30 57 H 41.748752 36.100847 62.102163 0
M  V30 58 H 40.219832 36.280784 62.973149 0
M  V30 59 H 41.975270 33.319430 63.991605 0
M  V30 60 H 37.322450 33.665878 57.128341 0
M  V30 61 H 38.967204 26.012672 58.747464 0
M  V30 62 H 39.123830 27.994497 57.253627 0
M  V30 63 H 37.349036 30.968597 53.856978 0
M  V30 64 H 38.513038 31.460368 59.549230 0
M  V30 65 H 37.495979 28.046906 53.940130 0
M  V30 END ATOM
M  V30 BEGIN BOND
M  V30 1 1 2 1
M  V30 2 2 8 3
M  V30 3 1 12 8
M  V30 4 1 14 7
M  V30 5 1 14 11
M  V30 6 1 15 2
M  V30 7 1 15 4
M  V30 8 1 17 4
M  V30 9 2 17 12
M  V30 10 1 19 4
M  V30 11 1 21 15
M  V30 12 1 21 16
M  V30 13 1 22 5
M  V30 14 1 22 10
M  V30 15 2 22 18
M  V30 16 2 24 7
M  V30 17 2 25 6
M  V30 18 1 25 20
M  V30 19 1 26 13
M  V30 20 1 26 25
M  V30 21 1 27 3
M  V30 22 1 28 12
M  V30 23 1 29 3
M  V30 24 1 30 17
M  V30 25 2 30 27
M  V30 26 1 31 9
M  V30 27 2 31 14
M  V30 28 1 32 1
M  V30 29 1 32 19
M  V30 30 1 32 20
M  V30 31 1 33 13
M  V30 32 1 33 22
M  V30 33 1 33 31
M  V30 34 2 34 9
M  V30 35 1 34 23
M  V30 36 1 34 24
M  V30 37 1 35 1
M  V30 38 1 36 1
M  V30 39 1 37 2
M  V30 40 1 38 2
M  V30 41 1 39 7
M  V30 42 1 40 8
M  V30 43 1 41 9
M  V30 44 1 42 10
M  V30 45 1 43 11
M  V30 46 1 44 11
M  V30 47 1 45 13
M  V30 48 1 46 13
M  V30 49 1 15 47 CFG=1
M  V30 50 1 48 16
M  V30 51 1 49 16
M  V30 52 1 50 16
M  V30 53 1 51 19
M  V30 54 1 52 19
M  V30 55 1 53 20
M  V30 56 1 54 21
M  V30 57 1 55 21
M  V30 58 1 56 23
M  V30 59 1 57 23
M  V30 60 1 58 23
M  V30 61 1 59 24
M  V30 62 1 60 26
M  V30 63 1 61 27
M  V30 64 1 62 30
M  V30 65 1 32 63 CFG=3
M  V30 66 1 33 64 CFG=3
M  V30 67 1 4 65 CFG=3
M  V30 END BOND
M  V30 END CTAB
M  END
>  <i_epik_Tot_Q>  (1) 
-1

>  <i_epik_Tot_abs_Q>  (1) 
3

>  <i_i_glide_confnum>  (1) 
73

>  <i_i_glide_lignum>  (1) 
36

>  <i_i_glide_posenum>  (1) 
59

>  <i_i_glide_rotatable_bonds>  (1) 
10

>  <i_lp_mmshare_version>  (1) 
72125

>  <i_m_source_file_index>  (1) 
11

>  <i_f3d_flags>  (1) 
0

>  <num_sample>  (1) 
50

>  <b_lp_Chiralities_Consistent>  (1) 
1

>  <r_epik_Charging_Adjusted_Penalty>  (1) 
0.95893062563682818

>  <r_epik_Ionization_Penalty>  (1) 
0.45630296270815951

>  <r_epik_Ionization_Penalty_Charging>  (1) 
0.042165092744118775

>  <r_epik_Ionization_Penalty_Neutral>  (1) 
0.41413786996404073

>  <r_epik_State_Penalty>  (1) 
0.91676553289270946

>  <r_glide_ring_energy>  (1) 
0

>  <r_i_docking_score>  (1) 
-7.290534485432774

>  <r_i_glide_ecoul>  (1) 
-9.9029254522892778

>  <r_i_glide_eff_state_penalty>  (1) 
0.91676553289270946

>  <r_i_glide_einternal>  (1) 
23.811068891834317

>  <r_i_glide_emodel>  (1) 
-53.954638810982807

>  <r_i_glide_emodel_strain>  (1) 
1.1013287962437701

>  <r_i_glide_energy>  (1) 
-44.346809672446824

>  <r_i_glide_erotb>  (1) 
0.66918926381983879

>  <r_i_glide_esite>  (1) 
-0.25424119529670347

>  <r_i_glide_evdw>  (1) 
-34.443884220157543

>  <r_i_glide_gscore>  (1) 
-8.2073000183254834

>  <r_i_glide_gscore_strain>  (1) 
0

>  <r_i_glide_hbond>  (1) 
-0.39347662938151801

>  <r_i_glide_ligand_efficiency>  (1) 
-0.21442748486566982

>  <r_i_glide_ligand_efficiency_ln>  (1) 
-1.6106835603977914

>  <r_i_glide_ligand_efficiency_sa>  (1) 
-0.69466181048907305

>  <r_i_glide_lipo>  (1) 
-3.9281151079060943

>  <r_i_glide_metal>  (1) 
-0

>  <r_i_glide_rewards>  (1) 
-1.093023320709738

>  <r_lp_Energy>  (1) 
33.820101999999999

>  <s_epik_cmdline>  (1) 
J2VwaWtfcHl0aG9uJywgJy1waHQnLCAnMS4wJywgJy1waCcsICc3LjQnLCAnLXRuJywgJzgnLCAnLW1hJywgJzUwMCcsICctaW1hZScsICc8aW5maWxlLm1hZT4nLCAnLW9tYWUnLCAnPG91dGZpbGUubWFlPic=

>  <s_epik_input>  (1) 
RmMxW2NIXWMoW09IXSljKFtjSF1bY0hdMSlOMltDQEBIXShbQ0gyXVtDSDNdKVtDSDJdW0NIMl1bQ0BASF0oW0NIMl0yKVtOSF1DKD1PKVtOSF1bQ0gyXVtDQEhdKFAoPU8pKFtPSF0pW09IXSljM1tjSF1jKFtDSDNdKVtjSF1bY0hdYzNbTkgyXQ==

>  <s_glide_docking_method>  (1) 
confgen

>  <s_i_glide_gridfile>  (1) 
gpcr_5ht2c_6bqh_protein_autoprepared_prepared

>  <s_lp_Force_Field>  (1) 
S-OPLS

>  <s_lp_Variant>  (1) 
DiffSBDD_10_num_sample_50-5

>  <s_m_source_file>  (1) 
generated__ligand_DiffSBDD_2026-05-06_prepared.sdf

>  <GenAI_Model>  (1) 
DiffSBDD

>  <Protein>  (1) 
GPCR_5HT2C

$$$$
DiffSBDD_28_num_sample_50
     RDKit          3D

  0  0  0  0  0  0  0  0  0  0999 V3000
M  V30 BEGIN CTAB
M  V30 COUNTS 93 98 0 0 1
M  V30 BEGIN ATOM
M  V30 1 C 40.367281 28.570540 51.068721 0
M  V30 2 C 37.846827 29.027769 58.899529 0
M  V30 3 O 42.028167 29.365467 66.397119 0
M  V30 4 C 40.065634 34.722574 62.255099 0 CFG=1
M  V30 5 C 38.209000 29.674713 60.245606 0 CFG=2
M  V30 6 C 39.483051 37.215563 62.628603 0
M  V30 7 C 38.442610 27.719711 54.501357 0
M  V30 8 O 41.928644 33.527988 65.984531 0
M  V30 9 C 39.105734 29.076842 50.456541 0
M  V30 10 C 41.937459 28.882343 65.071361 0 CFG=1
M  V30 11 C 39.447120 27.106675 55.310154 0
M  V30 12 N 38.642070 32.236955 59.803792 0
M  V30 13 C 43.942354 29.128838 63.968364 0
M  V30 14 C 35.491892 34.057943 59.972220 0
M  V30 15 C 43.669564 27.620691 64.046880 0
M  V30 16 C 38.211057 30.315171 58.155856 0 CFG=1
M  V30 17 C 38.199069 28.949454 55.049772 0
M  V30 18 O 37.239660 32.461699 60.042462 0
M  V30 19 O 41.706601 34.918599 66.354612 0
M  V30 20 O 40.376165 28.617662 60.678427 0
M  V30 21 C 37.799004 27.149634 53.269152 0
M  V30 22 C 40.517582 36.196892 62.123798 0
M  V30 23 C 39.284961 34.169245 61.033886 0 CFG=2
M  V30 24 C 41.292591 31.818940 64.401251 0
M  V30 25 O 41.875469 34.151661 63.726007 0
M  V30 26 N 39.044605 29.129535 56.123168 0
M  V30 27 C 39.797997 27.987364 56.289835 0
M  V30 28 C 38.803526 30.836561 59.462459 0 CFG=2
M  V30 29 C 37.806571 34.639529 60.930095 0
M  V30 30 C 41.067751 27.716290 64.707100 0
M  V30 31 C 39.112567 28.923704 61.238282 0
M  V30 32 C 37.004964 33.851751 59.861095 0 CFG=2
M  V30 33 O 37.368134 34.332034 58.591908 0
M  V30 34 O 39.067348 32.731435 56.712420 0
M  V30 35 N 42.620821 29.737299 64.100323 0
M  V30 36 C 39.041066 31.645164 56.140643 0
M  V30 37 C 39.135877 30.328582 56.934752 0 CFG=1
M  V30 38 C 42.536035 27.500849 65.027668 0 CFG=2
M  V30 39 C 39.310203 32.626745 61.023552 0
M  V30 40 C 41.302693 33.323730 64.733175 0 CFG=2
M  V30 41 C 39.108389 28.625786 51.887358 0
M  V30 42 C 42.687138 31.176535 64.349119 0
M  V30 43 O 41.213689 33.888814 62.403684 0
M  V30 44 O 38.650581 27.295732 52.135092 0
M  V30 45 H 41.155830 29.287488 51.283174 0
M  V30 46 H 40.667394 27.621468 50.653461 0
M  V30 47 H 38.466319 28.165491 58.655634 0
M  V30 48 H 36.784470 28.821400 58.784558 0
M  V30 49 H 42.680307 30.046563 66.422200 0
M  V30 50 H 39.445579 34.610486 63.138729 0
M  V30 51 H 37.287623 30.021444 60.711693 0
M  V30 52 H 39.884351 38.227358 62.596249 0
M  V30 53 H 38.573608 37.219171 62.033380 0
M  V30 54 H 39.207061 37.009844 63.663766 0
M  V30 55 H 38.667402 28.421432 49.713781 0
M  V30 56 H 39.067402 30.145511 50.253506 0
M  V30 57 H 39.880609 26.126785 55.172300 0
M  V30 58 H 44.450809 29.425764 63.053505 0
M  V30 59 H 44.570287 29.428975 64.809093 0
M  V30 60 H 34.961201 33.457493 59.231618 0
M  V30 61 H 35.117281 33.775440 60.955811 0
M  V30 62 H 35.233699 35.100528 59.794184 0
M  V30 63 H 43.357461 27.221436 63.081656 0
M  V30 64 H 44.543328 27.065127 64.384540 0
M  V30 65 H 37.274689 30.837144 57.946431 0
M  V30 66 H 37.516368 29.732364 54.750027 0
M  V30 67 H 42.375301 35.354336 65.845724 0
M  V30 68 H 40.857535 28.075487 61.286180 0
M  V30 69 H 37.578603 26.094674 53.430606 0
M  V30 70 H 36.849898 27.652445 53.078663 0
M  V30 71 H 41.419440 36.353225 62.716710 0
M  V30 72 H 40.809708 36.419394 61.096727 0
M  V30 73 H 39.805972 34.497877 60.132727 0
M  V30 74 H 40.690004 31.322466 65.161699 0
M  V30 75 H 40.772149 31.640597 63.460810 0
M  V30 76 H 40.524942 27.914152 57.086476 0
M  V30 77 H 39.867407 30.657914 59.453519 0
M  V30 78 H 37.311894 34.488098 61.881004 0
M  V30 79 H 37.746784 35.704804 60.716641 0
M  V30 80 H 40.755739 27.621949 63.669588 0
M  V30 81 H 40.333667 27.393595 65.442531 0
M  V30 82 H 39.262841 29.514960 62.142548 0
M  V30 83 H 38.667414 27.980482 61.546929 0
M  V30 84 H 36.999284 33.751121 57.939973 0
M  V30 85 H 38.955907 31.539447 55.058596 0
M  V30 86 H 40.159095 30.323086 57.306095 0
M  V30 87 H 42.774775 27.018506 65.974473 0
M  V30 88 H 40.331663 32.248677 60.989325 0
M  V30 89 H 38.819131 32.195315 61.896621 0
M  V30 90 H 40.267398 33.615147 64.860600 0
M  V30 91 H 39.054103 29.372771 52.672520 0
M  V30 92 H 43.235361 31.621483 63.523339 0
M  V30 93 H 43.250280 31.387056 65.258798 0
M  V30 END ATOM
M  V30 BEGIN BOND
M  V30 1 1 5 2
M  V30 2 1 9 1
M  V30 3 1 10 3 CFG=1
M  V30 4 1 11 7
M  V30 5 1 15 13
M  V30 6 1 16 2
M  V30 7 2 17 7
M  V30 8 1 18 12
M  V30 9 1 19 8
M  V30 10 1 21 7
M  V30 11 1 22 4
M  V30 12 1 22 6
M  V30 13 1 23 4
M  V30 14 1 26 17
M  V30 15 2 27 11
M  V30 16 1 27 26
M  V30 17 1 28 5
M  V30 18 1 28 12
M  V30 19 1 28 16
M  V30 20 1 29 23
M  V30 21 1 30 10
M  V30 22 1 31 5
M  V30 23 1 31 20
M  V30 24 1 32 14
M  V30 25 1 32 18
M  V30 26 1 32 29
M  V30 27 1 32 33 CFG=3
M  V30 28 1 35 10
M  V30 29 1 35 13
M  V30 30 2 36 34
M  V30 31 1 37 16
M  V30 32 1 37 26
M  V30 33 1 37 36
M  V30 34 1 38 10
M  V30 35 1 38 15
M  V30 36 1 38 30
M  V30 37 1 39 12
M  V30 38 1 39 23
M  V30 39 1 40 8
M  V30 40 1 40 24
M  V30 41 1 40 25
M  V30 42 1 41 1
M  V30 43 1 41 9
M  V30 44 1 42 24
M  V30 45 1 42 35
M  V30 46 1 43 4
M  V30 47 1 43 25
M  V30 48 1 44 21
M  V30 49 1 44 41
M  V30 50 1 45 1
M  V30 51 1 46 1
M  V30 52 1 47 2
M  V30 53 1 48 2
M  V30 54 1 49 3
M  V30 55 1 4 50 CFG=1
M  V30 56 1 5 51 CFG=1
M  V30 57 1 52 6
M  V30 58 1 53 6
M  V30 59 1 54 6
M  V30 60 1 55 9
M  V30 61 1 56 9
M  V30 62 1 57 11
M  V30 63 1 58 13
M  V30 64 1 59 13
M  V30 65 1 60 14
M  V30 66 1 61 14
M  V30 67 1 62 14
M  V30 68 1 63 15
M  V30 69 1 64 15
M  V30 70 1 16 65 CFG=3
M  V30 71 1 66 17
M  V30 72 1 67 19
M  V30 73 1 68 20
M  V30 74 1 69 21
M  V30 75 1 70 21
M  V30 76 1 71 22
M  V30 77 1 72 22
M  V30 78 1 23 73 CFG=3
M  V30 79 1 74 24
M  V30 80 1 75 24
M  V30 81 1 76 27
M  V30 82 1 28 77 CFG=3
M  V30 83 1 78 29
M  V30 84 1 79 29
M  V30 85 1 80 30
M  V30 86 1 81 30
M  V30 87 1 82 31
M  V30 88 1 83 31
M  V30 89 1 84 33
M  V30 90 1 85 36
M  V30 91 1 37 86 CFG=1
M  V30 92 1 38 87 CFG=1
M  V30 93 1 88 39
M  V30 94 1 89 39
M  V30 95 1 40 90 CFG=1
M  V30 96 1 91 41
M  V30 97 1 92 42
M  V30 98 1 93 42
M  V30 END BOND
M  V30 END CTAB
M  END
>  <i_epik_Tot_Q>  (1) 
0

>  <i_epik_Tot_abs_Q>  (1) 
0

>  <i_i_glide_confnum>  (1) 
1621

>  <i_i_glide_lignum>  (1) 
71

>  <i_i_glide_posenum>  (1) 
326

>  <i_i_glide_rotatable_bonds>  (1) 
21

>  <i_lp_mmshare_version>  (1) 
72125

>  <i_m_source_file_index>  (1) 
29

>  <i_f3d_flags>  (1) 
2

>  <num_sample>  (1) 
50

>  <b_lp_Chiralities_Consistent>  (1) 
0

>  <r_epik_Charging_Adjusted_Penalty>  (1) 
0.25482057645041689

>  <r_epik_Ionization_Penalty>  (1) 
0.26872052639311422

>  <r_epik_Ionization_Penalty_Charging>  (1) 
0

>  <r_epik_Ionization_Penalty_Neutral>  (1) 
0.26872052639311422

>  <r_epik_State_Penalty>  (1) 
0.25482057645041689

>  <r_glide_ring_energy>  (1) 
0

>  <r_i_docking_score>  (1) 
-7.2834785362519963

>  <r_i_glide_ecoul>  (1) 
-1.9147693048054479

>  <r_i_glide_eff_state_penalty>  (1) 
0.25482057645041689

>  <r_i_glide_einternal>  (1) 
9.3840375384357451

>  <r_i_glide_emodel>  (1) 
-75.21476254879336

>  <r_i_glide_emodel_strain>  (1) 
1.1092104235597873

>  <r_i_glide_energy>  (1) 
-55.321943132795909

>  <r_i_glide_erotb>  (1) 
0.67974203347384798

>  <r_i_glide_esite>  (1) 
-0.093467885292615183

>  <r_i_glide_evdw>  (1) 
-53.407173827990462

>  <r_i_glide_gscore>  (1) 
-7.538299112702413

>  <r_i_glide_gscore_strain>  (1) 
0

>  <r_i_glide_hbond>  (1) 
0

>  <r_i_glide_ligand_efficiency>  (1) 
-0.16553360309663628

>  <r_i_glide_ligand_efficiency_ln>  (1) 
-1.5224059022691399

>  <r_i_glide_ligand_efficiency_sa>  (1) 
-0.58439128013273522

>  <r_i_glide_lipo>  (1) 
-4.2397318065647971

>  <r_i_glide_metal>  (1) 
-0

>  <r_i_glide_rewards>  (1) 
-0.92726736719850777

>  <r_lp_Energy>  (1) 
27.722360999999999

>  <s_epik_Chemistry_Notes>  (1) 
This compound contains an acetal/aminal-like group ( X-CH(R)-Y where X, Y are N, S, or O) that may be acid/base labile, releasing an aldehyde. This compound has a N-S or N-O group and may undergo hydrolysis at high or low pH.

>  <s_epik_cmdline>  (1) 
J2VwaWtfcHl0aG9uJywgJy1waHQnLCAnMS4wJywgJy1waCcsICc3LjQnLCAnLXRuJywgJzgnLCAnLW1hJywgJzUwMCcsICctaW1hZScsICc8aW5maWxlLm1hZT4nLCAnLW9tYWUnLCAnPG91dGZpbGUubWFlPic=

>  <s_epik_input>  (1) 
W0NIMl0xW0NIMl1bQ0hdMU9bQ0gyXWMyW2NIXVtjSF1uKFtjSF0yKVtDQEBIXShbQ0hdPU8pW0NAQEhdKFtDSDJdW0NASF0zW0NIMl1bT0hdKVtDQEhdM04oT1tDQF00KFtDSDNdKVtPSF0pW0NIMl1bQ0BASF0oW0NIMl00KVtDQEhdKFtDSDJdW0NIM10pT09bQ0BIXShPW09IXSlbQ0gyXVtDSDJdTjVbQ0gyXVtDSDJdW0NASF0oW0NIMl02KVtDQEBdNTZbT0hd

>  <s_glide_docking_method>  (1) 
confgen

>  <s_i_glide_gridfile>  (1) 
gpcr_5ht2c_6bqh_protein_autoprepared_prepared

>  <s_lp_Force_Field>  (1) 
S-OPLS

>  <s_lp_Variant>  (1) 
DiffSBDD_28_num_sample_50-1

>  <s_m_source_file>  (1) 
generated__ligand_DiffSBDD_2026-05-06_prepared.sdf

>  <GenAI_Model>  (1) 
DiffSBDD

>  <Protein>  (1) 
GPCR_5HT2C

$$$$
DiffSBDD_6_num_sample_50
     RDKit          3D

  0  0  0  0  0  0  0  0  0  0999 V3000
M  V30 BEGIN CTAB
M  V30 COUNTS 65 68 0 0 1
M  V30 BEGIN ATOM
M  V30 1 N 40.049247 32.477764 61.535279 0
M  V30 2 N 36.556669 30.875789 59.379228 0 CHG=1
M  V30 3 C 35.797109 30.021448 58.653494 0
M  V30 4 C 39.525168 36.183589 62.292473 0
M  V30 5 C 39.777806 29.619119 52.298495 0
M  V30 6 N 38.769194 28.168783 59.026703 0
M  V30 7 N 36.556587 28.938390 58.405613 0
M  V30 8 N 40.654492 29.168075 57.971212 0
M  V30 9 C 38.045178 33.235554 60.377302 0
M  V30 10 C 37.935528 27.552591 52.802624 0
M  V30 11 N 38.848867 30.881396 60.252478 0
M  V30 12 O 39.578545 30.305226 54.602710 0
M  V30 13 C 38.616421 25.978086 58.189685 0
M  V30 14 C 36.836993 24.423325 56.019158 0
M  V30 15 F 37.064263 26.553786 53.053303 0
M  V30 16 C 37.746052 29.104161 59.014928 0
M  V30 17 C 39.198263 29.478715 53.579966 0
M  V30 18 C 41.370813 33.955510 62.943514 0
M  V30 19 C 38.219007 25.054133 55.808360 0
M  V30 20 F 40.666745 30.607092 52.062371 0
M  V30 21 C 39.442834 28.715249 51.273310 0
M  V30 22 C 40.042417 30.004822 60.317876 0
M  V30 23 C 40.189570 33.732426 62.026031 0
M  V30 24 C 38.528939 27.674388 51.527952 0
M  V30 25 C 38.220326 34.533564 60.877459 0
M  V30 26 C 39.098491 25.057188 57.064492 0
M  V30 27 C 40.061228 28.817838 59.256172 0 CFG=1
M  V30 28 C 39.306782 34.790479 61.720683 0
M  V30 29 O 38.786543 27.342091 57.849023 0
M  V30 30 F 37.684157 28.338309 55.040399 0
M  V30 31 C 39.863303 29.964589 57.009332 0
M  V30 32 C 38.260282 28.457470 53.818996 0
M  V30 33 C 37.764830 30.307998 59.578298 0
M  V30 34 C 40.267079 29.549194 55.605175 0
M  V30 35 C 38.982066 32.221865 60.735753 0
M  V30 36 H 34.790101 30.191672 58.311206 0
M  V30 37 H 36.271568 28.128230 57.872574 0
M  V30 38 H 38.724182 36.860155 61.995118 0
M  V30 39 H 40.462543 36.607697 61.931085 0
M  V30 40 H 39.549379 36.158716 63.382143 0
M  V30 41 H 40.831290 28.280992 57.518930 0
M  V30 42 H 37.224180 33.038028 59.725742 0
M  V30 43 H 39.229188 25.742780 59.053837 0
M  V30 44 H 37.575628 25.783210 58.438305 0
M  V30 45 H 36.324690 24.295103 55.065844 0
M  V30 46 H 36.202728 25.044073 56.651094 0
M  V30 47 H 36.912106 23.441983 56.484631 0
M  V30 48 H 41.868084 34.886500 62.684498 0
M  V30 49 H 42.092361 33.141486 62.868962 0
M  V30 50 H 41.035990 34.026035 63.978272 0
M  V30 51 H 38.742480 24.507054 55.022765 0
M  V30 52 H 38.103484 26.071222 55.446181 0
M  V30 53 H 39.894265 28.813212 50.296210 0
M  V30 54 H 40.029773 29.565447 61.317168 0
M  V30 55 H 40.977209 30.558954 60.254307 0
M  V30 56 H 38.277688 26.972697 50.746756 0
M  V30 57 H 37.524662 35.319008 60.617998 0
M  V30 58 H 39.176395 24.040275 57.450593 0
M  V30 59 H 40.113008 25.350967 56.795557 0
M  V30 60 H 40.729745 28.060995 59.667685 0
M  V30 61 H 38.806808 29.743595 57.016608 0
M  V30 62 H 39.911100 31.039774 57.161453 0
M  V30 63 H 40.081245 28.475191 55.543978 0
M  V30 64 H 41.332964 29.621471 55.453503 0
M  V30 65 H 36.268230 31.790993 59.695349 0
M  V30 END ATOM
M  V30 BEGIN BOND
M  V30 1 2 3 2
M  V30 2 1 7 3
M  V30 3 1 15 10
M  V30 4 1 16 6
M  V30 5 1 16 7
M  V30 6 2 17 5
M  V30 7 1 17 12
M  V30 8 1 19 14
M  V30 9 1 20 5
M  V30 10 1 21 5
M  V30 11 1 22 11
M  V30 12 1 23 1
M  V30 13 1 23 18
M  V30 14 1 24 10
M  V30 15 2 24 21
M  V30 16 2 25 9
M  V30 17 1 26 13
M  V30 18 1 26 19
M  V30 19 1 27 6
M  V30 20 1 27 8
M  V30 21 1 27 22
M  V30 22 1 28 4
M  V30 23 2 28 23
M  V30 24 1 28 25
M  V30 25 1 29 6
M  V30 26 1 29 13
M  V30 27 1 31 8
M  V30 28 2 32 10
M  V30 29 1 32 17
M  V30 30 1 32 30
M  V30 31 1 33 2
M  V30 32 1 33 11
M  V30 33 2 33 16
M  V30 34 1 34 12
M  V30 35 1 34 31
M  V30 36 2 35 1
M  V30 37 1 35 9
M  V30 38 1 35 11
M  V30 39 1 36 3
M  V30 40 1 37 7
M  V30 41 1 38 4
M  V30 42 1 39 4
M  V30 43 1 40 4
M  V30 44 1 41 8
M  V30 45 1 42 9
M  V30 46 1 43 13
M  V30 47 1 44 13
M  V30 48 1 45 14
M  V30 49 1 46 14
M  V30 50 1 47 14
M  V30 51 1 48 18
M  V30 52 1 49 18
M  V30 53 1 50 18
M  V30 54 1 51 19
M  V30 55 1 52 19
M  V30 56 1 53 21
M  V30 57 1 54 22
M  V30 58 1 55 22
M  V30 59 1 56 24
M  V30 60 1 57 25
M  V30 61 1 58 26
M  V30 62 1 59 26
M  V30 63 1 27 60 CFG=1
M  V30 64 1 61 31
M  V30 65 1 62 31
M  V30 66 1 63 34
M  V30 67 1 64 34
M  V30 68 1 65 2
M  V30 END BOND
M  V30 END CTAB
M  END
>  <i_epik_Tot_Q>  (1) 
1

>  <i_epik_Tot_abs_Q>  (1) 
1

>  <i_i_glide_confnum>  (1) 
902

>  <i_i_glide_lignum>  (1) 
20

>  <i_i_glide_posenum>  (1) 
307

>  <i_i_glide_rotatable_bonds>  (1) 
10

>  <i_lp_mmshare_version>  (1) 
72125

>  <i_m_source_file_index>  (1) 
7

>  <i_f3d_flags>  (1) 
0

>  <num_sample>  (1) 
50

>  <b_lp_Chiralities_Consistent>  (1) 
1

>  <r_epik_Charging_Adjusted_Penalty>  (1) 
0.17211517054128123

>  <r_epik_Ionization_Penalty>  (1) 
0.10319272176977491

>  <r_epik_Ionization_Penalty_Charging>  (1) 
0

>  <r_epik_Ionization_Penalty_Neutral>  (1) 
0.10319272176977491

>  <r_epik_State_Penalty>  (1) 
0.17211517054128123

>  <r_glide_ring_energy>  (1) 
0

>  <r_i_docking_score>  (1) 
-7.2770924239571819

>  <r_i_glide_ecoul>  (1) 
-2.0486233605055326

>  <r_i_glide_eff_state_penalty>  (1) 
0.17211517054128123

>  <r_i_glide_einternal>  (1) 
7.6209765572713035

>  <r_i_glide_emodel>  (1) 
-52.059884474433616

>  <r_i_glide_emodel_strain>  (1) 
1.4227852775826904

>  <r_i_glide_energy>  (1) 
-32.804497309977222

>  <r_i_glide_erotb>  (1) 
0.67408029721787976

>  <r_i_glide_esite>  (1) 
-0.23036753124425655

>  <r_i_glide_evdw>  (1) 
-30.755873949471692

>  <r_i_glide_gscore>  (1) 
-7.4492075944984633

>  <r_i_glide_gscore_strain>  (1) 
0

>  <r_i_glide_hbond>  (1) 
0

>  <r_i_glide_ligand_efficiency>  (1) 
-0.20791692639877662

>  <r_i_glide_ligand_efficiency_ln>  (1) 
-1.5974832934232186

>  <r_i_glide_ligand_efficiency_sa>  (1) 
-0.68011005326099894

>  <r_i_glide_lipo>  (1) 
-4.4469111247190884

>  <r_i_glide_metal>  (1) 
-0

>  <r_i_glide_rewards>  (1) 
-1.600922034203583

>  <r_lp_Energy>  (1) 
50.162378999999994

>  <r_lp_tautomer_probability>  (1) 
0.70072779002327656

>  <s_epik_Chemistry_Notes>  (1) 
This compound contains an acetal/aminal-like group ( X-CH(R)-Y where X, Y are N, S, or O) that may be acid/base labile, releasing an aldehyde. This compound has a N-S or N-O group and may undergo hydrolysis at high or low pH.

>  <s_epik_cmdline>  (1) 
J2VwaWtfcHl0aG9uJywgJy1waHQnLCAnMS4wJywgJy1waCcsICc3LjQnLCAnLXRuJywgJzgnLCAnLW1hJywgJzUwMCcsICctaW1hZScsICc8aW5maWxlLm1hZT4nLCAnLW9tYWUnLCAnPG91dGZpbGUubWFlPic=

>  <s_epik_input>  (1) 
W0NIM11jMVtjSF1bY0hdYyhuYzFbQ0gzXSlOKEMoQzIzKT1OW0NIMl1OPTMpW0NIMl1bQ0BASF0oTjJPW0NIMl1bQ0gyXVtDSDJdW0NIM10pW05IXVtDSDJdW0NIMl1PYyhjNEYpYyhGKWMoRilbY0hdW2NIXTQ=

>  <s_glide_docking_method>  (1) 
confgen

>  <s_i_glide_gridfile>  (1) 
gpcr_5ht2c_6bqh_protein_autoprepared_prepared

>  <s_lp_Force_Field>  (1) 
S-OPLS

>  <s_lp_Variant>  (1) 
DiffSBDD_6_num_sample_50-1

>  <s_m_source_file>  (1) 
generated__ligand_DiffSBDD_2026-05-06_prepared.sdf

>  <GenAI_Model>  (1) 
DiffSBDD

>  <Protein>  (1) 
GPCR_5HT2C

$$$$
DiffSBDD_13_num_sample_50
     RDKit          3D

  0  0  0  0  0  0  0  0  0  0999 V3000
M  V30 BEGIN CTAB
M  V30 COUNTS 68 71 0 0 1
M  V30 BEGIN ATOM
M  V30 1 C 39.300734 30.640079 60.703397 0
M  V30 2 C 39.708726 29.863716 50.959851 0
M  V30 3 N 38.845238 36.561338 61.657891 0
M  V30 4 C 39.268282 28.956879 53.586355 0
M  V30 5 C 37.318689 37.623271 60.518443 0
M  V30 6 N 37.867406 28.693744 55.701043 0 CFG=2 CHG=1
M  V30 7 F 41.322551 30.421438 49.453505 0
M  V30 8 C 38.238269 34.212493 61.185866 0
M  V30 9 C 38.014688 26.578346 56.818265 0 CFG=1
M  V30 10 C 35.699234 31.774461 60.469862 0
M  V30 11 C 37.866718 28.080492 57.057433 0
M  V30 12 C 38.023660 35.726102 61.005371 0
M  V30 13 C 38.121985 31.170861 59.858446 0 CFG=1
M  V30 14 N 39.145265 36.277692 63.003593 0
M  V30 15 N 39.374308 26.352622 56.381902 0
M  V30 16 O 39.133797 33.733843 61.886352 0
M  V30 17 O 40.007595 29.621438 60.021128 0
M  V30 18 C 39.152451 28.417920 55.009377 0 CFG=1
M  V30 19 C 38.358104 31.478083 57.390804 0
M  V30 20 C 39.997700 30.330125 49.562130 0
M  V30 21 C 39.867402 30.211963 53.362003 0
M  V30 22 C 37.933147 25.579029 57.935319 0
M  V30 23 C 40.087783 30.661440 52.052034 0
M  V30 24 C 37.277935 30.056101 55.648881 0
M  V30 25 N 37.095193 36.157661 60.255472 0
M  V30 26 C 38.515225 24.377408 57.199521 0
M  V30 27 C 38.846598 28.173286 52.484322 0
M  V30 28 C 39.071888 28.627326 51.175020 0
M  V30 29 O 38.444200 37.866533 61.453539 0
M  V30 30 C 38.169918 31.193253 56.122726 0
M  V30 31 C 37.184224 32.072432 60.715558 0 CFG=1
M  V30 32 O 37.342312 33.472102 60.494698 0
M  V30 33 C 39.478309 26.884380 55.033511 0
M  V30 34 C 38.640903 31.876330 58.610327 0
M  V30 35 O 39.468543 24.912288 56.283670 0
M  V30 36 H 38.945844 30.226242 61.648453 0
M  V30 37 H 39.995120 31.443474 60.950188 0
M  V30 38 H 37.528989 38.135682 59.578957 0
M  V30 39 H 36.411943 38.073111 60.926380 0
M  V30 40 H 37.301069 26.261908 56.052300 0
M  V30 41 H 35.467802 30.728285 60.659843 0
M  V30 42 H 35.067338 32.375189 61.123709 0
M  V30 43 H 35.415815 31.997580 59.441229 0
M  V30 44 H 38.676050 28.478829 57.672207 0
M  V30 45 H 36.940932 28.287002 57.592024 0
M  V30 46 H 37.546205 30.296418 59.547248 0
M  V30 47 H 39.430167 35.301025 63.074136 0
M  V30 48 H 39.924978 36.862674 63.298856 0
M  V30 49 H 39.506909 28.821584 60.066695 0
M  V30 50 H 39.931111 28.915769 55.591443 0
M  V30 51 H 39.650478 29.621465 48.810445 0
M  V30 52 H 39.559415 31.311861 49.378413 0
M  V30 53 H 40.198204 30.812060 54.195744 0
M  V30 54 H 38.546649 25.871518 58.789439 0
M  V30 55 H 36.907845 25.399550 58.253502 0
M  V30 56 H 40.572005 31.612214 51.882473 0
M  V30 57 H 36.354983 30.021435 56.227818 0
M  V30 58 H 36.968807 30.278930 54.626878 0
M  V30 59 H 37.734124 23.879378 56.623412 0
M  V30 60 H 38.965664 23.634417 57.853500 0
M  V30 61 H 38.381443 27.213530 52.639515 0
M  V30 62 H 38.773561 28.018269 50.333577 0
M  V30 63 H 38.647862 31.777906 55.352495 0
M  V30 64 H 37.364167 31.865817 61.771384 0
M  V30 65 H 40.486474 26.701417 54.660905 0
M  V30 66 H 38.799592 26.309368 54.405462 0
M  V30 67 H 39.269613 32.739400 58.775852 0
M  V30 68 H 37.197198 28.146268 55.181747 0
M  V30 END ATOM
M  V30 BEGIN BOND
M  V30 1 1 11 6
M  V30 2 1 11 9
M  V30 3 1 12 3
M  V30 4 1 12 8
M  V30 5 1 13 1
M  V30 6 1 14 3
M  V30 7 1 15 9
M  V30 8 2 16 8
M  V30 9 1 17 1
M  V30 10 1 18 4
M  V30 11 1 18 6
M  V30 12 1 20 2
M  V30 13 1 20 7
M  V30 14 1 21 4
M  V30 15 1 22 9
M  V30 16 1 23 2
M  V30 17 2 23 21
M  V30 18 1 24 6
M  V30 19 1 25 5
M  V30 20 2 25 12
M  V30 21 1 26 22
M  V30 22 2 27 4
M  V30 23 2 28 2
M  V30 24 1 28 27
M  V30 25 1 29 3
M  V30 26 1 29 5
M  V30 27 2 30 19
M  V30 28 1 30 24
M  V30 29 1 31 10
M  V30 30 1 31 13
M  V30 31 1 32 8
M  V30 32 1 32 31
M  V30 33 1 33 15
M  V30 34 1 33 18
M  V30 35 1 34 13
M  V30 36 2 34 19
M  V30 37 1 35 15
M  V30 38 1 35 26
M  V30 39 1 36 1
M  V30 40 1 37 1
M  V30 41 1 38 5
M  V30 42 1 39 5
M  V30 43 1 9 40 CFG=3
M  V30 44 1 41 10
M  V30 45 1 42 10
M  V30 46 1 43 10
M  V30 47 1 44 11
M  V30 48 1 45 11
M  V30 49 1 13 46 CFG=3
M  V30 50 1 47 14
M  V30 51 1 48 14
M  V30 52 1 49 17
M  V30 53 1 18 50 CFG=1
M  V30 54 1 51 20
M  V30 55 1 52 20
M  V30 56 1 53 21
M  V30 57 1 54 22
M  V30 58 1 55 22
M  V30 59 1 56 23
M  V30 60 1 57 24
M  V30 61 1 58 24
M  V30 62 1 59 26
M  V30 63 1 60 26
M  V30 64 1 61 27
M  V30 65 1 62 28
M  V30 66 1 63 30
M  V30 67 1 31 64 CFG=1
M  V30 68 1 65 33
M  V30 69 1 66 33
M  V30 70 1 67 34
M  V30 71 1 6 68 CFG=3
M  V30 END BOND
M  V30 END CTAB
M  END
>  <i_epik_Tot_Q>  (1) 
1

>  <i_epik_Tot_abs_Q>  (1) 
1

>  <i_i_glide_confnum>  (1) 
290

>  <i_i_glide_lignum>  (1) 
44

>  <i_i_glide_posenum>  (1) 
48

>  <i_i_glide_rotatable_bonds>  (1) 
11

>  <i_lp_mmshare_version>  (1) 
72125

>  <i_m_source_file_index>  (1) 
14

>  <i_f3d_flags>  (1) 
0

>  <num_sample>  (1) 
50

>  <b_lp_Chiralities_Consistent>  (1) 
1

>  <r_epik_Charging_Adjusted_Penalty>  (1) 
1.4651263053542571

>  <r_epik_Ionization_Penalty>  (1) 
0.72306607658712641

>  <r_epik_Ionization_Penalty_Charging>  (1) 
0.72300917426663169

>  <r_epik_Ionization_Penalty_Neutral>  (1) 
5.6902320494737884e-05

>  <r_epik_State_Penalty>  (1) 
0.74211713108762534

>  <r_glide_ring_energy>  (1) 
0

>  <r_i_docking_score>  (1) 
-7.2729624516975919

>  <r_i_glide_ecoul>  (1) 
-2.1149898655656592

>  <r_i_glide_eff_state_penalty>  (1) 
0.74211713108762534

>  <r_i_glide_einternal>  (1) 
10.804952637761232

>  <r_i_glide_emodel>  (1) 
-65.104033621605979

>  <r_i_glide_emodel_strain>  (1) 
1.4255294371387066

>  <r_i_glide_energy>  (1) 
-49.150530034147415

>  <r_i_glide_erotb>  (1) 
0.76112016271400151

>  <r_i_glide_esite>  (1) 
-0.00017416093644544617

>  <r_i_glide_evdw>  (1) 
-47.035540168581754

>  <r_i_glide_gscore>  (1) 
-8.0150795827852175

>  <r_i_glide_gscore_strain>  (1) 
0

>  <r_i_glide_hbond>  (1) 
0

>  <r_i_glide_ligand_efficiency>  (1) 
-0.20779892719135976

>  <r_i_glide_ligand_efficiency_ln>  (1) 
-1.5965766728524426

>  <r_i_glide_ligand_efficiency_sa>  (1) 
-0.67972407002898871

>  <r_i_glide_lipo>  (1) 
-3.5295381049256562

>  <r_i_glide_metal>  (1) 
-0

>  <r_i_glide_rewards>  (1) 
-2.57746199137318

>  <r_lp_Energy>  (1) 
-5.3362069999999999

>  <s_epik_Chemistry_Notes>  (1) 
This compound has an ester and may undergo hydrolysis at high or low pH. This compound has an imine and may undergo hydrolysis. This compound contains an acetal/aminal-like group ( X-CH(R)-Y where X, Y are N, S, or O) that may be acid/base labile, releasing an aldehyde. This compound has a N-S or N-O group and may undergo hydrolysis at high or low pH.

>  <s_epik_cmdline>  (1) 
J2VwaWtfcHl0aG9uJywgJy1waHQnLCAnMS4wJywgJy1waCcsICc3LjQnLCAnLXRuJywgJzgnLCAnLW1hJywgJzUwMCcsICctaW1hZScsICc8aW5maWxlLm1hZT4nLCAnLW9tYWUnLCAnPG91dGZpbGUubWFlPic=

>  <s_epik_input>  (1) 
TzFbQ0gyXU49QyhOMVtOSDJdKUMoPU8pT1tDQEBIXShbQ0gzXSlbQ0BIXShbQ0gyXVtPSF0pW0NIXT1DPVtDSF1bQ0gyXU4oW0NIMl0yKVtDQEhdKGMoW2NIXVtjSF0zKVtjSF1bY0hdYzNbQ0gyXUYpW0NIMl1OKFtDQEhdMjQpT1tDSDJdW0NIMl00

>  <s_glide_docking_method>  (1) 
confgen

>  <s_i_glide_gridfile>  (1) 
gpcr_5ht2c_6bqh_protein_autoprepared_prepared

>  <s_lp_Force_Field>  (1) 
S-OPLS

>  <s_lp_Variant>  (1) 
DiffSBDD_13_num_sample_50-3

>  <s_m_source_file>  (1) 
generated__ligand_DiffSBDD_2026-05-06_prepared.sdf

>  <GenAI_Model>  (1) 
DiffSBDD

>  <Protein>  (1) 
GPCR_5HT2C

$$$$
DiffSBDD_27_num_sample_50
     RDKit          3D

  0  0  0  0  0  0  0  0  0  0999 V3000
M  V30 BEGIN CTAB
M  V30 COUNTS 64 66 0 0 1
M  V30 BEGIN ATOM
M  V30 1 C 38.483637 30.575213 59.543857 0
M  V30 2 C 38.983683 34.119370 61.894765 0
M  V30 3 C 39.468054 28.887298 61.853370 0
M  V30 4 C 38.629380 35.426061 61.520498 0
M  V30 5 O 41.868118 30.042725 63.108741 0
M  V30 6 C 37.193588 33.217851 60.525899 0
M  V30 7 N 37.793407 38.017620 60.832831 0
M  V30 8 C 38.355506 28.901990 57.681976 0 CFG=1
M  V30 9 C 39.138738 28.134925 51.233848 0
M  V30 10 C 39.208665 30.123125 54.389482 0
M  V30 11 C 36.828044 34.519820 60.134112 0
M  V30 12 C 40.167679 30.695398 52.178516 0
M  V30 13 C 37.542566 35.633927 60.636081 0
M  V30 14 C 37.467352 26.797801 54.047699 0
M  V30 15 O 38.587178 31.762693 61.750184 0
M  V30 16 C 37.928351 29.779540 56.484131 0
M  V30 17 C 36.435633 32.018549 60.021797 0
M  V30 18 N 37.201968 30.990563 59.279946 0 CHG=1
M  V30 19 C 40.845195 29.902839 51.051873 0
M  V30 20 C 39.274388 29.860966 53.098684 0
M  V30 21 O 36.267425 37.207033 59.391536 0
M  V30 22 C 37.141808 37.023965 60.226494 0
M  V30 23 C 38.254043 33.023834 61.398306 0
M  V30 24 C 39.024971 30.418979 55.656021 0
M  V30 25 C 39.817002 29.094263 50.273500 0
M  V30 26 O 38.302388 26.535478 57.123075 0
M  V30 27 C 41.067397 30.728015 62.479567 0
M  V30 28 C 39.161967 27.645478 57.282448 0
M  V30 29 C 39.312024 31.173544 60.689814 0 CFG=1
M  V30 30 O 39.177139 26.920708 51.053326 0
M  V30 31 C 38.403807 28.755872 52.435475 0 CFG=2
M  V30 32 C 37.876876 27.705236 53.341662 0
M  V30 33 N 39.049240 29.614408 58.772846 0
M  V30 34 C 40.234040 30.115179 61.344787 0 CFG=2
M  V30 35 H 39.811623 33.956617 62.568068 0
M  V30 36 H 40.102423 28.208073 62.424505 0
M  V30 37 H 38.667433 29.221488 62.504425 0
M  V30 38 H 39.032536 28.305628 61.044272 0
M  V30 39 H 39.189727 36.261953 61.910212 0
M  V30 40 H 37.565243 38.974002 60.606397 0
M  V30 41 H 38.503645 37.812076 61.515745 0
M  V30 42 H 37.435428 28.545151 58.146546 0
M  V30 43 H 35.997088 34.667767 59.457329 0
M  V30 44 H 40.913227 31.221442 52.770838 0
M  V30 45 H 39.547480 31.472689 51.731347 0
M  V30 46 H 37.122446 26.002320 54.669941 0
M  V30 47 H 37.290274 30.597096 56.803572 0
M  V30 48 H 37.287159 29.190625 55.831570 0
M  V30 49 H 35.617273 32.352694 59.382756 0
M  V30 50 H 35.966803 31.533006 60.877459 0
M  V30 51 H 41.588731 29.218242 51.453508 0
M  V30 52 H 41.375796 30.581959 50.383240 0
M  V30 53 H 39.647283 31.147555 56.155113 0
M  V30 54 H 40.267437 28.541850 49.453429 0
M  V30 55 H 39.067579 29.759741 49.853505 0
M  V30 56 H 37.949946 26.288079 57.964627 0
M  V30 57 H 40.899943 31.787224 62.673208 0
M  V30 58 H 39.702966 27.803282 56.349256 0
M  V30 59 H 39.910556 27.385561 58.032067 0
M  V30 60 H 39.974692 31.922919 60.253502 0
M  V30 61 H 37.516493 29.221424 52.015727 0
M  V30 62 H 40.003089 29.341191 58.963007 0
M  V30 63 H 40.952957 29.772372 60.601065 0
M  V30 64 H 36.724693 30.578962 58.487766 0
M  V30 END ATOM
M  V30 BEGIN BOND
M  V30 1 2 4 2
M  V30 2 1 11 6
M  V30 3 1 13 4
M  V30 4 2 13 11
M  V30 5 1 16 8
M  V30 6 1 17 6
M  V30 7 2 18 1
M  V30 8 1 18 17
M  V30 9 1 19 12
M  V30 10 2 20 10
M  V30 11 1 20 12
M  V30 12 1 22 7
M  V30 13 1 22 13
M  V30 14 2 22 21
M  V30 15 1 23 2
M  V30 16 2 23 6
M  V30 17 1 23 15
M  V30 18 2 24 10
M  V30 19 1 24 16
M  V30 20 1 25 9
M  V30 21 1 25 19
M  V30 22 2 27 5
M  V30 23 1 28 8
M  V30 24 1 28 26
M  V30 25 1 29 1
M  V30 26 1 29 15
M  V30 27 2 30 9
M  V30 28 1 31 9
M  V30 29 1 31 20
M  V30 30 3 32 14
M  V30 31 1 32 31
M  V30 32 1 33 1
M  V30 33 1 33 8
M  V30 34 1 34 3
M  V30 35 1 34 27
M  V30 36 1 34 29
M  V30 37 1 35 2
M  V30 38 1 36 3
M  V30 39 1 37 3
M  V30 40 1 38 3
M  V30 41 1 39 4
M  V30 42 1 40 7
M  V30 43 1 41 7
M  V30 44 1 8 42 CFG=1
M  V30 45 1 43 11
M  V30 46 1 44 12
M  V30 47 1 45 12
M  V30 48 1 46 14
M  V30 49 1 47 16
M  V30 50 1 48 16
M  V30 51 1 49 17
M  V30 52 1 50 17
M  V30 53 1 51 19
M  V30 54 1 52 19
M  V30 55 1 53 24
M  V30 56 1 54 25
M  V30 57 1 55 25
M  V30 58 1 56 26
M  V30 59 1 57 27
M  V30 60 1 58 28
M  V30 61 1 59 28
M  V30 62 1 29 60 CFG=3
M  V30 63 1 31 61 CFG=3
M  V30 64 1 62 33
M  V30 65 1 34 63 CFG=3
M  V30 66 1 64 18
M  V30 END BOND
M  V30 END CTAB
M  END
>  <i_epik_Tot_Q>  (1) 
1

>  <i_epik_Tot_abs_Q>  (1) 
1

>  <i_i_glide_confnum>  (1) 
406

>  <i_i_glide_lignum>  (1) 
70

>  <i_i_glide_posenum>  (1) 
27

>  <i_i_glide_rotatable_bonds>  (1) 
10

>  <i_lp_mmshare_version>  (1) 
72125

>  <i_m_source_file_index>  (1) 
28

>  <i_f3d_flags>  (1) 
0

>  <num_sample>  (1) 
50

>  <b_lp_Chiralities_Consistent>  (1) 
1

>  <r_epik_Charging_Adjusted_Penalty>  (1) 
0.046741104871076994

>  <r_epik_Ionization_Penalty>  (1) 
0.019812372092419556

>  <r_epik_Ionization_Penalty_Charging>  (1) 
0.019701646860550703

>  <r_epik_Ionization_Penalty_Neutral>  (1) 
0.00011072523186885321

>  <r_epik_State_Penalty>  (1) 
0.027039458010526287

>  <r_glide_ring_energy>  (1) 
1.2406265048131788

>  <r_i_docking_score>  (1) 
-7.2635726496700288

>  <r_i_glide_ecoul>  (1) 
-0.73013483334634044

>  <r_i_glide_eff_state_penalty>  (1) 
0.027039458010526287

>  <r_i_glide_einternal>  (1) 
20.978832570734024

>  <r_i_glide_emodel>  (1) 
-52.570274515987428

>  <r_i_glide_emodel_strain>  (1) 
2.7398349802833835

>  <r_i_glide_energy>  (1) 
-44.724437360865586

>  <r_i_glide_erotb>  (1) 
0.65393697564197784

>  <r_i_glide_esite>  (1) 
-0.10019600762083941

>  <r_i_glide_evdw>  (1) 
-43.994302527519245

>  <r_i_glide_gscore>  (1) 
-7.2906121076805555

>  <r_i_glide_gscore_strain>  (1) 
0

>  <r_i_glide_hbond>  (1) 
-0.23101046252733404

>  <r_i_glide_ligand_efficiency>  (1) 
-0.21363448969617732

>  <r_i_glide_ligand_efficiency_ln>  (1) 
-1.6047269346239239

>  <r_i_glide_ligand_efficiency_sa>  (1) 
-0.69209281397962907

>  <r_i_glide_lipo>  (1) 
-3.3835892767869646

>  <r_i_glide_metal>  (1) 
-0

>  <r_i_glide_rewards>  (1) 
-1.9205179850094822

>  <r_lp_Energy>  (1) 
12.568142999999999

>  <r_lp_tautomer_probability>  (1) 
0.99985000999950013

>  <s_epik_Chemistry_Notes>  (1) 
This compound has an imine and may undergo hydrolysis.

>  <s_epik_cmdline>  (1) 
J2VwaWtfcHl0aG9uJywgJy1waHQnLCAnMS4wJywgJy1waCcsICc3LjQnLCAnLXRuJywgJzgnLCAnLW1hJywgJzUwMCcsICctaW1hZScsICc8aW5maWxlLm1hZT4nLCAnLW9tYWUnLCAnPG91dGZpbGUubWFlPic=

>  <s_epik_input>  (1) 
W05IMl1DKD1PKWMoW2NIXTEpW2NIXVtjSF1jKGMxMilPW0NAQEhdKFtDQEhdKFtDSDNdKVtDSF09TylDKD1OW0NIMl0yKVtOSF1bQ0BIXShbQ0gyXVtPSF0pW0NIMl1bQ0hdPUM9QyhbQ0BASF0zQyNbQ0hdKVtDSDJdW0NIMl1bQ0gyXUMzPU8=

>  <s_glide_docking_method>  (1) 
confgen

>  <s_i_glide_gridfile>  (1) 
gpcr_5ht2c_6bqh_protein_autoprepared_prepared

>  <s_lp_Force_Field>  (1) 
S-OPLS

>  <s_lp_Variant>  (1) 
DiffSBDD_27_num_sample_50-1

>  <s_m_source_file>  (1) 
generated__ligand_DiffSBDD_2026-05-06_prepared.sdf

>  <GenAI_Model>  (1) 
DiffSBDD

>  <Protein>  (1) 
GPCR_5HT2C

$$$$
DiffSBDD_20_num_sample_50
     RDKit          3D

  0  0  0  0  0  0  0  0  0  0999 V3000
M  V30 BEGIN CTAB
M  V30 COUNTS 77 81 0 0 1
M  V30 BEGIN ATOM
M  V30 1 C 39.522855 31.478773 61.777771 0
M  V30 2 C 40.658708 33.071190 63.236533 0
M  V30 3 C 38.296928 30.948541 59.103509 0 CFG=2
M  V30 4 C 40.155543 27.129746 55.490143 0
M  V30 5 C 39.997444 34.139495 62.601797 0
M  V30 6 C 38.676704 31.513361 55.220274 0
M  V30 7 C 38.667523 36.296341 61.361425 0
M  V30 8 C 38.044751 30.210028 54.711367 0 CFG=1
M  V30 9 C 39.717649 29.593421 53.063670 0
M  V30 10 C 38.991149 29.013244 54.337628 0 CFG=2
M  V30 11 C 36.849092 29.970410 55.566799 0
M  V30 12 F 36.667407 25.032190 54.129351 0
M  V30 13 C 37.146275 29.850946 57.082864 0
M  V30 14 C 40.241135 35.463503 63.025772 0
M  V30 15 O 39.067404 32.869041 57.104336 0
M  V30 16 C 38.264909 27.617144 54.124977 0
M  V30 17 C 36.414058 32.246637 60.381438 0
M  V30 18 C 38.959109 31.519518 56.735795 0 CFG=1
M  V30 19 C 37.895588 32.225342 59.936463 0 CFG=1
M  V30 20 C 38.421024 34.979878 60.923465 0
M  V30 21 C 40.187578 30.843690 50.263905 0
M  V30 22 F 37.467404 23.314395 55.053186 0
M  V30 23 C 40.667369 29.453628 50.698395 0
M  V30 24 O 38.810319 25.243808 54.774357 0
M  V30 25 C 40.417416 31.747990 62.829997 0
M  V30 26 C 38.853512 32.537463 61.115612 0
M  V30 27 C 39.828176 28.757440 51.780725 0
M  V30 28 C 37.221881 25.133537 56.422639 0
M  V30 29 C 37.864528 26.502613 56.466520 0
M  V30 30 C 37.547274 24.636617 55.028155 0
M  V30 31 N 37.867403 31.040100 57.644947 0 CFG=2 CHG=1
M  V30 32 C 38.754665 26.607818 55.210315 0 CFG=1
M  V30 33 C 39.577876 36.537336 62.406522 0
M  V30 34 C 39.995802 28.653117 55.474983 0
M  V30 35 O 37.725276 29.897431 59.647722 0 CHG=-1
M  V30 36 C 39.086038 33.886440 61.540657 0
M  V30 37 H 39.354396 30.456628 61.474873 0
M  V30 38 H 41.349450 33.267840 64.044803 0
M  V30 39 H 39.383251 30.957375 59.081866 0
M  V30 40 H 40.803774 26.808463 54.678446 0
M  V30 41 H 40.580298 26.753372 56.422259 0
M  V30 42 H 37.976959 32.318732 54.984733 0
M  V30 43 H 39.587817 31.757311 54.675491 0
M  V30 44 H 38.157684 37.124229 60.890787 0
M  V30 45 H 37.533269 30.472865 53.788124 0
M  V30 46 H 39.224341 30.491206 52.704778 0
M  V30 47 H 40.667416 30.021424 53.354005 0
M  V30 48 H 36.224325 30.821441 55.412336 0
M  V30 49 H 36.267406 29.221430 55.053620 0
M  V30 50 H 36.204506 29.726107 57.616540 0
M  V30 51 H 37.729896 28.972435 57.312735 0
M  V30 52 H 40.936295 35.654561 63.830992 0
M  V30 53 H 38.732192 33.404593 56.400149 0
M  V30 54 H 37.182347 27.667070 54.066560 0
M  V30 55 H 38.530565 27.167462 53.174455 0
M  V30 56 H 36.136544 33.201250 60.826935 0
M  V30 57 H 35.750686 32.074787 59.533103 0
M  V30 58 H 36.209665 31.471283 61.119372 0
M  V30 59 H 39.877847 30.985823 56.943442 0
M  V30 60 H 38.007140 33.042706 59.238285 0
M  V30 61 H 37.720517 34.817403 60.123528 0
M  V30 62 H 40.808952 31.221478 49.453598 0
M  V30 63 H 39.155752 30.824493 49.914586 0
M  V30 64 H 40.262517 31.571241 51.071320 0
M  V30 65 H 41.695236 29.535597 51.052781 0
M  V30 66 H 40.667373 28.821448 49.813010 0
M  V30 67 H 40.923108 30.933599 63.326001 0
M  V30 68 H 40.267390 27.784718 51.995005 0
M  V30 69 H 38.830128 28.567230 51.382953 0
M  V30 70 H 36.150306 25.152764 56.625994 0
M  V30 71 H 37.694323 24.489107 57.166143 0
M  V30 72 H 38.419711 26.636849 57.395728 0
M  V30 73 H 37.067405 27.221380 56.455949 0
M  V30 74 H 39.765790 37.548946 62.736498 0
M  V30 75 H 40.943918 29.188817 55.453505 0
M  V30 76 H 39.592426 28.895648 56.447302 0
M  V30 77 H 37.137234 31.741874 57.610996 0
M  V30 END ATOM
M  V30 BEGIN BOND
M  V30 1 1 5 2
M  V30 2 1 8 6
M  V30 3 1 10 8
M  V30 4 1 10 9 CFG=3
M  V30 5 1 11 8
M  V30 6 1 13 11
M  V30 7 2 14 5
M  V30 8 1 16 10
M  V30 9 1 18 6
M  V30 10 1 18 15
M  V30 11 1 19 3
M  V30 12 1 19 17
M  V30 13 1 20 7
M  V30 14 1 23 21
M  V30 15 1 25 1
M  V30 16 2 25 2
M  V30 17 2 26 1
M  V30 18 1 26 19
M  V30 19 1 27 9
M  V30 20 1 27 23
M  V30 21 1 29 28
M  V30 22 1 30 12
M  V30 23 1 30 22
M  V30 24 1 30 24
M  V30 25 1 30 28
M  V30 26 1 31 3
M  V30 27 1 31 13
M  V30 28 1 31 18
M  V30 29 1 32 4
M  V30 30 1 32 16
M  V30 31 1 32 24 CFG=3
M  V30 32 1 32 29
M  V30 33 2 33 7
M  V30 34 1 33 14
M  V30 35 1 34 4
M  V30 36 1 34 10
M  V30 37 1 35 3
M  V30 38 1 36 5
M  V30 39 2 36 20
M  V30 40 1 36 26
M  V30 41 1 37 1
M  V30 42 1 38 2
M  V30 43 1 3 39 CFG=3
M  V30 44 1 40 4
M  V30 45 1 41 4
M  V30 46 1 42 6
M  V30 47 1 43 6
M  V30 48 1 44 7
M  V30 49 1 8 45 CFG=3
M  V30 50 1 46 9
M  V30 51 1 47 9
M  V30 52 1 48 11
M  V30 53 1 49 11
M  V30 54 1 50 13
M  V30 55 1 51 13
M  V30 56 1 52 14
M  V30 57 1 53 15
M  V30 58 1 54 16
M  V30 59 1 55 16
M  V30 60 1 56 17
M  V30 61 1 57 17
M  V30 62 1 58 17
M  V30 63 1 18 59 CFG=3
M  V30 64 1 19 60 CFG=3
M  V30 65 1 61 20
M  V30 66 1 62 21
M  V30 67 1 63 21
M  V30 68 1 64 21
M  V30 69 1 65 23
M  V30 70 1 66 23
M  V30 71 1 67 25
M  V30 72 1 68 27
M  V30 73 1 69 27
M  V30 74 1 70 28
M  V30 75 1 71 28
M  V30 76 1 72 29
M  V30 77 1 73 29
M  V30 78 1 74 33
M  V30 79 1 75 34
M  V30 80 1 76 34
M  V30 81 1 31 77 CFG=1
M  V30 END BOND
M  V30 END CTAB
M  END
>  <i_epik_Tot_Q>  (1) 
0

>  <i_epik_Tot_abs_Q>  (1) 
2

>  <i_i_glide_confnum>  (1) 
1845

>  <i_i_glide_lignum>  (1) 
57

>  <i_i_glide_posenum>  (1) 
122

>  <i_i_glide_rotatable_bonds>  (1) 
8

>  <i_lp_mmshare_version>  (1) 
72125

>  <i_m_source_file_index>  (1) 
21

>  <i_f3d_flags>  (1) 
0

>  <num_sample>  (1) 
50

>  <b_lp_Chiralities_Consistent>  (1) 
1

>  <r_epik_Charging_Adjusted_Penalty>  (1) 
0.70686764658740575

>  <r_epik_Ionization_Penalty>  (1) 
0.13730248461042968

>  <r_epik_Ionization_Penalty_Charging>  (1) 
0.016711854413244867

>  <r_epik_Ionization_Penalty_Neutral>  (1) 
0.12059063019718481

>  <r_epik_State_Penalty>  (1) 
0.6901557921741609

>  <r_glide_ring_energy>  (1) 
2.2535236093771274

>  <r_i_docking_score>  (1) 
-7.255213447304226

>  <r_i_glide_ecoul>  (1) 
-3.447743626511361

>  <r_i_glide_eff_state_penalty>  (1) 
0.6901557921741609

>  <r_i_glide_einternal>  (1) 
33.565897618552675

>  <r_i_glide_emodel>  (1) 
-32.672194249806324

>  <r_i_glide_emodel_strain>  (1) 
5.2884636233565061

>  <r_i_glide_energy>  (1) 
-34.449658340340363

>  <r_i_glide_erotb>  (1) 
0.48702584280874928

>  <r_i_glide_esite>  (1) 
-0.17353524407941817

>  <r_i_glide_evdw>  (1) 
-31.001914713829002

>  <r_i_glide_gscore>  (1) 
-7.9453692394783868

>  <r_i_glide_gscore_strain>  (1) 
0.32211590583912653

>  <r_i_glide_hbond>  (1) 
-0.14407022865215574

>  <r_i_glide_ligand_efficiency>  (1) 
-0.20153370686956185

>  <r_i_glide_ligand_efficiency_ln>  (1) 
-1.5828915609865544

>  <r_i_glide_ligand_efficiency_sa>  (1) 
-0.66544963828334858

>  <r_i_glide_lipo>  (1) 
-5.1214717056136294

>  <r_i_glide_metal>  (1) 
-0

>  <r_i_glide_rewards>  (1) 
-1.2481765301129046

>  <r_lp_Energy>  (1) 
66.418807999999999

>  <s_epik_Chemistry_Notes>  (1) 
This compound contains an acetal/aminal-like group ( X-CH(R)-Y where X, Y are N, S, or O) that may be acid/base labile, releasing an aldehyde.

>  <s_epik_cmdline>  (1) 
J2VwaWtfcHl0aG9uJywgJy1waHQnLCAnMS4wJywgJy1waCcsICc3LjQnLCAnLXRuJywgJzgnLCAnLW1hJywgJzUwMCcsICctaW1hZScsICc8aW5maWxlLm1hZT4nLCAnLW9tYWUnLCAnPG91dGZpbGUubWFlPic=

>  <s_epik_input>  (1) 
W2NIXTFbY0hdW2NIXVtjSF1jKGMxMiljKFtjSF1bY0hdW2NIXTIpW0NASF0oW0NIM10pW0NAQEhdKFtPSF0pTihbQ0gyXVtDSDJdMylbQ0BIXShbT0hdKVtDSDJdW0NASF0zW0NAQF0oW0NIMl00KShbQ0gyXVtDSDJdW0NIMl1bQ0gzXSlbQ0gyXVtDSDJdW0NAXTQ1T0MoRikoRilbQ0gyXVtDSDJdNQ==

>  <s_glide_docking_method>  (1) 
confgen

>  <s_i_glide_gridfile>  (1) 
gpcr_5ht2c_6bqh_protein_autoprepared_prepared

>  <s_lp_Force_Field>  (1) 
S-OPLS

>  <s_lp_Variant>  (1) 
DiffSBDD_20_num_sample_50-2

>  <s_m_source_file>  (1) 
generated__ligand_DiffSBDD_2026-05-06_prepared.sdf

>  <GenAI_Model>  (1) 
DiffSBDD

>  <Protein>  (1) 
GPCR_5HT2C

$$$$
DiffSBDD_4_num_sample_50
     RDKit          3D

  0  0  0  0  0  0  0  0  0  0999 V3000
M  V30 BEGIN CTAB
M  V30 COUNTS 72 74 0 0 1
M  V30 BEGIN ATOM
M  V30 1 C 38.739267 29.766709 53.474739 0
M  V30 2 C 41.350615 33.259329 63.522126 0
M  V30 3 C 41.783494 34.759991 65.336289 0
M  V30 4 N 40.410714 34.511753 61.944437 0
M  V30 5 C 40.028350 29.342285 59.413724 0
M  V30 6 C 42.312563 33.688558 66.100495 0
M  V30 7 C 40.804064 33.243997 62.205752 0
M  V30 8 N 38.267419 31.115742 57.982087 0
M  V30 9 C 37.817039 33.325828 60.047136 0
M  V30 10 C 38.180743 29.869392 55.994162 0
M  V30 11 O 39.167654 32.820179 56.783872 0
M  V30 12 C 39.755208 34.945159 60.709778 0
M  V30 13 F 39.364205 27.623712 50.485722 0
M  V30 14 C 38.622588 27.342615 53.291421 0
M  V30 15 C 40.686924 35.533763 63.079054 0
M  V30 16 C 39.575686 28.651296 51.306421 0
M  V30 17 N 38.305282 27.755198 54.666017 0 CHG=1
M  V30 18 C 41.867384 32.150862 64.229117 0
M  V30 19 C 37.618473 33.421807 58.515175 0
M  V30 20 C 38.875436 29.101672 54.851169 0 CFG=1
M  V30 21 C 41.308828 34.491695 64.042269 0
M  V30 22 O 41.735707 36.021419 65.855086 0
M  V30 23 C 42.356355 32.375256 65.545900 0
M  V30 24 C 38.556445 28.626666 52.456023 0 CFG=2
M  V30 25 C 39.288532 28.929655 58.114635 0
M  V30 26 C 38.427085 32.421340 57.683340 0
M  V30 27 N 38.952197 30.116238 57.246682 0
M  V30 28 C 38.020040 28.167920 58.531249 0
M  V30 29 C 41.896204 30.753334 63.607549 0
M  V30 30 N 42.570637 29.730740 64.386393 0
M  V30 31 F 39.467384 29.786501 50.617911 0
M  V30 32 C 38.237935 34.653085 60.715468 0
M  V30 33 C 40.254180 27.922740 57.446291 0
M  V30 34 O 40.715132 32.257741 61.473268 0
M  V30 35 H 37.867562 30.419763 53.453492 0
M  V30 36 H 39.608848 30.388400 53.254544 0
M  V30 37 H 41.059781 29.622055 59.205192 0
M  V30 38 H 39.548683 30.156504 59.955607 0
M  V30 39 H 40.091199 28.508129 60.114043 0
M  V30 40 H 42.681692 33.866846 67.099726 0
M  V30 41 H 41.725800 36.732470 65.222268 0
M  V30 42 H 37.642464 30.818931 58.716674 0
M  V30 43 H 38.507603 32.529334 60.316225 0
M  V30 44 H 36.862381 33.022990 60.479002 0
M  V30 45 H 37.218167 29.422326 56.241431 0
M  V30 46 H 37.913311 30.844247 55.584669 0
M  V30 47 H 39.908740 36.021195 60.627234 0
M  V30 48 H 40.233323 34.505273 59.836319 0
M  V30 49 H 37.933959 26.575518 52.935547 0
M  V30 50 H 39.630312 26.924131 53.275414 0
M  V30 51 H 39.770636 35.972297 63.475846 0
M  V30 52 H 41.401945 36.302935 62.783816 0
M  V30 53 H 40.605977 28.583273 51.656817 0
M  V30 54 H 38.660539 27.100811 55.348364 0
M  V30 55 H 36.565680 33.282469 58.272019 0
M  V30 56 H 37.861199 34.421411 58.157808 0
M  V30 57 H 39.941765 29.009282 55.052888 0
M  V30 58 H 42.758169 31.558587 66.126481 0
M  V30 59 H 37.553284 28.706088 52.032514 0
M  V30 60 H 37.496499 27.732291 57.681200 0
M  V30 61 H 38.267461 27.344401 59.202331 0
M  V30 62 H 37.320828 28.821475 59.053538 0
M  V30 63 H 40.875600 30.424639 63.404519 0
M  V30 64 H 42.415149 30.817670 62.653570 0
M  V30 65 H 41.911905 29.002226 64.624619 0
M  V30 66 H 43.281251 29.285703 63.821425 0
M  V30 67 H 37.874915 34.668170 61.744437 0
M  V30 68 H 37.713087 35.474377 60.225398 0
M  V30 69 H 41.113592 28.421972 56.997218 0
M  V30 70 H 40.650342 27.213797 58.175593 0
M  V30 71 H 39.778272 27.308163 56.690411 0
M  V30 72 H 37.301136 27.823437 54.751624 0
M  V30 END ATOM
M  V30 BEGIN BOND
M  V30 1 1 6 3
M  V30 2 1 7 2
M  V30 3 1 7 4
M  V30 4 1 12 4
M  V30 5 1 15 4
M  V30 6 1 16 13
M  V30 7 1 17 14
M  V30 8 2 18 2
M  V30 9 1 19 9
M  V30 10 1 20 1
M  V30 11 1 20 10
M  V30 12 1 20 17
M  V30 13 1 21 2
M  V30 14 2 21 3
M  V30 15 1 21 15
M  V30 16 1 22 3
M  V30 17 2 23 6
M  V30 18 1 23 18
M  V30 19 1 24 1
M  V30 20 1 24 14
M  V30 21 1 24 16
M  V30 22 1 25 5
M  V30 23 1 26 8
M  V30 24 2 26 11
M  V30 25 1 26 19
M  V30 26 1 27 8
M  V30 27 1 27 10
M  V30 28 1 27 25
M  V30 29 1 28 25
M  V30 30 1 29 18
M  V30 31 1 30 29
M  V30 32 1 31 16
M  V30 33 1 32 9
M  V30 34 1 32 12
M  V30 35 1 33 25
M  V30 36 2 34 7
M  V30 37 1 35 1
M  V30 38 1 36 1
M  V30 39 1 37 5
M  V30 40 1 38 5
M  V30 41 1 39 5
M  V30 42 1 40 6
M  V30 43 1 41 22
M  V30 44 1 42 8
M  V30 45 1 43 9
M  V30 46 1 44 9
M  V30 47 1 45 10
M  V30 48 1 46 10
M  V30 49 1 47 12
M  V30 50 1 48 12
M  V30 51 1 49 14
M  V30 52 1 50 14
M  V30 53 1 51 15
M  V30 54 1 52 15
M  V30 55 1 53 16
M  V30 56 1 54 17
M  V30 57 1 55 19
M  V30 58 1 56 19
M  V30 59 1 20 57 CFG=1
M  V30 60 1 58 23
M  V30 61 1 24 59 CFG=3
M  V30 62 1 60 28
M  V30 63 1 61 28
M  V30 64 1 62 28
M  V30 65 1 63 29
M  V30 66 1 64 29
M  V30 67 1 65 30
M  V30 68 1 66 30
M  V30 69 1 67 32
M  V30 70 1 68 32
M  V30 71 1 69 33
M  V30 72 1 70 33
M  V30 73 1 71 33
M  V30 74 1 72 17
M  V30 END BOND
M  V30 END CTAB
M  END
>  <i_epik_Tot_Q>  (1) 
1

>  <i_epik_Tot_abs_Q>  (1) 
1

>  <i_i_glide_confnum>  (1) 
1139

>  <i_i_glide_lignum>  (1) 
13

>  <i_i_glide_posenum>  (1) 
191

>  <i_i_glide_rotatable_bonds>  (1) 
13

>  <i_lp_mmshare_version>  (1) 
72125

>  <i_m_source_file_index>  (1) 
5

>  <i_f3d_flags>  (1) 
0

>  <num_sample>  (1) 
50

>  <b_lp_Chiralities_Consistent>  (1) 
1

>  <r_epik_Charging_Adjusted_Penalty>  (1) 
1.2595029471344665

>  <r_epik_Ionization_Penalty>  (1) 
1.2628522822174981

>  <r_epik_Ionization_Penalty_Charging>  (1) 
0.002090266189742528

>  <r_epik_Ionization_Penalty_Neutral>  (1) 
1.2607620160277555

>  <r_epik_State_Penalty>  (1) 
1.2574126809447239

>  <r_glide_ring_energy>  (1) 
0

>  <r_i_docking_score>  (1) 
-7.2517172352876349

>  <r_i_glide_ecoul>  (1) 
-5.8048823807998842

>  <r_i_glide_eff_state_penalty>  (1) 
1.2574126809447239

>  <r_i_glide_einternal>  (1) 
14.688399702673138

>  <r_i_glide_emodel>  (1) 
-67.11924262796299

>  <r_i_glide_emodel_strain>  (1) 
2.1365838568852524

>  <r_i_glide_energy>  (1) 
-50.722908136282896

>  <r_i_glide_erotb>  (1) 
0.78424635180538971

>  <r_i_glide_esite>  (1) 
-0.14650973567360567

>  <r_i_glide_evdw>  (1) 
-44.918025755483015

>  <r_i_glide_gscore>  (1) 
-8.509129916232359

>  <r_i_glide_gscore_strain>  (1) 
0

>  <r_i_glide_hbond>  (1) 
-0.32000000000000001

>  <r_i_glide_ligand_efficiency>  (1) 
-0.21328580103787162

>  <r_i_glide_ligand_efficiency_ln>  (1) 
-1.6021077410537432

>  <r_i_glide_ligand_efficiency_sa>  (1) 
-0.6909631980872103

>  <r_i_glide_lipo>  (1) 
-3.6927589157428744

>  <r_i_glide_metal>  (1) 
-0

>  <r_i_glide_rewards>  (1) 
-2.0174739717271364

>  <r_lp_Energy>  (1) 
25.577957999999999

>  <r_lp_tautomer_probability>  (1) 
0.99999999999736477

>  <s_epik_cmdline>  (1) 
J2VwaWtfcHl0aG9uJywgJy1waHQnLCAnMS4wJywgJy1waCcsICc3LjQnLCAnLXRuJywgJzgnLCAnLW1hJywgJzUwMCcsICctaW1hZScsICc8aW5maWxlLm1hZT4nLCAnLW9tYWUnLCAnPG91dGZpbGUubWFlPic=

>  <s_epik_input>  (1) 
RltDSF0oRilbQ0BASF0oW0NIMl1bTkhdMSlbQ0gyXVtDQEhdMVtDSDJdTihDKFtDSDNdKShbQ0gzXSlbQ0gzXSlbTkhdQyg9TylbQ0gyXVtDSDJdW0NIMl1bQ0gyXU4oQzI9TylbQ0gyXUMoPUMyMylDKD1PKVtDSDJdW0NIXT1DM1tDSDJdW05IMl0=

>  <s_glide_docking_method>  (1) 
confgen

>  <s_i_glide_gridfile>  (1) 
gpcr_5ht2c_6bqh_protein_autoprepared_prepared

>  <s_lp_Force_Field>  (1) 
S-OPLS

>  <s_lp_Variant>  (1) 
DiffSBDD_4_num_sample_50-2

>  <s_m_source_file>  (1) 
generated__ligand_DiffSBDD_2026-05-06_prepared.sdf

>  <GenAI_Model>  (1) 
DiffSBDD

>  <Protein>  (1) 
GPCR_5HT2C

$$$$
DiffSBDD_19_num_sample_50
     RDKit          3D

  0  0  0  0  0  0  0  0  0  0999 V3000
M  V30 BEGIN CTAB
M  V30 COUNTS 46 49 0 0 1
M  V30 BEGIN ATOM
M  V30 1 N 39.630709 28.213450 58.499994 0
M  V30 2 C 40.263650 31.252872 61.735194 0
M  V30 3 C 39.905558 26.803097 58.207049 0
M  V30 4 C 37.875765 31.668393 60.671448 0
M  V30 5 N 38.167442 32.999057 60.660714 0
M  V30 6 C 40.098447 32.689043 62.210077 0
M  V30 7 C 39.001308 30.682912 61.053395 0 CFG=1
M  V30 8 F 39.228494 24.997907 56.867872 0
M  V30 9 O 39.856522 28.021430 60.837366 0
M  V30 10 O 36.761865 31.231059 60.378693 0
M  V30 11 N 38.857291 27.091078 56.013133 0
M  V30 12 N 38.343449 36.862025 62.299979 0
M  V30 13 C 39.640418 35.066647 61.267966 0 CFG=1
M  V30 14 O 39.349765 30.004011 59.846658 0
M  V30 15 C 40.464488 35.709247 62.400941 0
M  V30 16 O 37.858132 26.537700 55.119757 0
M  V30 17 C 38.400482 28.433877 56.360264 0
M  V30 18 C 39.523434 33.518174 61.054487 0 CFG=2
M  V30 19 C 37.137632 33.982520 60.229732 0
M  V30 20 C 38.883531 26.242278 57.202338 0 CFG=2
M  V30 21 C 38.330804 35.732979 61.513655 0
M  V30 22 C 37.195535 35.245128 61.040903 0
M  V30 23 C 39.373749 29.100938 57.346552 0
M  V30 24 C 39.634388 28.686706 59.827503 0
M  V30 25 C 39.508900 36.824708 62.776899 0
M  V30 26 H 40.553218 30.615971 62.572016 0
M  V30 27 H 41.101969 31.224253 61.039865 0
M  V30 28 H 40.916861 26.721039 57.806106 0
M  V30 29 H 39.865870 26.185005 59.101252 0
M  V30 30 H 41.076639 33.058283 62.515795 0
M  V30 31 H 39.444933 32.742868 63.082605 0
M  V30 32 H 38.530062 29.995221 61.757878 0
M  V30 33 H 41.424268 36.099284 62.060331 0
M  V30 34 H 37.079921 26.538081 55.655329 0
M  V30 35 H 38.301408 29.041214 55.459637 0
M  V30 36 H 37.421313 28.384623 56.827448 0
M  V30 37 H 40.163653 33.309905 60.196104 0
M  V30 38 H 37.269888 34.222499 59.174130 0
M  V30 39 H 36.124757 33.591150 60.336406 0
M  V30 40 H 37.894487 26.187416 57.661949 0
M  V30 41 H 36.267415 35.744568 61.245886 0
M  V30 42 H 40.319554 29.273029 56.839126 0
M  V30 43 H 38.971207 30.085743 57.582762 0
M  V30 44 H 39.891534 37.576756 63.471947 0
M  V30 45 H 39.980744 35.494649 60.322637 0
M  V30 46 H 40.609344 35.072581 63.272518 0
M  V30 END ATOM
M  V30 BEGIN BOND
M  V30 1 1 3 1
M  V30 2 1 5 4
M  V30 3 1 6 2
M  V30 4 1 7 2
M  V30 5 1 7 4
M  V30 6 2 10 4
M  V30 7 1 14 7
M  V30 8 1 15 13
M  V30 9 1 16 11
M  V30 10 1 17 11
M  V30 11 1 18 5
M  V30 12 1 18 6
M  V30 13 1 18 13
M  V30 14 1 19 5
M  V30 15 1 20 3
M  V30 16 1 20 8
M  V30 17 1 20 11
M  V30 18 1 21 12
M  V30 19 1 21 13
M  V30 20 1 22 19
M  V30 21 2 22 21
M  V30 22 1 23 1
M  V30 23 1 23 17
M  V30 24 1 24 1
M  V30 25 2 24 9
M  V30 26 1 24 14
M  V30 27 2 25 12
M  V30 28 1 25 15
M  V30 29 1 26 2
M  V30 30 1 27 2
M  V30 31 1 28 3
M  V30 32 1 29 3
M  V30 33 1 30 6
M  V30 34 1 31 6
M  V30 35 1 7 32 CFG=1
M  V30 36 1 33 15
M  V30 37 1 34 16
M  V30 38 1 35 17
M  V30 39 1 36 17
M  V30 40 1 18 37 CFG=3
M  V30 41 1 38 19
M  V30 42 1 39 19
M  V30 43 1 20 40 CFG=1
M  V30 44 1 41 22
M  V30 45 1 42 23
M  V30 46 1 43 23
M  V30 47 1 44 25
M  V30 48 1 13 45 CFG=3
M  V30 49 1 46 15
M  V30 END BOND
M  V30 END CTAB
M  END
>  <i_epik_Tot_Q>  (1) 
0

>  <i_epik_Tot_abs_Q>  (1) 
0

>  <i_i_glide_confnum>  (1) 
13

>  <i_i_glide_lignum>  (1) 
52

>  <i_i_glide_posenum>  (1) 
213

>  <i_i_glide_rotatable_bonds>  (1) 
4

>  <i_lp_mmshare_version>  (1) 
72125

>  <i_m_source_file_index>  (1) 
20

>  <i_f3d_flags>  (1) 
0

>  <num_sample>  (1) 
50

>  <b_lp_Chiralities_Consistent>  (1) 
1

>  <r_epik_Charging_Adjusted_Penalty>  (1) 
0

>  <r_epik_Ionization_Penalty>  (1) 
0.00023690808741792311

>  <r_epik_Ionization_Penalty_Charging>  (1) 
0

>  <r_epik_Ionization_Penalty_Neutral>  (1) 
0.00023690808741792311

>  <r_epik_State_Penalty>  (1) 
-0

>  <r_glide_ring_energy>  (1) 
0

>  <r_i_docking_score>  (1) 
-7.2494101605558221

>  <r_i_glide_ecoul>  (1) 
0.3575838095816814

>  <r_i_glide_eff_state_penalty>  (1) 
-0

>  <r_i_glide_einternal>  (1) 
1.6491299662182368

>  <r_i_glide_emodel>  (1) 
-61.199223903004302

>  <r_i_glide_emodel_strain>  (1) 
0.038079713969906948

>  <r_i_glide_energy>  (1) 
-42.898218821896542

>  <r_i_glide_erotb>  (1) 
0.46110279215177946

>  <r_i_glide_esite>  (1) 
0

>  <r_i_glide_evdw>  (1) 
-43.255802631478225

>  <r_i_glide_gscore>  (1) 
-7.2494101605558221

>  <r_i_glide_gscore_strain>  (1) 
0

>  <r_i_glide_hbond>  (1) 
0

>  <r_i_glide_ligand_efficiency>  (1) 
-0.28997640642223288

>  <r_i_glide_ligand_efficiency_ln>  (1) 
-1.7183274553434613

>  <r_i_glide_ligand_efficiency_sa>  (1) 
-0.84789615604183222

>  <r_i_glide_lipo>  (1) 
-2.2555316800274055

>  <r_i_glide_metal>  (1) 
-0

>  <r_i_glide_rewards>  (1) 
-3.3458287125435362

>  <r_lp_Energy>  (1) 
47.194033999999995

>  <r_lp_tautomer_probability>  (1) 
1

>  <s_epik_Chemistry_Notes>  (1) 
This compound has an ester and may undergo hydrolysis at high or low pH. This compound has an imine and may undergo hydrolysis. This compound has a N-S or N-O group and may undergo hydrolysis at high or low pH.

>  <s_epik_cmdline>  (1) 
J2VwaWtfcHl0aG9uJywgJy1waHQnLCAnMS4wJywgJy1waCcsICc3LjQnLCAnLXRuJywgJzgnLCAnLW1hJywgJzUwMCcsICctaW1hZScsICc8aW5maWxlLm1hZT4nLCAnLW9tYWUnLCAnPG91dGZpbGUubWFlPic=

>  <s_epik_input>  (1) 
W0NIMl0xW0NIMl1OKFtPSF0pW0NAQEhdKEYpW0NIMl1OMUMoPU8pT1tDQEhdKEMyPU8pW0NIMl1bQ0gyXVtDQEBIXShOMjMpQz00QyhbQ0gyXVtDSDJdMyk9TltDSDJdW0NIXTQ=

>  <s_glide_docking_method>  (1) 
confgen

>  <s_i_glide_gridfile>  (1) 
gpcr_5ht2c_6bqh_protein_autoprepared_prepared

>  <s_lp_Force_Field>  (1) 
S-OPLS

>  <s_lp_Variant>  (1) 
DiffSBDD_19_num_sample_50-1

>  <s_m_source_file>  (1) 
generated__ligand_DiffSBDD_2026-05-06_prepared.sdf

>  <GenAI_Model>  (1) 
DiffSBDD

>  <Protein>  (1) 
GPCR_5HT2C

$$$$
DiffSBDD_41_num_sample_50
     RDKit          3D

  0  0  0  0  0  0  0  0  0  0999 V3000
M  V30 BEGIN CTAB
M  V30 COUNTS 83 87 0 0 1
M  V30 BEGIN ATOM
M  V30 1 C 41.622558 33.843167 66.275879 0
M  V30 2 C 42.525612 32.912557 65.466759 0 CFG=2
M  V30 3 C 37.884266 31.774985 58.748318 0
M  V30 4 C 39.386579 37.485328 61.957675 0
M  V30 5 C 42.599322 31.318420 67.451798 0 CFG=1
M  V30 6 O 41.793945 30.303362 66.880209 0
M  V30 7 O 41.467464 31.974831 69.453454 0
M  V30 8 C 38.676663 26.151791 55.465789 0
M  V30 9 C 42.270048 32.549853 62.973410 0
M  V30 10 C 38.924718 30.586985 56.882973 0
M  V30 11 C 35.387005 32.640024 60.948549 0
M  V30 12 C 39.108692 32.250943 62.026268 0
M  V30 13 C 41.825421 32.104913 64.302986 0 CFG=2
M  V30 14 C 38.126230 28.577352 54.730228 0
M  V30 15 F 38.586227 24.889628 55.053501 0
M  V30 16 O 37.696422 30.661199 60.901195 0
M  V30 17 C 37.172231 33.010115 59.283277 0 CFG=2
M  V30 18 C 39.627070 31.280230 63.121842 0
M  V30 19 C 39.152067 29.471529 57.728856 0
M  V30 20 C 43.410423 32.067897 66.399480 0 CFG=1
M  V30 21 O 44.299186 31.198660 65.724240 0
M  V30 22 F 39.937273 26.380637 55.828819 0
M  V30 23 C 37.238273 35.406317 59.895162 0 CFG=1
M  V30 24 C 37.668044 31.903219 61.582024 0 CFG=2
M  V30 25 C 39.470528 29.318672 54.888024 0
M  V30 26 N 34.667400 33.219334 61.797665 0
M  V30 27 F 37.879743 26.299968 56.523610 0
M  V30 28 O 39.080363 36.436825 61.053490 0
M  V30 29 C 41.252845 33.525817 67.617897 0
M  V30 30 C 38.107368 30.653217 59.588349 0
M  V30 31 C 37.903655 34.330978 59.029790 0
M  V30 32 C 40.344392 35.925091 66.425768 0
M  V30 33 C 38.295755 31.734500 57.399501 0
M  V30 34 O 39.307482 30.566393 55.554492 0
M  V30 35 C 36.844712 32.949165 60.787391 0 CFG=2
M  V30 36 S 37.088622 34.608663 61.453500 0
M  V30 37 C 39.973926 35.609585 67.745847 0
M  V30 38 C 42.667168 32.821400 61.853511 0
M  V30 39 C 41.733080 32.264923 68.289375 0
M  V30 40 C 37.976625 36.718375 60.179795 0
M  V30 41 C 40.286383 31.983382 64.345747 0
M  V30 42 C 38.243894 27.094762 54.325697 0
M  V30 43 C 38.742019 29.509498 59.073167 0
M  V30 44 C 41.165299 35.047304 65.692344 0
M  V30 45 C 40.426683 34.417091 68.342367 0
M  V30 46 H 43.227619 33.623976 65.035851 0
M  V30 47 H 40.286050 37.228344 62.516385 0
M  V30 48 H 39.565803 38.434567 61.453502 0
M  V30 49 H 38.575867 37.621411 62.673734 0
M  V30 50 H 43.291763 30.830402 68.138530 0
M  V30 51 H 42.360434 29.635266 66.525797 0
M  V30 52 H 34.991428 31.873845 60.275985 0
M  V30 53 H 39.144303 33.262105 62.424720 0
M  V30 54 H 39.781163 32.261246 61.168575 0
M  V30 55 H 42.189895 31.079209 64.323101 0
M  V30 56 H 37.539727 28.641238 55.645022 0
M  V30 57 H 37.537886 29.107567 53.980431 0
M  V30 58 H 36.254648 33.085189 58.694535 0
M  V30 59 H 40.303264 30.546257 62.682313 0
M  V30 60 H 38.799522 30.672211 63.486276 0
M  V30 61 H 39.633219 28.586878 57.349396 0
M  V30 62 H 44.057745 32.763106 66.940332 0
M  V30 63 H 43.802569 30.643155 65.143264 0
M  V30 64 H 36.240405 35.609679 59.504356 0
M  V30 65 H 37.126027 31.733656 62.512891 0
M  V30 66 H 39.867110 29.536129 53.896647 0
M  V30 67 H 40.244138 28.725952 55.371463 0
M  V30 68 H 33.703915 32.919598 61.787746 0
M  V30 69 H 38.945680 34.210426 59.334314 0
M  V30 70 H 37.867397 34.569887 57.967025 0
M  V30 71 H 39.998882 36.843457 65.973355 0
M  V30 72 H 38.114556 32.582144 56.754981 0
M  V30 73 H 39.343943 36.286278 68.305032 0
M  V30 74 H 43.067356 33.020804 60.890307 0
M  V30 75 H 38.267355 37.221434 59.258818 0
M  V30 76 H 37.276386 37.393458 60.676118 0
M  V30 77 H 40.007557 31.440950 65.249295 0
M  V30 78 H 39.867406 32.974333 64.462273 0
M  V30 79 H 37.266130 26.765979 53.973892 0
M  V30 80 H 38.918963 26.990088 53.476512 0
M  V30 81 H 38.911636 28.654829 59.711586 0
M  V30 82 H 41.447516 35.297735 64.679366 0
M  V30 83 H 40.142189 34.185306 69.359485 0
M  V30 END ATOM
M  V30 BEGIN BOND
M  V30 1 1 2 1
M  V30 2 1 6 5
M  V30 3 1 13 2
M  V30 4 1 13 9
M  V30 5 1 15 8
M  V30 6 1 17 3
M  V30 7 1 18 12
M  V30 8 1 19 10
M  V30 9 1 20 2
M  V30 10 1 20 5
M  V30 11 1 21 20
M  V30 12 1 22 8
M  V30 13 1 24 12
M  V30 14 1 24 16
M  V30 15 1 25 14
M  V30 16 2 26 11
M  V30 17 1 27 8
M  V30 18 1 28 4
M  V30 19 1 29 1
M  V30 20 2 30 3
M  V30 21 1 30 16
M  V30 22 1 31 17
M  V30 23 1 31 23
M  V30 24 1 33 3
M  V30 25 2 33 10
M  V30 26 1 34 10
M  V30 27 1 34 25
M  V30 28 1 35 11 CFG=3
M  V30 29 1 35 17
M  V30 30 1 35 24
M  V30 31 1 36 23
M  V30 32 1 36 35
M  V30 33 2 37 32
M  V30 34 3 38 9
M  V30 35 1 39 5
M  V30 36 2 39 7
M  V30 37 1 39 29
M  V30 38 1 40 23
M  V30 39 1 40 28
M  V30 40 1 41 13
M  V30 41 1 41 18
M  V30 42 1 42 8
M  V30 43 1 42 14
M  V30 44 2 43 19
M  V30 45 1 43 30
M  V30 46 2 44 1
M  V30 47 1 44 32
M  V30 48 2 45 29
M  V30 49 1 45 37
M  V30 50 1 2 46 CFG=3
M  V30 51 1 47 4
M  V30 52 1 48 4
M  V30 53 1 49 4
M  V30 54 1 5 50 CFG=1
M  V30 55 1 51 6
M  V30 56 1 52 11
M  V30 57 1 53 12
M  V30 58 1 54 12
M  V30 59 1 13 55 CFG=1
M  V30 60 1 56 14
M  V30 61 1 57 14
M  V30 62 1 17 58 CFG=3
M  V30 63 1 59 18
M  V30 64 1 60 18
M  V30 65 1 61 19
M  V30 66 1 20 62 CFG=1
M  V30 67 1 63 21
M  V30 68 1 23 64 CFG=3
M  V30 69 1 24 65 CFG=1
M  V30 70 1 66 25
M  V30 71 1 67 25
M  V30 72 1 68 26
M  V30 73 1 69 31
M  V30 74 1 70 31
M  V30 75 1 71 32
M  V30 76 1 72 33
M  V30 77 1 73 37
M  V30 78 1 74 38
M  V30 79 1 75 40
M  V30 80 1 76 40
M  V30 81 1 77 41
M  V30 82 1 78 41
M  V30 83 1 79 42
M  V30 84 1 80 42
M  V30 85 1 81 43
M  V30 86 1 82 44
M  V30 87 1 83 45
M  V30 END BOND
M  V30 END CTAB
M  END
>  <i_epik_Tot_Q>  (1) 
0

>  <i_epik_Tot_abs_Q>  (1) 
0

>  <i_i_glide_confnum>  (1) 
333

>  <i_i_glide_lignum>  (1) 
99

>  <i_i_glide_posenum>  (1) 
91

>  <i_i_glide_rotatable_bonds>  (1) 
16

>  <i_lp_mmshare_version>  (1) 
72125

>  <i_m_source_file_index>  (1) 
42

>  <i_f3d_flags>  (1) 
0

>  <num_sample>  (1) 
50

>  <b_lp_Chiralities_Consistent>  (1) 
1

>  <r_epik_Charging_Adjusted_Penalty>  (1) 
0.41067983895260396

>  <r_epik_Ionization_Penalty>  (1) 
0.0048607436090088536

>  <r_epik_Ionization_Penalty_Charging>  (1) 
0

>  <r_epik_Ionization_Penalty_Neutral>  (1) 
0.0048607436090088536

>  <r_epik_State_Penalty>  (1) 
0.41067983895260396

>  <r_glide_ring_energy>  (1) 
0.56107915077032222

>  <r_i_docking_score>  (1) 
-7.2483623112430946

>  <r_i_glide_ecoul>  (1) 
0.3901077073327468

>  <r_i_glide_eff_state_penalty>  (1) 
0.41067983895260396

>  <r_i_glide_einternal>  (1) 
10.63207336008502

>  <r_i_glide_emodel>  (1) 
-49.915966170835034

>  <r_i_glide_emodel_strain>  (1) 
3.9057597751418314

>  <r_i_glide_energy>  (1) 
-44.874765778852982

>  <r_i_glide_erotb>  (1) 
0.41134081239429626

>  <r_i_glide_esite>  (1) 
0

>  <r_i_glide_evdw>  (1) 
-45.264873486185728

>  <r_i_glide_gscore>  (1) 
-7.6590421501956989

>  <r_i_glide_gscore_strain>  (1) 
0

>  <r_i_glide_hbond>  (1) 
0

>  <r_i_glide_ligand_efficiency>  (1) 
-0.16107471802762433

>  <r_i_glide_ligand_efficiency_ln>  (1) 
-1.5079823737716704

>  <r_i_glide_ligand_efficiency_sa>  (1) 
-0.57292558607508182

>  <r_i_glide_lipo>  (1) 
-4.0570058299842797

>  <r_i_glide_metal>  (1) 
-0

>  <r_i_glide_rewards>  (1) 
-1.8086496143963415

>  <r_lp_Energy>  (1) 
49.308972999999995

>  <r_lp_tautomer_probability>  (1) 
0.5

>  <s_epik_Chemistry_Notes>  (1) 
This compound has an imine and may undergo hydrolysis.

>  <s_epik_cmdline>  (1) 
J2VwaWtfcHl0aG9uJywgJy1waHQnLCAnMS4wJywgJy1waCcsICc3LjQnLCAnLXRuJywgJzgnLCAnLW1hJywgJzUwMCcsICctaW1hZScsICc8aW5maWxlLm1hZT4nLCAnLW9tYWUnLCAnPG91dGZpbGUubWFlPic=

>  <s_epik_input>  (1) 
W2NIXTFbY0hdW2NIXVtjSF1jKGMxMilDKD1PKVtDQEBIXShbT0hdKVtDQEBIXShbT0hdKVtDQEBIXTJbQ0BASF0oQyNbQ0hdKVtDSDJdW0NIMl1bQ0gyXVtDQEBIXTNPYyhjNFtDQEBIXShbQ0BAXTM1L1tDSF09Ti9bSF0pW0NIMl1bQ0BASF0oUzUpW0NIMl1PW0NIM10pW2NIXVtjSF1jKFtjSF00KU9bQ0gyXVtDSDJdW0NIMl1DKEYpKEYpRg==

>  <s_glide_docking_method>  (1) 
confgen

>  <s_i_glide_gridfile>  (1) 
gpcr_5ht2c_6bqh_protein_autoprepared_prepared

>  <s_lp_Force_Field>  (1) 
S-OPLS

>  <s_lp_Variant>  (1) 
DiffSBDD_41_num_sample_50-4

>  <s_m_source_file>  (1) 
generated__ligand_DiffSBDD_2026-05-06_prepared.sdf

>  <GenAI_Model>  (1) 
DiffSBDD

>  <Protein>  (1) 
GPCR_5HT2C

$$$$
DiffSBDD_6_num_sample_50
     RDKit          3D

  0  0  0  0  0  0  0  0  0  0999 V3000
M  V30 BEGIN CTAB
M  V30 COUNTS 65 68 0 0 1
M  V30 BEGIN ATOM
M  V30 1 N 39.925874 33.923850 62.395302 0
M  V30 2 N 37.942519 33.895427 60.521398 0
M  V30 3 C 37.257616 34.019242 59.439959 0
M  V30 4 C 42.281152 34.297366 65.371104 0
M  V30 5 C 38.045523 25.114065 57.312587 0
M  V30 6 N 38.650790 31.069532 58.582319 0
M  V30 7 N 37.071174 32.941648 58.654869 0
M  V30 8 N 40.027207 29.190692 58.882029 0
M  V30 9 C 40.544641 31.700842 63.179389 0
M  V30 10 C 38.811281 25.727716 54.677456 0
M  V30 11 N 39.071087 31.939208 61.179146 0 CHG=1
M  V30 12 O 40.263904 25.671834 58.070296 0
M  V30 13 C 38.676667 31.317759 56.303714 0
M  V30 14 C 37.789884 29.057211 53.246370 0
M  V30 15 F 39.182995 26.021446 53.415295 0
M  V30 16 C 37.558072 31.757273 59.246540 0 CFG=2
M  V30 17 C 39.359239 25.547638 57.043684 0
M  V30 18 C 40.772787 35.958770 63.435325 0
M  V30 19 C 37.555150 29.922993 54.486045 0
M  V30 20 F 37.678420 24.816188 58.578793 0
M  V30 21 C 37.114895 24.992026 56.261656 0
M  V30 22 C 39.361668 30.485901 60.896037 0
M  V30 23 C 40.705139 34.444074 63.372989 0
M  V30 24 C 37.498160 25.301638 54.944760 0
M  V30 25 C 41.332480 32.257912 64.198913 0
M  V30 26 C 38.869507 30.476957 55.041214 0
M  V30 27 C 38.950126 29.956745 59.481158 0 CFG=1
M  V30 28 C 41.423115 33.653726 64.295034 0
M  V30 29 O 38.162240 30.503835 57.356163 0
M  V30 30 F 41.001664 26.240799 55.447689 0
M  V30 31 C 39.903669 27.776231 59.195975 0
M  V30 32 C 39.739603 25.846294 55.718948 0
M  V30 33 C 38.216433 32.548928 60.377539 0
M  V30 34 C 40.809931 26.977177 58.251167 0
M  V30 35 C 39.858108 32.570464 62.286793 0
M  V30 36 H 36.802702 34.954622 59.106155 0
M  V30 37 H 36.443998 32.868583 57.848055 0
M  V30 38 H 42.771865 33.542689 65.987156 0
M  V30 39 H 41.679805 34.932113 66.022977 0
M  V30 40 H 43.060997 34.910353 64.918146 0
M  V30 41 H 39.922526 29.297832 57.880797 0
M  V30 42 H 40.471870 30.629834 63.085913 0
M  V30 43 H 37.997110 32.150573 56.115189 0
M  V30 44 H 39.647277 31.751878 56.558041 0
M  V30 45 H 36.858096 28.644469 52.857879 0
M  V30 46 H 38.442857 28.227737 53.491455 0
M  V30 47 H 38.283621 29.616888 52.453796 0
M  V30 48 H 41.806326 36.302326 63.375972 0
M  V30 49 H 40.345926 36.318376 64.372162 0
M  V30 50 H 40.219938 36.412669 62.612901 0
M  V30 51 H 36.878992 30.746494 54.253824 0
M  V30 52 H 37.065660 29.324595 55.253308 0
M  V30 53 H 36.108509 24.663329 56.465784 0
M  V30 54 H 38.905714 29.890927 61.687890 0
M  V30 55 H 40.445452 30.385013 60.972761 0
M  V30 56 H 36.786968 25.208362 54.137194 0
M  V30 57 H 41.866106 31.621708 64.890010 0
M  V30 58 H 39.554812 29.657129 55.259653 0
M  V30 59 H 39.352762 31.088209 54.277196 0
M  V30 60 H 38.048570 29.344412 59.565846 0
M  V30 61 H 40.154522 27.588362 60.240349 0
M  V30 62 H 38.871090 27.458162 59.044756 0
M  V30 63 H 41.818154 26.893875 58.652303 0
M  V30 64 H 40.929148 27.522343 57.316686 0
M  V30 65 H 36.745062 31.119413 59.600248 0
M  V30 END ATOM
M  V30 BEGIN BOND
M  V30 1 2 3 2
M  V30 2 1 7 3
M  V30 3 1 15 10
M  V30 4 1 16 6
M  V30 5 1 16 7
M  V30 6 2 17 5
M  V30 7 1 17 12
M  V30 8 1 19 14
M  V30 9 1 20 5
M  V30 10 1 21 5
M  V30 11 1 22 11
M  V30 12 1 23 1
M  V30 13 1 23 18
M  V30 14 1 24 10
M  V30 15 2 24 21
M  V30 16 2 25 9
M  V30 17 1 26 13
M  V30 18 1 26 19
M  V30 19 1 27 6
M  V30 20 1 27 8
M  V30 21 1 27 22
M  V30 22 1 28 4
M  V30 23 2 28 23
M  V30 24 1 28 25
M  V30 25 1 29 6
M  V30 26 1 29 13
M  V30 27 1 31 8
M  V30 28 2 32 10
M  V30 29 1 32 17
M  V30 30 1 32 30
M  V30 31 1 33 2
M  V30 32 2 33 11
M  V30 33 1 33 16
M  V30 34 1 34 12
M  V30 35 1 34 31
M  V30 36 2 35 1
M  V30 37 1 35 9
M  V30 38 1 35 11
M  V30 39 1 36 3
M  V30 40 1 37 7
M  V30 41 1 38 4
M  V30 42 1 39 4
M  V30 43 1 40 4
M  V30 44 1 41 8
M  V30 45 1 42 9
M  V30 46 1 43 13
M  V30 47 1 44 13
M  V30 48 1 45 14
M  V30 49 1 46 14
M  V30 50 1 47 14
M  V30 51 1 48 18
M  V30 52 1 49 18
M  V30 53 1 50 18
M  V30 54 1 51 19
M  V30 55 1 52 19
M  V30 56 1 53 21
M  V30 57 1 54 22
M  V30 58 1 55 22
M  V30 59 1 56 24
M  V30 60 1 57 25
M  V30 61 1 58 26
M  V30 62 1 59 26
M  V30 63 1 27 60 CFG=1
M  V30 64 1 61 31
M  V30 65 1 62 31
M  V30 66 1 63 34
M  V30 67 1 64 34
M  V30 68 1 16 65 CFG=1
M  V30 END BOND
M  V30 END CTAB
M  END
>  <i_epik_Tot_Q>  (1) 
1

>  <i_epik_Tot_abs_Q>  (1) 
1

>  <i_i_glide_confnum>  (1) 
607

>  <i_i_glide_lignum>  (1) 
22

>  <i_i_glide_posenum>  (1) 
145

>  <i_i_glide_rotatable_bonds>  (1) 
10

>  <i_lp_mmshare_version>  (1) 
72125

>  <i_m_source_file_index>  (1) 
7

>  <i_f3d_flags>  (1) 
0

>  <num_sample>  (1) 
50

>  <b_lp_Chiralities_Consistent>  (1) 
1

>  <r_epik_Charging_Adjusted_Penalty>  (1) 
0.81638474559902796

>  <r_epik_Ionization_Penalty>  (1) 
6.3086919552564762

>  <r_epik_Ionization_Penalty_Charging>  (1) 
0

>  <r_epik_Ionization_Penalty_Neutral>  (1) 
6.3086919552564762

>  <r_epik_State_Penalty>  (1) 
0.81638474559902796

>  <r_glide_ring_energy>  (1) 
0

>  <r_i_docking_score>  (1) 
-7.2460736301236084

>  <r_i_glide_ecoul>  (1) 
-6.3661715198890656

>  <r_i_glide_eff_state_penalty>  (1) 
0.81638474559902796

>  <r_i_glide_einternal>  (1) 
7.7953353205273004

>  <r_i_glide_emodel>  (1) 
-74.72437728669955

>  <r_i_glide_emodel_strain>  (1) 
2.0228208808036214

>  <r_i_glide_energy>  (1) 
-51.182440592273373

>  <r_i_glide_erotb>  (1) 
0.67408029721787976

>  <r_i_glide_esite>  (1) 
-0.31724087911778204

>  <r_i_glide_evdw>  (1) 
-44.816269072384308

>  <r_i_glide_gscore>  (1) 
-8.0624583757226365

>  <r_i_glide_gscore_strain>  (1) 
0

>  <r_i_glide_hbond>  (1) 
-0.15703491567913638

>  <r_i_glide_ligand_efficiency>  (1) 
-0.20703067514638882

>  <r_i_glide_ligand_efficiency_ln>  (1) 
-1.5906739797517113

>  <r_i_glide_ligand_efficiency_sa>  (1) 
-0.67721106664695074

>  <r_i_glide_lipo>  (1) 
-4.0997141518088362

>  <r_i_glide_metal>  (1) 
-0

>  <r_i_glide_rewards>  (1) 
-0.96680954473218494

>  <r_lp_Energy>  (1) 
45.017523999999995

>  <r_lp_tautomer_probability>  (1) 
0.23620936778007409

>  <s_epik_Chemistry_Notes>  (1) 
This compound has an imine and may undergo hydrolysis. This compound contains an acetal/aminal-like group ( X-CH(R)-Y where X, Y are N, S, or O) that may be acid/base labile, releasing an aldehyde. This compound has a N-S or N-O group and may undergo hydrolysis at high or low pH.

>  <s_epik_cmdline>  (1) 
J2VwaWtfcHl0aG9uJywgJy1waHQnLCAnMS4wJywgJy1waCcsICc3LjQnLCAnLXRuJywgJzgnLCAnLW1hJywgJzUwMCcsICctaW1hZScsICc8aW5maWxlLm1hZT4nLCAnLW9tYWUnLCAnPG91dGZpbGUubWFlPic=

>  <s_epik_input>  (1) 
W0NIM11jMVtjSF1bY0hdYyhuYzFbQ0gzXSlOKEMoQzIzKT1OW0NIMl1OPTMpW0NIMl1bQ0BASF0oTjJPW0NIMl1bQ0gyXVtDSDJdW0NIM10pW05IXVtDSDJdW0NIMl1PYyhjNEYpYyhGKWMoRilbY0hdW2NIXTQ=

>  <s_glide_docking_method>  (1) 
confgen

>  <s_i_glide_gridfile>  (1) 
gpcr_5ht2c_6bqh_protein_autoprepared_prepared

>  <s_lp_Force_Field>  (1) 
S-OPLS

>  <s_lp_Variant>  (1) 
DiffSBDD_6_num_sample_50-3

>  <s_m_source_file>  (1) 
generated__ligand_DiffSBDD_2026-05-06_prepared.sdf

>  <GenAI_Model>  (1) 
DiffSBDD

>  <Protein>  (1) 
GPCR_5HT2C

$$$$
DiffSBDD_44_num_sample_50
     RDKit          3D

  0  0  0  0  0  0  0  0  0  0999 V3000
M  V30 BEGIN CTAB
M  V30 COUNTS 65 67 0 0 1
M  V30 BEGIN ATOM
M  V30 1 C 40.858673 31.483436 65.902897 0
M  V30 2 C 38.231774 27.199277 54.932708 0
M  V30 3 C 40.010930 32.931774 61.909920 0
M  V30 4 O 38.128341 33.545586 56.982238 0
M  V30 5 O 42.762543 31.197959 67.355309 0
M  V30 6 C 39.342461 31.760364 61.199808 0
M  V30 7 F 40.291441 36.611689 61.783332 0
M  V30 8 C 38.684325 25.599546 56.748800 0
M  V30 9 C 39.368768 29.566968 55.191312 0 CFG=2
M  V30 10 O 39.859446 26.227416 58.653500 0
M  V30 11 C 41.701183 31.071465 64.675870 0
M  V30 12 C 40.470044 35.333288 62.187381 0
M  V30 13 C 41.705590 31.787136 67.139467 0
M  V30 14 C 37.964873 25.950282 55.665004 0
M  V30 15 O 37.556879 27.565172 53.969052 0
M  V30 16 O 41.012898 31.358990 63.460444 0
M  V30 17 O 36.186255 33.003183 59.823134 0
M  V30 18 C 39.787221 27.751303 56.929597 0
M  V30 19 C 38.271278 33.536062 55.570404 0
M  V30 20 C 41.184171 32.853054 68.094825 0
M  V30 21 O 39.211124 29.853219 53.814236 0
M  V30 22 C 41.282853 35.061369 63.293821 0
M  V30 23 C 39.435710 28.037136 55.441765 0 CFG=1
M  V30 24 C 38.459677 32.848814 59.144823 0 CFG=2
M  V30 25 C 39.836149 34.283991 61.495234 0
M  V30 26 C 38.972815 31.206318 57.146983 0
M  V30 27 C 40.835415 32.668207 63.039228 0
M  V30 28 C 37.245785 24.021438 56.513674 0
M  V30 29 C 38.321619 30.340471 56.034749 0
M  V30 30 O 38.295516 24.428007 57.317464 0
M  V30 31 N 39.735884 26.338199 57.273831 0
M  V30 32 O 37.422710 33.745324 59.570033 0
M  V30 33 C 41.469741 33.740841 63.721551 0
M  V30 34 C 38.073673 32.323981 57.734363 0 CFG=2
M  V30 35 N 38.667519 31.779641 60.104482 0
M  V30 36 C 37.023302 24.911524 55.490487 0
M  V30 37 H 40.279899 32.378358 65.677321 0
M  V30 38 H 40.133421 30.704651 66.138426 0
M  V30 39 H 39.471487 30.796899 61.699251 0
M  V30 40 H 40.357612 29.963254 55.422030 0
M  V30 41 H 40.678698 25.776789 58.793994 0
M  V30 42 H 41.864139 29.993814 64.712834 0
M  V30 43 H 42.701366 31.508862 64.666327 0
M  V30 44 H 35.861124 32.891062 58.937022 0
M  V30 45 H 40.788388 28.126209 57.146706 0
M  V30 46 H 39.099605 28.281216 57.588773 0
M  V30 47 H 37.467401 33.022448 55.057328 0
M  V30 48 H 38.267727 34.566188 55.225498 0
M  V30 49 H 39.219232 33.107729 55.251698 0
M  V30 50 H 40.849188 33.730089 67.541178 0
M  V30 51 H 40.344506 32.466583 68.670166 0
M  V30 52 H 41.970623 33.162373 68.784439 0
M  V30 53 H 38.439943 29.394730 53.507123 0
M  V30 54 H 41.766135 35.872578 63.820027 0
M  V30 55 H 40.267193 27.642373 54.865365 0
M  V30 56 H 39.396801 33.386545 58.994278 0
M  V30 57 H 39.219352 34.527944 60.665237 0
M  V30 58 H 39.867619 31.680877 56.768330 0
M  V30 59 H 39.301703 30.531000 57.934080 0
M  V30 60 H 36.780288 23.092956 56.807151 0
M  V30 61 H 37.597987 29.659332 56.483924 0
M  V30 62 H 37.716130 30.953735 55.374303 0
M  V30 63 H 42.098860 33.550576 64.574839 0
M  V30 64 H 37.071564 31.920382 57.811215 0
M  V30 65 H 36.269018 24.821252 54.725482 0
M  V30 END ATOM
M  V30 BEGIN BOND
M  V30 1 1 6 3
M  V30 2 1 11 1
M  V30 3 1 12 7
M  V30 4 1 13 1
M  V30 5 2 13 5
M  V30 6 1 14 2
M  V30 7 2 14 8
M  V30 8 2 15 2
M  V30 9 1 16 11
M  V30 10 1 19 4
M  V30 11 1 20 13
M  V30 12 1 21 9
M  V30 13 1 22 12
M  V30 14 1 23 2
M  V30 15 1 23 9
M  V30 16 1 23 18
M  V30 17 1 25 3
M  V30 18 2 25 12
M  V30 19 2 27 3
M  V30 20 1 27 16
M  V30 21 1 29 9
M  V30 22 1 29 26
M  V30 23 1 30 8
M  V30 24 1 30 28
M  V30 25 1 31 8
M  V30 26 1 31 10
M  V30 27 1 31 18
M  V30 28 1 32 17
M  V30 29 1 32 24
M  V30 30 2 33 22
M  V30 31 1 33 27
M  V30 32 1 34 4
M  V30 33 1 34 24
M  V30 34 1 34 26
M  V30 35 2 35 6
M  V30 36 1 35 24
M  V30 37 1 36 14
M  V30 38 2 36 28
M  V30 39 1 37 1
M  V30 40 1 38 1
M  V30 41 1 39 6
M  V30 42 1 9 40 CFG=1
M  V30 43 1 41 10
M  V30 44 1 42 11
M  V30 45 1 43 11
M  V30 46 1 44 17
M  V30 47 1 45 18
M  V30 48 1 46 18
M  V30 49 1 47 19
M  V30 50 1 48 19
M  V30 51 1 49 19
M  V30 52 1 50 20
M  V30 53 1 51 20
M  V30 54 1 52 20
M  V30 55 1 53 21
M  V30 56 1 54 22
M  V30 57 1 23 55 CFG=3
M  V30 58 1 24 56 CFG=3
M  V30 59 1 57 25
M  V30 60 1 58 26
M  V30 61 1 59 26
M  V30 62 1 60 28
M  V30 63 1 61 29
M  V30 64 1 62 29
M  V30 65 1 63 33
M  V30 66 1 34 64 CFG=1
M  V30 67 1 65 36
M  V30 END BOND
M  V30 END CTAB
M  END
>  <i_epik_Tot_Q>  (1) 
0

>  <i_epik_Tot_abs_Q>  (1) 
0

>  <i_i_glide_confnum>  (1) 
460

>  <i_i_glide_lignum>  (1) 
103

>  <i_i_glide_posenum>  (1) 
400

>  <i_i_glide_rotatable_bonds>  (1) 
16

>  <i_lp_mmshare_version>  (1) 
72125

>  <i_m_source_file_index>  (1) 
45

>  <i_f3d_flags>  (1) 
0

>  <num_sample>  (1) 
50

>  <b_lp_Chiralities_Consistent>  (1) 
1

>  <r_epik_Charging_Adjusted_Penalty>  (1) 
0

>  <r_epik_Ionization_Penalty>  (1) 
0.00046426775496228489

>  <r_epik_Ionization_Penalty_Charging>  (1) 
0

>  <r_epik_Ionization_Penalty_Neutral>  (1) 
0.00046426775496228489

>  <r_epik_State_Penalty>  (1) 
-0

>  <r_glide_ring_energy>  (1) 
0

>  <r_i_docking_score>  (1) 
-7.2453762488597802

>  <r_i_glide_ecoul>  (1) 
-1.9096524463309312

>  <r_i_glide_eff_state_penalty>  (1) 
-0

>  <r_i_glide_einternal>  (1) 
21.255302683443674

>  <r_i_glide_emodel>  (1) 
-63.569689500413162

>  <r_i_glide_emodel_strain>  (1) 
3.7455244577766251

>  <r_i_glide_energy>  (1) 
-51.95552093097799

>  <r_i_glide_erotb>  (1) 
0.87096195952989475

>  <r_i_glide_esite>  (1) 
-0.082411518074189796

>  <r_i_glide_evdw>  (1) 
-50.045868484647059

>  <r_i_glide_gscore>  (1) 
-7.2453762488597802

>  <r_i_glide_gscore_strain>  (1) 
0

>  <r_i_glide_hbond>  (1) 
-0.04903175789358518

>  <r_i_glide_ligand_efficiency>  (1) 
-0.20126045135721612

>  <r_i_glide_ligand_efficiency_ln>  (1) 
-1.5807453500563646

>  <r_i_glide_ligand_efficiency_sa>  (1) 
-0.66454736846122353

>  <r_i_glide_lipo>  (1) 
-3.4780335735034451

>  <r_i_glide_metal>  (1) 
-0

>  <r_i_glide_rewards>  (1) 
-1.7181200677364614

>  <r_lp_Energy>  (1) 
33.654626

>  <r_lp_tautomer_probability>  (1) 
1

>  <s_epik_Chemistry_Notes>  (1) 
This compound has an imine and may undergo hydrolysis. This compound contains an acetal/aminal-like group ( X-CH(R)-Y where X, Y are N, S, or O) that may be acid/base labile, releasing an aldehyde. This compound has a N-S or N-O group and may undergo hydrolysis at high or low pH.

>  <s_epik_cmdline>  (1) 
J2VwaWtfcHl0aG9uJywgJy1waHQnLCAnMS4wJywgJy1waCcsICc3LjQnLCAnLXRuJywgJzgnLCAnLW1hJywgJzUwMCcsICctaW1hZScsICc8aW5maWxlLm1hZT4nLCAnLW9tYWUnLCAnPG91dGZpbGUubWFlPic=

>  <s_epik_input>  (1) 
Tz1DKFtDSDNdKVtDSDJdW0NIMl1PYzFbY0hdW2NIXWMoRilbY0hdYzEvW0NIXT1OXFtDQEhdKE9bT0hdKVtDQEBIXShPW0NIM10pW0NIMl1bQ0gyXVtDQEhdKFtPSF0pW0NAQEhdKFtDSDJdTjJbT0hdKUMoPU8pYyhjMjMpW2NIXVtjSF1vMw==

>  <s_glide_docking_method>  (1) 
confgen

>  <s_i_glide_gridfile>  (1) 
gpcr_5ht2c_6bqh_protein_autoprepared_prepared

>  <s_lp_Force_Field>  (1) 
S-OPLS

>  <s_lp_Variant>  (1) 
DiffSBDD_44_num_sample_50-2

>  <s_m_source_file>  (1) 
generated__ligand_DiffSBDD_2026-05-06_prepared.sdf

>  <GenAI_Model>  (1) 
DiffSBDD

>  <Protein>  (1) 
GPCR_5HT2C

$$$$
DiffSBDD_13_num_sample_50
     RDKit          3D

  0  0  0  0  0  0  0  0  0  0999 V3000
M  V30 BEGIN CTAB
M  V30 COUNTS 68 71 0 0 1
M  V30 BEGIN ATOM
M  V30 1 C 37.111907 33.508709 59.820332 0
M  V30 2 C 38.443096 25.497174 56.484970 0
M  V30 3 N 41.647625 30.446241 63.525186 0
M  V30 4 C 38.422014 27.519136 54.527478 0
M  V30 5 C 41.127388 32.182405 64.738061 0
M  V30 6 N 38.919960 29.920244 53.993091 0 CFG=2 CHG=1
M  V30 7 F 37.397067 23.621484 57.453224 0
M  V30 8 C 40.125846 30.732500 61.611237 0
M  V30 9 C 40.201074 30.026746 51.810953 0 CFG=1
M  V30 10 C 37.408275 30.394233 59.932911 0
M  V30 11 C 39.656962 30.787813 53.020713 0
M  V30 12 C 40.698892 31.200162 62.953862 0
M  V30 13 C 38.322404 32.761587 59.220069 0 CFG=1
M  V30 14 N 41.448112 29.047046 63.561825 0
M  V30 15 N 39.206799 29.129795 51.283319 0
M  V30 16 O 40.523013 29.722561 61.022625 0
M  V30 17 O 35.871361 32.931705 59.453530 0
M  V30 18 C 38.403010 28.604187 53.467819 0 CFG=1
M  V30 19 C 38.263373 31.733946 56.943646 0
M  V30 20 C 38.447045 24.426101 57.543521 0
M  V30 21 C 37.467436 26.487815 54.483884 0
M  V30 22 C 40.519703 30.820905 50.562510 0
M  V30 23 C 37.476190 25.477280 55.459517 0
M  V30 24 C 37.879837 30.688016 54.735654 0
M  V30 25 N 40.289152 32.275178 63.488818 0
M  V30 26 C 40.278087 29.799304 49.453475 0
M  V30 27 C 39.401821 27.529332 55.546996 0
M  V30 28 C 39.407073 26.522118 56.524551 0
M  V30 29 O 41.991632 30.978550 64.750511 0
M  V30 30 C 38.116475 30.647078 56.225640 0
M  V30 31 C 38.604175 31.360950 59.842892 0 CFG=1
M  V30 32 O 39.157303 31.552494 61.139956 0
M  V30 33 C 39.118622 28.046489 52.227505 0
M  V30 34 C 38.259036 32.809363 57.696252 0
M  V30 35 O 39.867244 28.624859 50.129459 0
M  V30 36 H 37.108846 34.543323 59.476087 0
M  V30 37 H 37.178943 33.540542 60.907911 0
M  V30 38 H 41.760652 33.068123 64.830354 0
M  V30 39 H 40.485627 32.165492 65.619321 0
M  V30 40 H 41.067434 29.439220 52.086821 0
M  V30 41 H 36.880636 30.304126 58.983258 0
M  V30 42 H 37.752658 29.399587 60.207304 0
M  V30 43 H 36.684506 30.712664 60.684493 0
M  V30 44 H 39.067431 31.631839 52.674566 0
M  V30 45 H 40.499211 31.222377 53.556499 0
M  V30 46 H 39.200691 33.367775 59.453409 0
M  V30 47 H 40.950386 28.759548 62.720219 0
M  V30 48 H 42.353055 28.579810 63.575840 0
M  V30 49 H 35.866244 32.707465 58.523395 0
M  V30 50 H 37.367014 28.754019 53.154343 0
M  V30 51 H 39.347904 23.815784 57.471861 0
M  V30 52 H 38.382443 24.903031 58.521154 0
M  V30 53 H 36.726782 26.472354 53.697548 0
M  V30 54 H 39.831418 31.654847 50.440288 0
M  V30 55 H 41.536825 31.208806 50.569892 0
M  V30 56 H 36.738437 24.688035 55.422994 0
M  V30 57 H 36.876681 30.297034 54.562351 0
M  V30 58 H 37.828784 31.729773 54.414265 0
M  V30 59 H 41.163239 29.621431 48.846001 0
M  V30 60 H 39.467638 30.125173 48.801599 0
M  V30 61 H 40.146050 28.309389 55.582163 0
M  V30 62 H 40.151189 26.536027 57.308184 0
M  V30 63 H 38.151406 29.670509 56.684165 0
M  V30 64 H 39.363598 30.881812 59.224770 0
M  V30 65 H 38.528256 27.240124 51.791894 0
M  V30 66 H 40.094776 27.620917 52.460120 0
M  V30 67 H 38.204203 33.792935 57.252359 0
M  V30 68 H 39.613878 29.665383 54.679298 0
M  V30 END ATOM
M  V30 BEGIN BOND
M  V30 1 1 11 6
M  V30 2 1 11 9
M  V30 3 1 12 3
M  V30 4 1 12 8
M  V30 5 1 13 1
M  V30 6 1 14 3
M  V30 7 1 15 9
M  V30 8 2 16 8
M  V30 9 1 17 1
M  V30 10 1 18 4
M  V30 11 1 18 6
M  V30 12 1 20 2
M  V30 13 1 20 7
M  V30 14 1 21 4
M  V30 15 1 22 9
M  V30 16 1 23 2
M  V30 17 2 23 21
M  V30 18 1 24 6
M  V30 19 1 25 5
M  V30 20 2 25 12
M  V30 21 1 26 22
M  V30 22 2 27 4
M  V30 23 2 28 2
M  V30 24 1 28 27
M  V30 25 1 29 3
M  V30 26 1 29 5
M  V30 27 2 30 19
M  V30 28 1 30 24
M  V30 29 1 31 10
M  V30 30 1 31 13
M  V30 31 1 32 8
M  V30 32 1 32 31
M  V30 33 1 33 15
M  V30 34 1 33 18
M  V30 35 1 34 13
M  V30 36 2 34 19
M  V30 37 1 35 15
M  V30 38 1 35 26
M  V30 39 1 36 1
M  V30 40 1 37 1
M  V30 41 1 38 5
M  V30 42 1 39 5
M  V30 43 1 9 40 CFG=1
M  V30 44 1 41 10
M  V30 45 1 42 10
M  V30 46 1 43 10
M  V30 47 1 44 11
M  V30 48 1 45 11
M  V30 49 1 13 46 CFG=1
M  V30 50 1 47 14
M  V30 51 1 48 14
M  V30 52 1 49 17
M  V30 53 1 18 50 CFG=3
M  V30 54 1 51 20
M  V30 55 1 52 20
M  V30 56 1 53 21
M  V30 57 1 54 22
M  V30 58 1 55 22
M  V30 59 1 56 23
M  V30 60 1 57 24
M  V30 61 1 58 24
M  V30 62 1 59 26
M  V30 63 1 60 26
M  V30 64 1 61 27
M  V30 65 1 62 28
M  V30 66 1 63 30
M  V30 67 1 31 64 CFG=3
M  V30 68 1 65 33
M  V30 69 1 66 33
M  V30 70 1 67 34
M  V30 71 1 6 68 CFG=1
M  V30 END BOND
M  V30 END CTAB
M  END
>  <i_epik_Tot_Q>  (1) 
1

>  <i_epik_Tot_abs_Q>  (1) 
1

>  <i_i_glide_confnum>  (1) 
154

>  <i_i_glide_lignum>  (1) 
44

>  <i_i_glide_posenum>  (1) 
56

>  <i_i_glide_rotatable_bonds>  (1) 
11

>  <i_lp_mmshare_version>  (1) 
72125

>  <i_m_source_file_index>  (1) 
14

>  <i_f3d_flags>  (1) 
0

>  <num_sample>  (1) 
50

>  <b_lp_Chiralities_Consistent>  (1) 
1

>  <r_epik_Charging_Adjusted_Penalty>  (1) 
1.4651263053542571

>  <r_epik_Ionization_Penalty>  (1) 
0.72306607658712641

>  <r_epik_Ionization_Penalty_Charging>  (1) 
0.72300917426663169

>  <r_epik_Ionization_Penalty_Neutral>  (1) 
5.6902320494737884e-05

>  <r_epik_State_Penalty>  (1) 
0.74211713108762534

>  <r_glide_ring_energy>  (1) 
0

>  <r_i_docking_score>  (1) 
-7.2434551434674868

>  <r_i_glide_ecoul>  (1) 
-3.3857428195553183

>  <r_i_glide_eff_state_penalty>  (1) 
0.74211713108762534

>  <r_i_glide_einternal>  (1) 
8.6129520797814685

>  <r_i_glide_emodel>  (1) 
-66.349841332119283

>  <r_i_glide_emodel_strain>  (1) 
5.7094398202301022

>  <r_i_glide_energy>  (1) 
-53.668117386326003

>  <r_i_glide_erotb>  (1) 
0.76112016271400151

>  <r_i_glide_esite>  (1) 
0

>  <r_i_glide_evdw>  (1) 
-50.282374566770685

>  <r_i_glide_gscore>  (1) 
-7.9855722745551123

>  <r_i_glide_gscore_strain>  (1) 
0.42735995505752555

>  <r_i_glide_hbond>  (1) 
-0.36184839816935482

>  <r_i_glide_ligand_efficiency>  (1) 
-0.20695586124192819

>  <r_i_glide_ligand_efficiency_ln>  (1) 
-1.5900991638165125

>  <r_i_glide_ligand_efficiency_sa>  (1) 
-0.67696634540453593

>  <r_i_glide_lipo>  (1) 
-3.6733239922192293

>  <r_i_glide_metal>  (1) 
-0

>  <r_i_glide_rewards>  (1) 
-2.1168998506662238

>  <r_lp_Energy>  (1) 
-5.3362069999999999

>  <s_epik_Chemistry_Notes>  (1) 
This compound has an ester and may undergo hydrolysis at high or low pH. This compound has an imine and may undergo hydrolysis. This compound contains an acetal/aminal-like group ( X-CH(R)-Y where X, Y are N, S, or O) that may be acid/base labile, releasing an aldehyde. This compound has a N-S or N-O group and may undergo hydrolysis at high or low pH.

>  <s_epik_cmdline>  (1) 
J2VwaWtfcHl0aG9uJywgJy1waHQnLCAnMS4wJywgJy1waCcsICc3LjQnLCAnLXRuJywgJzgnLCAnLW1hJywgJzUwMCcsICctaW1hZScsICc8aW5maWxlLm1hZT4nLCAnLW9tYWUnLCAnPG91dGZpbGUubWFlPic=

>  <s_epik_input>  (1) 
TzFbQ0gyXU49QyhOMVtOSDJdKUMoPU8pT1tDQEBIXShbQ0gzXSlbQ0BIXShbQ0gyXVtPSF0pW0NIXT1DPVtDSF1bQ0gyXU4oW0NIMl0yKVtDQEhdKGMoW2NIXVtjSF0zKVtjSF1bY0hdYzNbQ0gyXUYpW0NIMl1OKFtDQEhdMjQpT1tDSDJdW0NIMl00

>  <s_glide_docking_method>  (1) 
confgen

>  <s_i_glide_gridfile>  (1) 
gpcr_5ht2c_6bqh_protein_autoprepared_prepared

>  <s_lp_Force_Field>  (1) 
S-OPLS

>  <s_lp_Variant>  (1) 
DiffSBDD_13_num_sample_50-3

>  <s_m_source_file>  (1) 
generated__ligand_DiffSBDD_2026-05-06_prepared.sdf

>  <GenAI_Model>  (1) 
DiffSBDD

>  <Protein>  (1) 
GPCR_5HT2C

$$$$
DiffSBDD_29_num_sample_50
     RDKit          3D

  0  0  0  0  0  0  0  0  0  0999 V3000
M  V30 BEGIN CTAB
M  V30 COUNTS 79 81 0 0 1
M  V30 BEGIN ATOM
M  V30 1 C 41.463723 29.511096 65.160811 0
M  V30 2 C 39.537936 29.566337 58.441578 0
M  V30 3 C 42.469276 30.599069 64.765335 0
M  V30 4 C 39.670682 29.913992 52.712703 0
M  V30 5 C 36.909877 34.505808 61.453487 0
M  V30 6 C 39.067394 27.550584 53.536668 0
M  V30 7 C 40.440685 32.967297 61.698754 0 CFG=2
M  V30 8 N 37.598246 31.117780 58.306646 0 CHG=1
M  V30 9 C 38.200351 33.924155 61.001589 0 CFG=1
M  V30 10 N 38.931277 27.960887 54.736841 0
M  V30 11 C 39.185122 33.670735 62.160235 0
M  V30 12 C 37.990072 32.435720 58.860413 0 CFG=2
M  V30 13 O 37.067297 30.421428 55.701935 0
M  V30 14 O 40.595452 31.612563 62.140825 0
M  V30 15 C 35.847020 33.774460 61.271893 0
M  V30 16 C 38.047204 28.446596 51.466259 0
M  V30 17 C 36.907994 35.900813 62.073487 0
M  V30 18 C 41.529094 32.844840 64.070893 0
M  V30 19 C 37.598960 32.574351 60.355319 0 CFG=2
M  V30 20 C 38.890317 30.361840 53.910064 0
M  V30 21 C 41.662962 28.122764 64.543147 0
M  V30 22 F 41.459670 28.186622 63.227363 0
M  V30 23 O 38.733686 27.253704 58.252555 0
M  V30 24 O 40.267379 28.021640 51.453986 0
M  V30 25 C 37.036867 37.001494 61.010899 0
M  V30 26 C 38.651263 30.429822 57.503936 0 CFG=2
M  V30 27 F 42.909403 27.705843 64.766954 0
M  V30 28 C 36.024580 32.456630 60.626612 0
M  V30 29 C 38.877171 28.351647 59.125813 0
M  V30 30 C 38.063863 29.651713 56.297396 0 CFG=2
M  V30 31 C 41.924561 31.992099 65.031689 0
M  V30 32 F 40.816154 27.236927 65.069539 0
M  V30 33 C 39.054476 29.368793 55.117605 0 CFG=1
M  V30 34 O 40.538607 29.742376 65.942692 0
M  V30 35 C 41.567224 32.559516 62.613598 0 CFG=2
M  V30 36 C 39.278824 28.476178 52.336462 0 CFG=1
M  V30 37 C 37.444000 33.551069 57.952776 0
M  V30 38 H 39.867471 30.208518 59.256397 0
M  V30 39 H 40.441816 29.246850 57.921708 0
M  V30 40 H 42.717602 30.479543 63.711045 0
M  V30 41 H 43.392089 30.460780 65.328467 0
M  V30 42 H 40.696934 30.005161 52.997407 0
M  V30 43 H 39.539506 30.601355 51.876480 0
M  V30 44 H 39.031376 26.486406 53.290733 0
M  V30 45 H 40.668381 33.109575 60.652440 0
M  V30 46 H 36.794386 31.320749 57.713911 0
M  V30 47 H 38.657939 34.579489 60.261732 0
M  V30 48 H 39.480889 34.618407 62.609915 0
M  V30 49 H 38.716630 33.075450 62.944517 0
M  V30 50 H 39.074936 32.511344 58.834200 0
M  V30 51 H 36.353935 30.684378 56.281095 0
M  V30 52 H 34.858983 34.095850 61.560439 0
M  V30 53 H 37.149441 28.779649 51.988365 0
M  V30 54 H 38.267391 29.125941 50.653454 0
M  V30 55 H 37.867374 27.453917 51.053383 0
M  V30 56 H 35.993640 36.037532 62.653455 0
M  V30 57 H 37.717217 36.021344 62.792329 0
M  V30 58 H 41.153505 33.816035 64.358215 0
M  V30 59 H 38.059267 31.731668 60.873630 0
M  V30 60 H 37.868166 30.422797 53.540861 0
M  V30 61 H 39.182687 31.372184 54.199173 0
M  V30 62 H 39.585024 26.990393 57.933179 0
M  V30 63 H 39.936295 27.260260 51.000751 0
M  V30 64 H 36.940283 37.991317 61.458854 0
M  V30 65 H 38.004435 36.956193 60.510809 0
M  V30 66 H 36.266436 36.910979 60.244883 0
M  V30 67 H 39.278675 31.207091 57.063391 0
M  V30 68 H 35.417709 32.375755 59.723968 0
M  V30 69 H 35.771299 31.651471 61.316634 0
M  V30 70 H 37.905129 28.614678 59.542613 0
M  V30 71 H 39.495795 28.022254 59.961712 0
M  V30 72 H 37.569564 28.744136 56.638405 0
M  V30 73 H 41.857413 32.291586 66.067864 0
M  V30 74 H 40.070486 29.495785 55.494512 0
M  V30 75 H 42.564512 32.444736 62.193058 0
M  V30 76 H 37.826979 34.524317 58.232042 0
M  V30 77 H 37.719196 33.388303 56.910189 0
M  V30 78 H 36.358142 33.621532 57.994939 0
M  V30 79 H 37.289176 30.507728 59.047511 0
M  V30 END ATOM
M  V30 BEGIN BOND
M  V30 1 1 3 1
M  V30 2 1 9 5
M  V30 3 2 10 6
M  V30 4 1 11 7
M  V30 5 1 11 9
M  V30 6 1 12 8
M  V30 7 1 14 7
M  V30 8 2 15 5
M  V30 9 1 17 5
M  V30 10 1 19 9
M  V30 11 1 19 12
M  V30 12 1 20 4
M  V30 13 1 21 1
M  V30 14 1 22 21
M  V30 15 1 25 17
M  V30 16 1 26 2
M  V30 17 1 26 8
M  V30 18 1 27 21
M  V30 19 1 28 15
M  V30 20 1 28 19
M  V30 21 1 29 2
M  V30 22 1 29 23
M  V30 23 1 30 13
M  V30 24 1 30 26
M  V30 25 1 31 3
M  V30 26 2 31 18
M  V30 27 1 32 21
M  V30 28 1 33 10
M  V30 29 1 33 20
M  V30 30 1 33 30
M  V30 31 2 34 1
M  V30 32 1 35 7
M  V30 33 1 35 14
M  V30 34 1 35 18
M  V30 35 1 36 4
M  V30 36 1 36 6
M  V30 37 1 36 16
M  V30 38 1 36 24 CFG=3
M  V30 39 1 37 12
M  V30 40 1 38 2
M  V30 41 1 39 2
M  V30 42 1 40 3
M  V30 43 1 41 3
M  V30 44 1 42 4
M  V30 45 1 43 4
M  V30 46 1 44 6
M  V30 47 1 7 45 CFG=3
M  V30 48 1 46 8
M  V30 49 1 9 47 CFG=3
M  V30 50 1 48 11
M  V30 51 1 49 11
M  V30 52 1 12 50 CFG=1
M  V30 53 1 51 13
M  V30 54 1 52 15
M  V30 55 1 53 16
M  V30 56 1 54 16
M  V30 57 1 55 16
M  V30 58 1 56 17
M  V30 59 1 57 17
M  V30 60 1 58 18
M  V30 61 1 19 59 CFG=1
M  V30 62 1 60 20
M  V30 63 1 61 20
M  V30 64 1 62 23
M  V30 65 1 63 24
M  V30 66 1 64 25
M  V30 67 1 65 25
M  V30 68 1 66 25
M  V30 69 1 26 67 CFG=3
M  V30 70 1 68 28
M  V30 71 1 69 28
M  V30 72 1 70 29
M  V30 73 1 71 29
M  V30 74 1 30 72 CFG=1
M  V30 75 1 73 31
M  V30 76 1 33 74 CFG=1
M  V30 77 1 35 75 CFG=3
M  V30 78 1 76 37
M  V30 79 1 77 37
M  V30 80 1 78 37
M  V30 81 1 79 8
M  V30 END BOND
M  V30 END CTAB
M  END
>  <i_epik_Tot_Q>  (1) 
1

>  <i_epik_Tot_abs_Q>  (1) 
1

>  <i_i_glide_confnum>  (1) 
2206

>  <i_i_glide_lignum>  (1) 
76

>  <i_i_glide_posenum>  (1) 
247

>  <i_i_glide_rotatable_bonds>  (1) 
17

>  <i_lp_mmshare_version>  (1) 
72125

>  <i_m_source_file_index>  (1) 
30

>  <i_f3d_flags>  (1) 
0

>  <num_sample>  (1) 
50

>  <b_lp_Chiralities_Consistent>  (1) 
1

>  <r_epik_Charging_Adjusted_Penalty>  (1) 
0.073066720001252791

>  <r_epik_Ionization_Penalty>  (1) 
0.041882768558209021

>  <r_epik_Ionization_Penalty_Charging>  (1) 
0.011280877963412759

>  <r_epik_Ionization_Penalty_Neutral>  (1) 
0.030601890594796264

>  <r_epik_State_Penalty>  (1) 
0.061785842037840037

>  <r_glide_ring_energy>  (1) 
0

>  <r_i_docking_score>  (1) 
-7.2376855514587488

>  <r_i_glide_ecoul>  (1) 
-8.3844533190758703

>  <r_i_glide_eff_state_penalty>  (1) 
0.061785842037840037

>  <r_i_glide_einternal>  (1) 
24.430185070398629

>  <r_i_glide_emodel>  (1) 
-52.608032996699663

>  <r_i_glide_emodel_strain>  (1) 
3.3386911327765461

>  <r_i_glide_energy>  (1) 
-44.936945066379892

>  <r_i_glide_erotb>  (1) 
0.87550365807384167

>  <r_i_glide_esite>  (1) 
-0.093213633542711255

>  <r_i_glide_evdw>  (1) 
-36.552491747304025

>  <r_i_glide_gscore>  (1) 
-7.2994713934965887

>  <r_i_glide_gscore_strain>  (1) 
0

>  <r_i_glide_hbond>  (1) 
-0.35999999999999999

>  <r_i_glide_ligand_efficiency>  (1) 
-0.19561312301239861

>  <r_i_glide_ligand_efficiency_ln>  (1) 
-1.5696843206883619

>  <r_i_glide_ligand_efficiency_sa>  (1) 
-0.6518263229706226

>  <r_i_glide_lipo>  (1) 
-3.4094256875913125

>  <r_i_glide_metal>  (1) 
-0

>  <r_i_glide_rewards>  (1) 
-1.2270431452098247

>  <r_lp_Energy>  (1) 
32.688037999999999

>  <s_epik_Chemistry_Notes>  (1) 
This compound has an imine and may undergo hydrolysis.

>  <s_epik_cmdline>  (1) 
J2VwaWtfcHl0aG9uJywgJy1waHQnLCAnMS4wJywgJy1waCcsICc3LjQnLCAnLXRuJywgJzgnLCAnLW1hJywgJzUwMCcsICctaW1hZScsICc8aW5maWxlLm1hZT4nLCAnLW9tYWUnLCAnPG91dGZpbGUubWFlPic=

>  <s_epik_input>  (1) 
RkMoRikoRilDKD1PKVtDSDJdL1tDSF09W0NIXVxbQ0BIXTFPW0NASF0xW0NIMl1bQ0BIXTJbQ0BIXShbQ0gyXVtDSF09QzJbQ0gyXVtDSDNdKVtDQEhdKFtDSDNdKVtOSF1bQ0BASF0oW0NIMl1bQ0gyXVtPSF0pW0NAQEhdKFtPSF0pW0NAQEhdKE49W0NIXTMpW0NIMl1bQ0gyXVtDQEBdMyhbQ0gzXSlbT0hd

>  <s_glide_docking_method>  (1) 
confgen

>  <s_i_glide_gridfile>  (1) 
gpcr_5ht2c_6bqh_protein_autoprepared_prepared

>  <s_lp_Force_Field>  (1) 
S-OPLS

>  <s_lp_Variant>  (1) 
DiffSBDD_29_num_sample_50-4

>  <s_m_source_file>  (1) 
generated__ligand_DiffSBDD_2026-05-06_prepared.sdf

>  <GenAI_Model>  (1) 
DiffSBDD

>  <Protein>  (1) 
GPCR_5HT2C

$$$$
DiffSBDD_25_num_sample_50
     RDKit          3D

  0  0  0  0  0  0  0  0  0  0999 V3000
M  V30 BEGIN CTAB
M  V30 COUNTS 59 60 0 0 1
M  V30 BEGIN ATOM
M  V30 1 C 38.265224 28.121392 55.146040 0 CFG=2
M  V30 2 C 39.356123 29.900693 53.656203 0
M  V30 3 C 36.133108 34.929141 59.339186 0
M  V30 4 C 36.644104 36.363213 59.178962 0
M  V30 5 C 38.011787 31.792123 58.165708 0 CFG=1
M  V30 6 C 38.830065 28.594695 53.789277 0
M  V30 7 C 39.162667 28.424958 56.384060 0
M  V30 8 C 38.820032 27.734565 52.661898 0
M  V30 9 C 36.233221 31.850108 60.569637 0
M  V30 10 C 39.867634 29.479293 51.323491 0
M  V30 11 C 37.940706 30.646038 57.125276 0 CFG=1
M  V30 12 C 37.105976 35.622883 61.413011 0
M  V30 13 N 37.467404 31.221444 55.853504 0 CHG=1
M  V30 14 C 37.637430 31.248437 60.499812 0
M  V30 15 C 39.867456 30.335629 52.429336 0
M  V30 16 C 39.271145 29.868015 56.943379 0
M  V30 17 N 37.148225 36.782848 60.500835 0 CHG=1
M  V30 18 N 38.389524 31.270692 59.467084 0
M  V30 19 C 36.913293 34.380540 60.534124 0 CFG=1
M  V30 20 C 38.928045 25.585764 55.198288 0
M  V30 21 C 36.219221 33.218839 61.280840 0
M  V30 22 C 39.341858 28.179654 51.433637 0
M  V30 23 C 37.800722 26.637352 55.197238 0
M  V30 24 Cl 40.514372 30.021440 49.839189 0
M  V30 25 O 38.929172 32.765370 57.719933 0
M  V30 26 H 37.348237 28.691959 55.253493 0
M  V30 27 H 39.372575 30.567239 54.486825 0
M  V30 28 H 36.267461 34.347396 58.428706 0
M  V30 29 H 35.067280 34.936724 59.556281 0
M  V30 30 H 37.467233 36.401105 58.466484 0
M  V30 31 H 35.867459 37.035750 58.816194 0
M  V30 32 H 37.067465 32.317124 58.177759 0
M  V30 33 H 40.167047 28.039578 56.203436 0
M  V30 34 H 38.781071 27.830070 57.215277 0
M  V30 35 H 38.418149 26.737874 52.735424 0
M  V30 36 H 35.713799 31.877827 59.614486 0
M  V30 37 H 35.629071 31.164297 61.164131 0
M  V30 38 H 37.175922 29.944720 57.462157 0
M  V30 39 H 36.267416 35.743092 62.098905 0
M  V30 40 H 38.012506 35.564561 62.016880 0
M  V30 41 H 38.066240 31.990457 55.589775 0
M  V30 42 H 37.393665 30.531887 55.123206 0
M  V30 43 H 37.972884 30.785040 61.431646 0
M  V30 44 H 40.270241 31.333696 52.336800 0
M  V30 45 H 39.994302 30.467259 56.398112 0
M  V30 46 H 39.746007 29.752304 57.917558 0
M  V30 47 H 38.102816 37.098229 60.401661 0
M  V30 48 H 37.900647 34.070894 60.189929 0
M  V30 49 H 38.512117 24.579870 55.129749 0
M  V30 50 H 39.617991 25.709736 54.364720 0
M  V30 51 H 39.515577 25.629225 56.115782 0
M  V30 52 H 35.185869 33.496185 61.496320 0
M  V30 53 H 36.696076 33.098256 62.253603 0
M  V30 54 H 39.339662 27.522163 50.575778 0
M  V30 55 H 37.218865 26.481451 56.106803 0
M  V30 56 H 37.091873 26.433014 54.394529 0
M  V30 57 H 39.623758 32.821279 58.358707 0
M  V30 58 H 36.584499 37.535122 60.872209 0
M  V30 59 H 36.531005 31.598994 56.091374 0
M  V30 END ATOM
M  V30 BEGIN BOND
M  V30 1 1 4 3
M  V30 2 1 6 1
M  V30 3 1 6 2
M  V30 4 1 7 1
M  V30 5 2 8 6
M  V30 6 1 11 5
M  V30 7 1 13 11
M  V30 8 1 14 9
M  V30 9 2 15 2
M  V30 10 1 15 10
M  V30 11 1 16 7
M  V30 12 1 16 11
M  V30 13 1 17 4
M  V30 14 1 17 12
M  V30 15 1 18 5
M  V30 16 2 18 14
M  V30 17 1 19 3
M  V30 18 1 19 12
M  V30 19 1 21 9
M  V30 20 1 21 19
M  V30 21 1 22 8
M  V30 22 2 22 10
M  V30 23 1 23 1
M  V30 24 1 23 20
M  V30 25 1 24 10
M  V30 26 1 25 5
M  V30 27 1 1 26 CFG=1
M  V30 28 1 27 2
M  V30 29 1 28 3
M  V30 30 1 29 3
M  V30 31 1 30 4
M  V30 32 1 31 4
M  V30 33 1 5 32 CFG=1
M  V30 34 1 33 7
M  V30 35 1 34 7
M  V30 36 1 35 8
M  V30 37 1 36 9
M  V30 38 1 37 9
M  V30 39 1 11 38 CFG=1
M  V30 40 1 39 12
M  V30 41 1 40 12
M  V30 42 1 41 13
M  V30 43 1 42 13
M  V30 44 1 43 14
M  V30 45 1 44 15
M  V30 46 1 45 16
M  V30 47 1 46 16
M  V30 48 1 47 17
M  V30 49 1 19 48 CFG=3
M  V30 50 1 49 20
M  V30 51 1 50 20
M  V30 52 1 51 20
M  V30 53 1 52 21
M  V30 54 1 53 21
M  V30 55 1 54 22
M  V30 56 1 55 23
M  V30 57 1 56 23
M  V30 58 1 57 25
M  V30 59 1 58 17
M  V30 60 1 59 13
M  V30 END BOND
M  V30 END CTAB
M  END
>  <i_epik_Tot_Q>  (1) 
2

>  <i_epik_Tot_abs_Q>  (1) 
2

>  <i_i_glide_confnum>  (1) 
40

>  <i_i_glide_lignum>  (1) 
67

>  <i_i_glide_posenum>  (1) 
158

>  <i_i_glide_rotatable_bonds>  (1) 
11

>  <i_lp_mmshare_version>  (1) 
72125

>  <i_m_source_file_index>  (1) 
26

>  <i_f3d_flags>  (1) 
0

>  <num_sample>  (1) 
50

>  <b_lp_Chiralities_Consistent>  (1) 
1

>  <r_epik_Charging_Adjusted_Penalty>  (1) 
0.45127827763218775

>  <r_epik_Ionization_Penalty>  (1) 
0.041210974459634293

>  <r_epik_Ionization_Penalty_Charging>  (1) 
0.040598438679583813

>  <r_epik_Ionization_Penalty_Neutral>  (1) 
0.0006125357800504809

>  <r_epik_State_Penalty>  (1) 
0.41067983895260396

>  <r_glide_ring_energy>  (1) 
0

>  <r_i_docking_score>  (1) 
-7.23464233306788

>  <r_i_glide_ecoul>  (1) 
-7.5499017310934384

>  <r_i_glide_eff_state_penalty>  (1) 
0.41067983895260396

>  <r_i_glide_einternal>  (1) 
14.353816861627344

>  <r_i_glide_emodel>  (1) 
-64.155403327739805

>  <r_i_glide_emodel_strain>  (1) 
1.7514077412292934

>  <r_i_glide_energy>  (1) 
-45.147507897736133

>  <r_i_glide_erotb>  (1) 
0.99595821917536853

>  <r_i_glide_esite>  (1) 
-0.19128716391558484

>  <r_i_glide_evdw>  (1) 
-37.597606166642699

>  <r_i_glide_gscore>  (1) 
-7.6453221720204843

>  <r_i_glide_gscore_strain>  (1) 
0

>  <r_i_glide_hbond>  (1) 
-0.19277423606376229

>  <r_i_glide_ligand_efficiency>  (1) 
-0.28938569332271519

>  <r_i_glide_ligand_efficiency_ln>  (1) 
-1.7148270376727413

>  <r_i_glide_ligand_efficiency_sa>  (1) 
-0.84616890046064785

>  <r_i_glide_lipo>  (1) 
-3.4446248777658082

>  <r_i_glide_metal>  (1) 
-0

>  <r_i_glide_rewards>  (1) 
-1.8002285454545464

>  <r_lp_Energy>  (1) 
32.149031000000001

>  <r_lp_tautomer_probability>  (1) 
0.49999300000000002

>  <s_epik_Chemistry_Notes>  (1) 
This compound has an imine and may undergo hydrolysis. This compound contains an acetal/aminal-like group ( X-CH(R)-Y where X, Y are N, S, or O) that may be acid/base labile, releasing an aldehyde.

>  <s_epik_cmdline>  (1) 
J2VwaWtfcHl0aG9uJywgJy1waHQnLCAnMS4wJywgJy1waCcsICc3LjQnLCAnLXRuJywgJzgnLCAnLW1hJywgJzUwMCcsICctaW1hZScsICc8aW5maWxlLm1hZT4nLCAnLW9tYWUnLCAnPG91dGZpbGUubWFlPic=

>  <s_epik_input>  (1) 
W2NIXTFbY0hdYyhDbClbY0hdW2NIXWMxW0NAQEhdKFtDSDJdW0NIM10pW0NIMl1bQ0gyXVtDQEhdKFtOSDJdKVtDQEhdKFtPSF0pL049W0NIXVxbQ0gyXVtDSDJdW0NASF0yW0NIMl1bQ0gyXVtOSF1bQ0gyXTI=

>  <s_glide_docking_method>  (1) 
confgen

>  <s_i_glide_gridfile>  (1) 
gpcr_5ht2c_6bqh_protein_autoprepared_prepared

>  <s_lp_Force_Field>  (1) 
S-OPLS

>  <s_lp_Variant>  (1) 
DiffSBDD_25_num_sample_50-2

>  <s_m_source_file>  (1) 
generated__ligand_DiffSBDD_2026-05-06_prepared.sdf

>  <GenAI_Model>  (1) 
DiffSBDD

>  <Protein>  (1) 
GPCR_5HT2C

$$$$
DiffSBDD_4_num_sample_50
     RDKit          3D

  0  0  0  0  0  0  0  0  0  0999 V3000
M  V30 BEGIN CTAB
M  V30 COUNTS 72 74 0 0 1
M  V30 BEGIN ATOM
M  V30 1 C 39.373043 29.197723 52.618379 0
M  V30 2 C 40.228022 33.281159 62.587406 0
M  V30 3 C 40.636324 31.561738 64.203137 0
M  V30 4 N 38.761935 32.400281 61.166840 0
M  V30 5 C 37.376081 26.440585 56.975525 0
M  V30 6 C 41.544842 32.413207 64.884381 0
M  V30 7 C 39.466464 33.529979 61.406380 0
M  V30 8 N 39.309120 28.767644 55.790306 0
M  V30 9 C 37.927118 31.569869 57.517825 0
M  V30 10 C 38.370684 27.248351 54.003758 0
M  V30 11 O 37.245886 29.621433 55.335653 0
M  V30 12 C 37.877236 32.203373 60.022143 0
M  V30 13 F 39.892989 31.621399 51.140908 0
M  V30 14 C 39.457997 28.025329 50.512696 0
M  V30 15 C 38.984853 31.254750 62.184829 0
M  V30 16 C 40.181500 30.488503 50.516309 0
M  V30 17 N 38.815718 27.171727 51.518558 0 CHG=1
M  V30 18 C 41.117204 34.178474 63.224278 0
M  V30 19 C 38.821246 31.107151 56.345351 0
M  V30 20 C 39.266396 27.678115 52.825649 0 CFG=1
M  V30 21 C 39.999269 32.045740 63.049083 0
M  V30 22 O 40.386359 30.300795 64.666065 0
M  V30 23 C 41.786378 33.730693 64.392741 0
M  V30 24 C 39.301626 29.394041 51.109656 0 CFG=2
M  V30 25 C 38.809027 26.423353 56.427196 0
M  V30 26 C 38.383727 29.758779 55.777421 0
M  V30 27 N 38.999784 27.441798 55.344657 0
M  V30 28 C 39.108509 24.991550 55.930439 0
M  V30 29 C 41.358138 35.585370 62.694072 0
M  V30 30 N 40.293233 36.498115 63.054435 0
M  V30 31 F 41.476513 30.212066 50.653402 0
M  V30 32 C 38.711541 31.773616 58.809483 0
M  V30 33 C 39.777961 26.670084 57.609702 0
M  V30 34 O 39.472164 34.569589 60.746355 0
M  V30 35 H 38.528736 29.726720 53.056321 0
M  V30 36 H 40.268022 29.621920 53.059283 0
M  V30 37 H 37.121586 27.406634 57.413333 0
M  V30 38 H 36.666356 26.227297 56.178406 0
M  V30 39 H 37.233611 25.688011 57.751575 0
M  V30 40 H 42.049074 32.067091 65.774543 0
M  V30 41 H 39.661917 29.847283 64.254963 0
M  V30 42 H 40.233457 28.929359 56.161548 0
M  V30 43 H 37.118251 30.860040 57.709540 0
M  V30 44 H 37.467406 32.519416 57.247005 0
M  V30 45 H 38.166123 26.190445 53.865479 0
M  V30 46 H 37.388499 27.714913 53.957093 0
M  V30 47 H 37.131552 31.443848 60.259794 0
M  V30 48 H 37.331364 33.122755 59.802493 0
M  V30 49 H 38.985384 28.004840 49.537186 0
M  V30 50 H 40.505217 27.750515 50.402197 0
M  V30 51 H 39.432075 30.373916 61.722581 0
M  V30 52 H 38.075465 31.000460 62.727351 0
M  V30 53 H 39.980932 30.640926 49.455177 0
M  V30 54 H 39.061985 26.201913 51.380191 0
M  V30 55 H 38.765607 31.838117 55.537663 0
M  V30 56 H 39.867543 31.068669 56.644990 0
M  V30 57 H 40.250812 27.221434 52.955637 0
M  V30 58 H 42.473630 34.384443 64.910003 0
M  V30 59 H 38.267424 29.621375 50.910426 0
M  V30 60 H 40.082368 24.943904 55.447108 0
M  V30 61 H 39.129043 24.280467 56.757506 0
M  V30 62 H 38.361786 24.613891 55.231631 0
M  V30 63 H 42.276897 35.974354 63.132287 0
M  V30 64 H 41.520119 35.587356 61.616052 0
M  V30 65 H 40.688793 37.260623 63.594847 0
M  V30 66 H 39.905846 36.903561 62.214709 0
M  V30 67 H 39.466794 32.538571 58.618694 0
M  V30 68 H 39.229943 30.844238 59.052105 0
M  V30 69 H 39.568373 27.607868 58.124831 0
M  V30 70 H 39.703369 25.882745 58.361070 0
M  V30 71 H 40.815263 26.698008 57.272442 0
M  V30 72 H 37.809831 27.270393 51.452840 0
M  V30 END ATOM
M  V30 BEGIN BOND
M  V30 1 1 6 3
M  V30 2 1 7 2
M  V30 3 1 7 4
M  V30 4 1 12 4
M  V30 5 1 15 4
M  V30 6 1 16 13
M  V30 7 1 17 14
M  V30 8 2 18 2
M  V30 9 1 19 9
M  V30 10 1 20 1
M  V30 11 1 20 10
M  V30 12 1 20 17
M  V30 13 1 21 2
M  V30 14 2 21 3
M  V30 15 1 21 15
M  V30 16 1 22 3
M  V30 17 2 23 6
M  V30 18 1 23 18
M  V30 19 1 24 1
M  V30 20 1 24 14
M  V30 21 1 24 16
M  V30 22 1 25 5
M  V30 23 1 26 8
M  V30 24 2 26 11
M  V30 25 1 26 19
M  V30 26 1 27 8
M  V30 27 1 27 10
M  V30 28 1 27 25
M  V30 29 1 28 25
M  V30 30 1 29 18
M  V30 31 1 30 29
M  V30 32 1 31 16
M  V30 33 1 32 9
M  V30 34 1 32 12
M  V30 35 1 33 25
M  V30 36 2 34 7
M  V30 37 1 35 1
M  V30 38 1 36 1
M  V30 39 1 37 5
M  V30 40 1 38 5
M  V30 41 1 39 5
M  V30 42 1 40 6
M  V30 43 1 41 22
M  V30 44 1 42 8
M  V30 45 1 43 9
M  V30 46 1 44 9
M  V30 47 1 45 10
M  V30 48 1 46 10
M  V30 49 1 47 12
M  V30 50 1 48 12
M  V30 51 1 49 14
M  V30 52 1 50 14
M  V30 53 1 51 15
M  V30 54 1 52 15
M  V30 55 1 53 16
M  V30 56 1 54 17
M  V30 57 1 55 19
M  V30 58 1 56 19
M  V30 59 1 20 57 CFG=1
M  V30 60 1 58 23
M  V30 61 1 24 59 CFG=1
M  V30 62 1 60 28
M  V30 63 1 61 28
M  V30 64 1 62 28
M  V30 65 1 63 29
M  V30 66 1 64 29
M  V30 67 1 65 30
M  V30 68 1 66 30
M  V30 69 1 67 32
M  V30 70 1 68 32
M  V30 71 1 69 33
M  V30 72 1 70 33
M  V30 73 1 71 33
M  V30 74 1 72 17
M  V30 END BOND
M  V30 END CTAB
M  END
>  <i_epik_Tot_Q>  (1) 
1

>  <i_epik_Tot_abs_Q>  (1) 
1

>  <i_i_glide_confnum>  (1) 
1311

>  <i_i_glide_lignum>  (1) 
13

>  <i_i_glide_posenum>  (1) 
100

>  <i_i_glide_rotatable_bonds>  (1) 
13

>  <i_lp_mmshare_version>  (1) 
72125

>  <i_m_source_file_index>  (1) 
5

>  <i_f3d_flags>  (1) 
0

>  <num_sample>  (1) 
50

>  <b_lp_Chiralities_Consistent>  (1) 
1

>  <r_epik_Charging_Adjusted_Penalty>  (1) 
1.2595029471344665

>  <r_epik_Ionization_Penalty>  (1) 
1.2628522822174981

>  <r_epik_Ionization_Penalty_Charging>  (1) 
0.002090266189742528

>  <r_epik_Ionization_Penalty_Neutral>  (1) 
1.2607620160277555

>  <r_epik_State_Penalty>  (1) 
1.2574126809447239

>  <r_glide_ring_energy>  (1) 
0

>  <r_i_docking_score>  (1) 
-7.2259452494726935

>  <r_i_glide_ecoul>  (1) 
-4.1908026526758917

>  <r_i_glide_eff_state_penalty>  (1) 
1.2574126809447239

>  <r_i_glide_einternal>  (1) 
12.608650551471353

>  <r_i_glide_emodel>  (1) 
-66.641852663670534

>  <r_i_glide_emodel_strain>  (1) 
0.82410723463313218

>  <r_i_glide_energy>  (1) 
-47.971542169926522

>  <r_i_glide_erotb>  (1) 
0.78424635180538971

>  <r_i_glide_esite>  (1) 
-0.0063268946198482921

>  <r_i_glide_evdw>  (1) 
-43.78073951725063

>  <r_i_glide_gscore>  (1) 
-8.4833579304174176

>  <r_i_glide_gscore_strain>  (1) 
0

>  <r_i_glide_hbond>  (1) 
-0.48267124556272351

>  <r_i_glide_ligand_efficiency>  (1) 
-0.21252780145507921

>  <r_i_glide_ligand_efficiency_ln>  (1) 
-1.5964139865075062

>  <r_i_glide_ligand_efficiency_sa>  (1) 
-0.68850757369343263

>  <r_i_glide_lipo>  (1) 
-4.2503036550749513

>  <r_i_glide_metal>  (1) 
-0

>  <r_i_glide_rewards>  (1) 
-1.7106451132013696

>  <r_lp_Energy>  (1) 
25.577957999999999

>  <r_lp_tautomer_probability>  (1) 
0.99999999999736477

>  <s_epik_cmdline>  (1) 
J2VwaWtfcHl0aG9uJywgJy1waHQnLCAnMS4wJywgJy1waCcsICc3LjQnLCAnLXRuJywgJzgnLCAnLW1hJywgJzUwMCcsICctaW1hZScsICc8aW5maWxlLm1hZT4nLCAnLW9tYWUnLCAnPG91dGZpbGUubWFlPic=

>  <s_epik_input>  (1) 
RltDSF0oRilbQ0BASF0oW0NIMl1bTkhdMSlbQ0gyXVtDQEhdMVtDSDJdTihDKFtDSDNdKShbQ0gzXSlbQ0gzXSlbTkhdQyg9TylbQ0gyXVtDSDJdW0NIMl1bQ0gyXU4oQzI9TylbQ0gyXUMoPUMyMylDKD1PKVtDSDJdW0NIXT1DM1tDSDJdW05IMl0=

>  <s_glide_docking_method>  (1) 
confgen

>  <s_i_glide_gridfile>  (1) 
gpcr_5ht2c_6bqh_protein_autoprepared_prepared

>  <s_lp_Force_Field>  (1) 
S-OPLS

>  <s_lp_Variant>  (1) 
DiffSBDD_4_num_sample_50-2

>  <s_m_source_file>  (1) 
generated__ligand_DiffSBDD_2026-05-06_prepared.sdf

>  <GenAI_Model>  (1) 
DiffSBDD

>  <Protein>  (1) 
GPCR_5HT2C

$$$$
DiffSBDD_32_num_sample_50
     RDKit          3D

  0  0  0  0  0  0  0  0  0  0999 V3000
M  V30 BEGIN CTAB
M  V30 COUNTS 51 54 0 0 1
M  V30 BEGIN ATOM
M  V30 1 C 40.439176 32.057014 62.309449 0
M  V30 2 O 38.317800 26.703941 53.995444 0
M  V30 3 C 38.663259 30.390143 57.221034 0
M  V30 4 C 38.866554 29.339143 55.192010 0
M  V30 5 C 39.725211 29.711780 51.460843 0
M  V30 6 C 41.595197 35.097698 64.953663 0
M  V30 7 N 40.909271 32.785075 64.578931 0
M  V30 8 C 39.001972 27.429332 51.828886 0
M  V30 9 C 38.665912 30.691372 55.853291 0
M  V30 10 C 41.172538 33.987564 64.010474 0
M  V30 11 C 39.048543 29.012523 53.725705 0
M  V30 12 C 38.941750 27.910144 59.782884 0
M  V30 13 C 39.513025 30.007729 52.823402 0
M  V30 14 N 38.560391 31.308618 58.134433 0
M  V30 15 N 40.696848 33.261895 61.750034 0
M  V30 16 N 38.792363 29.171134 57.593250 0
M  V30 17 C 40.541734 31.820936 63.706121 0
M  V30 18 C 39.468396 28.427270 50.970024 0
M  V30 19 C 38.523300 31.976319 55.060778 0
M  V30 20 C 38.787843 27.701789 53.195497 0
M  V30 21 C 41.067403 34.229026 62.620297 0
M  V30 22 F 41.345917 35.464924 62.141178 0
M  V30 23 C 38.674569 31.109006 60.670151 0
M  V30 24 C 40.233865 30.789032 50.525303 0
M  V30 25 C 38.797369 29.146318 58.963611 0
M  V30 26 C 38.667018 30.490509 59.299893 0
M  V30 27 C 40.056977 30.942745 61.339061 0
M  V30 28 S 38.940456 27.964886 56.478907 0
M  V30 29 N 40.267594 30.563672 64.238548 0
M  V30 30 H 38.053950 25.936557 53.511264 0
M  V30 31 H 40.847427 35.891500 64.961490 0
M  V30 32 H 41.716746 34.733456 65.973803 0
M  V30 33 H 42.544135 35.529581 64.633373 0
M  V30 34 H 38.805552 26.441907 51.438609 0
M  V30 35 H 38.702066 28.099487 60.828061 0
M  V30 36 H 38.268642 27.131238 59.422129 0
M  V30 37 H 39.962458 27.531500 59.734248 0
M  V30 38 H 39.732402 30.995749 53.179498 0
M  V30 39 H 39.629106 28.206068 49.926560 0
M  V30 40 H 37.997714 32.711349 55.671579 0
M  V30 41 H 39.487757 32.405051 54.809144 0
M  V30 42 H 37.924193 31.831770 54.161966 0
M  V30 43 H 38.440590 32.170239 60.573831 0
M  V30 44 H 37.892644 30.687347 61.301561 0
M  V30 45 H 39.493608 31.582269 50.414296 0
M  V30 46 H 41.150802 31.221387 50.921694 0
M  V30 47 H 40.453885 30.389136 49.535341 0
M  V30 48 H 40.136241 29.950128 61.780003 0
M  V30 49 H 40.835840 30.955068 60.579861 0
M  V30 50 H 39.943480 29.800292 63.661139 0
M  V30 51 H 40.311760 30.395442 65.233003 0
M  V30 END ATOM
M  V30 BEGIN BOND
M  V30 1 1 9 3
M  V30 2 2 9 4
M  V30 3 1 10 6
M  V30 4 2 10 7
M  V30 5 1 11 4
M  V30 6 2 13 5
M  V30 7 1 13 11
M  V30 8 2 14 3
M  V30 9 1 15 1
M  V30 10 1 16 3
M  V30 11 2 17 1
M  V30 12 1 17 7
M  V30 13 1 18 5
M  V30 14 2 18 8
M  V30 15 1 19 9
M  V30 16 1 20 2
M  V30 17 1 20 8
M  V30 18 2 20 11
M  V30 19 1 21 10
M  V30 20 2 21 15
M  V30 21 1 22 21
M  V30 22 1 24 5
M  V30 23 1 25 12
M  V30 24 1 25 16
M  V30 25 1 26 14
M  V30 26 1 26 23
M  V30 27 2 26 25
M  V30 28 1 27 1
M  V30 29 1 27 23
M  V30 30 1 28 4
M  V30 31 1 28 16
M  V30 32 1 29 17
M  V30 33 1 30 2
M  V30 34 1 31 6
M  V30 35 1 32 6
M  V30 36 1 33 6
M  V30 37 1 34 8
M  V30 38 1 35 12
M  V30 39 1 36 12
M  V30 40 1 37 12
M  V30 41 1 38 13
M  V30 42 1 39 18
M  V30 43 1 40 19
M  V30 44 1 41 19
M  V30 45 1 42 19
M  V30 46 1 43 23
M  V30 47 1 44 23
M  V30 48 1 45 24
M  V30 49 1 46 24
M  V30 50 1 47 24
M  V30 51 1 48 27
M  V30 52 1 49 27
M  V30 53 1 50 29
M  V30 54 1 51 29
M  V30 END BOND
M  V30 END CTAB
M  END
>  <i_epik_Tot_Q>  (1) 
0

>  <i_epik_Tot_abs_Q>  (1) 
0

>  <i_i_glide_confnum>  (1) 
12

>  <i_i_glide_lignum>  (1) 
84

>  <i_i_glide_posenum>  (1) 
95

>  <i_i_glide_rotatable_bonds>  (1) 
5

>  <i_lp_mmshare_version>  (1) 
72125

>  <i_m_source_file_index>  (1) 
33

>  <i_f3d_flags>  (1) 
0

>  <num_sample>  (1) 
50

>  <b_lp_Chiralities_Consistent>  (1) 
1

>  <r_epik_Charging_Adjusted_Penalty>  (1) 
0.42689867469521958

>  <r_epik_Ionization_Penalty>  (1) 
0.21540292489436846

>  <r_epik_Ionization_Penalty_Charging>  (1) 
0.21344933734761001

>  <r_epik_Ionization_Penalty_Neutral>  (1) 
0.0019535875467584477

>  <r_epik_State_Penalty>  (1) 
0.2134493373476096

>  <r_glide_ring_energy>  (1) 
0

>  <r_i_docking_score>  (1) 
-7.2252844357746238

>  <r_i_glide_ecoul>  (1) 
-1.7158817050311552

>  <r_i_glide_eff_state_penalty>  (1) 
0.2134493373476096

>  <r_i_glide_einternal>  (1) 
9.2949432839801709

>  <r_i_glide_emodel>  (1) 
-64.902838674138891

>  <r_i_glide_emodel_strain>  (1) 
1.4734875484994205

>  <r_i_glide_energy>  (1) 
-49.304349355761694

>  <r_i_glide_erotb>  (1) 
0.46558767566886761

>  <r_i_glide_esite>  (1) 
-0.053404293873738309

>  <r_i_glide_evdw>  (1) 
-47.588467650730536

>  <r_i_glide_gscore>  (1) 
-7.4387337731222329

>  <r_i_glide_gscore_strain>  (1) 
0

>  <r_i_glide_hbond>  (1) 
0

>  <r_i_glide_ligand_efficiency>  (1) 
-0.2491477391646422

>  <r_i_glide_ligand_efficiency_ln>  (1) 
-1.6544069183875278

>  <r_i_glide_ligand_efficiency_sa>  (1) 
-0.76546079111711907

>  <r_i_glide_lipo>  (1) 
-3.7760537706475716

>  <r_i_glide_metal>  (1) 
-0

>  <r_i_glide_rewards>  (1) 
-1.4380577459785913

>  <r_lp_Energy>  (1) 
28.239087999999999

>  <r_lp_tautomer_probability>  (1) 
0.99999990127737282

>  <s_epik_cmdline>  (1) 
J2VwaWtfcHl0aG9uJywgJy1waHQnLCAnMS4wJywgJy1waCcsICc3LjQnLCAnLXRuJywgJzgnLCAnLW1hJywgJzUwMCcsICctaW1hZScsICc8aW5maWxlLm1hZT4nLCAnLW9tYWUnLCAnPG91dGZpbGUubWFlPic=

>  <s_epik_input>  (1) 
W05IMl1jMW5jKFtDSDNdKWMoRiluYzFbQ0gyXVtDSDJdYyhuMiljKFtDSDNdKW4oYzIzKXNjKGMzW0NIM10pLWMoW2NIXWM0W0NIM10pYyhbT0hdKVtjSF1bY0hdNA==

>  <s_glide_docking_method>  (1) 
confgen

>  <s_i_glide_gridfile>  (1) 
gpcr_5ht2c_6bqh_protein_autoprepared_prepared

>  <s_lp_Force_Field>  (1) 
S-OPLS

>  <s_lp_Variant>  (1) 
DiffSBDD_32_num_sample_50-1

>  <s_m_source_file>  (1) 
generated__ligand_DiffSBDD_2026-05-06_prepared.sdf

>  <GenAI_Model>  (1) 
DiffSBDD

>  <Protein>  (1) 
GPCR_5HT2C

$$$$
DiffSBDD_26_num_sample_50
     RDKit          3D

  0  0  0  0  0  0  0  0  0  0999 V3000
M  V30 BEGIN CTAB
M  V30 COUNTS 96 102 0 0 1
M  V30 BEGIN ATOM
M  V30 1 C 43.056443 29.181593 66.728262 0
M  V30 2 N 42.657894 26.918923 65.634938 0
M  V30 3 C 38.675312 28.580450 55.401886 0
M  V30 4 C 38.634456 35.380713 60.985867 0
M  V30 5 N 43.885325 26.986333 63.868317 0 CHG=1
M  V30 6 N 40.754922 31.878311 62.902383 0
M  V30 7 C 42.080982 33.856739 64.975889 0
M  V30 8 C 42.487611 31.672664 66.022647 0
M  V30 9 C 38.010920 30.236133 57.069911 0
M  V30 10 C 43.277007 28.161523 65.646044 0
M  V30 11 C 39.715560 29.845585 61.801658 0
M  V30 12 C 40.868051 29.676716 65.399655 0
M  V30 13 O 36.534352 37.507315 60.921454 0
M  V30 14 C 39.972925 32.806622 62.079499 0
M  V30 15 N 39.774789 29.439590 60.368733 0 CFG=2 CHG=1
M  V30 16 C 43.050372 26.232528 64.567898 0
M  V30 17 S 40.667394 36.821385 61.853493 0
M  V30 18 C 39.063941 37.386385 62.389737 0
M  V30 19 C 40.607758 31.957436 64.383033 0 CFG=1
M  V30 20 N 42.667366 24.993383 64.253506 0
M  V30 21 C 37.981610 29.756943 55.746504 0
M  V30 22 C 40.221123 27.605585 58.790502 0
M  V30 23 C 44.062109 28.191370 64.502267 0
M  V30 24 C 40.158506 26.600321 56.010066 0
M  V30 25 C 39.437900 28.356308 57.721988 0
M  V30 26 C 44.253414 29.500812 67.631725 0
M  V30 27 C 40.554651 34.202199 62.213370 0
M  V30 28 C 36.667652 36.597495 62.000927 0
M  V30 29 C 38.122701 36.218917 62.159281 0 CFG=1
M  V30 30 C 43.113463 28.714770 68.182544 0
M  V30 31 C 40.992440 30.620350 62.201420 0
M  V30 32 C 39.407875 27.874772 56.386122 0
M  V30 33 O 43.502081 32.084367 66.580647 0
M  V30 34 C 38.747807 30.071184 59.498123 0
M  V30 35 C 41.091568 34.874141 65.543199 0
M  V30 36 O 38.636171 28.123414 54.115222 0
M  V30 37 C 39.894629 30.770994 65.028289 0
M  V30 38 C 42.465104 34.800493 66.107367 0
M  V30 39 C 40.134859 35.245354 61.188688 0 CFG=1
M  V30 40 C 41.703243 26.369872 66.616803 0
M  V30 41 C 41.972319 30.226046 66.326299 0 CFG=1
M  V30 42 N 41.759220 32.463464 65.176777 0
M  V30 43 C 39.776043 27.979062 60.204777 0
M  V30 44 C 38.735308 29.543075 58.060798 0
M  V30 45 H 38.450685 35.903916 60.049714 0
M  V30 46 H 38.127527 34.419223 60.906671 0
M  V30 47 H 42.620786 34.084195 64.062284 0
M  V30 48 H 37.470888 31.137498 57.325843 0
M  V30 49 H 38.816745 30.438325 61.972387 0
M  V30 50 H 39.603405 28.981884 62.459925 0
M  V30 51 H 41.262962 29.208396 64.506182 0
M  V30 52 H 40.316236 28.892702 65.918503 0
M  V30 53 H 36.824345 37.082194 60.128608 0
M  V30 54 H 40.029400 32.533512 61.025857 0
M  V30 55 H 38.919973 32.782230 62.364205 0
M  V30 56 H 39.100651 37.644704 63.447513 0
M  V30 57 H 38.800457 38.268697 61.809283 0
M  V30 58 H 39.867746 32.743941 64.518892 0
M  V30 59 H 42.029658 24.462982 64.829395 0
M  V30 60 H 43.003117 24.513788 63.429624 0
M  V30 61 H 37.422529 30.294113 54.994575 0
M  V30 62 H 40.099000 26.529782 58.658338 0
M  V30 63 H 41.282377 27.822393 58.662384 0
M  V30 64 H 44.711644 28.961630 64.110231 0
M  V30 65 H 39.573092 25.723485 56.285235 0
M  V30 66 H 40.363733 26.538358 54.941796 0
M  V30 67 H 41.122313 26.542779 56.512677 0
M  V30 68 H 45.183261 28.965578 67.443953 0
M  V30 69 H 44.387664 30.473466 68.095413 0
M  V30 70 H 40.272899 34.569928 63.189849 0
M  V30 71 H 41.640675 34.145931 62.170136 0
M  V30 72 H 36.150615 35.653775 61.823842 0
M  V30 73 H 36.270531 37.039615 62.914895 0
M  V30 74 H 38.223970 35.621469 63.053493 0
M  V30 75 H 42.468905 29.211451 68.904820 0
M  V30 76 H 43.321881 27.670440 68.401835 0
M  V30 77 H 41.736243 29.999358 62.694826 0
M  V30 78 H 41.467361 30.931855 61.273829 0
M  V30 79 H 38.912877 31.149093 59.477193 0
M  V30 80 H 37.752977 29.904552 59.918180 0
M  V30 81 H 40.860946 35.767889 64.965940 0
M  V30 82 H 40.292220 34.523925 66.194768 0
M  V30 83 H 38.048605 28.614422 53.560999 0
M  V30 84 H 39.466833 31.113645 65.966569 0
M  V30 85 H 39.066247 30.421384 64.419716 0
M  V30 86 H 42.559309 34.420739 67.121051 0
M  V30 87 H 43.065967 35.676133 65.867998 0
M  V30 88 H 40.640684 35.060134 60.245853 0
M  V30 89 H 42.234439 25.709568 67.300221 0
M  V30 90 H 41.224705 27.168791 67.178618 0
M  V30 91 H 40.918558 25.810949 66.103352 0
M  V30 92 H 41.437516 30.425418 67.256783 0
M  V30 93 H 38.766017 27.621434 60.403470 0
M  V30 94 H 40.447376 27.521645 60.930890 0
M  V30 95 H 44.328283 26.712574 62.997560 0
M  V30 96 H 40.666446 29.749404 60.011256 0
M  V30 END ATOM
M  V30 BEGIN BOND
M  V30 1 1 10 1
M  V30 2 1 10 2
M  V30 3 1 14 6
M  V30 4 1 15 11
M  V30 5 1 16 2
M  V30 6 2 16 5
M  V30 7 1 18 17
M  V30 8 1 19 6
M  V30 9 1 20 16
M  V30 10 1 21 3
M  V30 11 2 21 9
M  V30 12 1 23 5
M  V30 13 2 23 10
M  V30 14 1 25 22
M  V30 15 1 26 1
M  V30 16 1 27 14
M  V30 17 1 28 13
M  V30 18 1 29 4
M  V30 19 1 29 18
M  V30 20 1 29 28
M  V30 21 1 30 1
M  V30 22 1 30 26
M  V30 23 1 31 6
M  V30 24 1 31 11
M  V30 25 2 32 3
M  V30 26 1 32 24
M  V30 27 1 32 25
M  V30 28 2 33 8
M  V30 29 1 34 15
M  V30 30 1 35 7
M  V30 31 1 36 3
M  V30 32 1 37 12
M  V30 33 1 37 19
M  V30 34 1 38 7
M  V30 35 1 38 35
M  V30 36 1 39 4
M  V30 37 1 39 17
M  V30 38 1 39 27
M  V30 39 1 40 2
M  V30 40 1 41 1
M  V30 41 1 41 8
M  V30 42 1 41 12
M  V30 43 1 42 7
M  V30 44 1 42 8
M  V30 45 1 42 19
M  V30 46 1 43 15
M  V30 47 1 43 22
M  V30 48 1 44 9
M  V30 49 2 44 25
M  V30 50 1 44 34
M  V30 51 1 45 4
M  V30 52 1 46 4
M  V30 53 1 47 7
M  V30 54 1 48 9
M  V30 55 1 49 11
M  V30 56 1 50 11
M  V30 57 1 51 12
M  V30 58 1 52 12
M  V30 59 1 53 13
M  V30 60 1 54 14
M  V30 61 1 55 14
M  V30 62 1 56 18
M  V30 63 1 57 18
M  V30 64 1 19 58 CFG=3
M  V30 65 1 59 20
M  V30 66 1 60 20
M  V30 67 1 61 21
M  V30 68 1 62 22
M  V30 69 1 63 22
M  V30 70 1 64 23
M  V30 71 1 65 24
M  V30 72 1 66 24
M  V30 73 1 67 24
M  V30 74 1 68 26
M  V30 75 1 69 26
M  V30 76 1 70 27
M  V30 77 1 71 27
M  V30 78 1 72 28
M  V30 79 1 73 28
M  V30 80 1 29 74 CFG=1
M  V30 81 1 75 30
M  V30 82 1 76 30
M  V30 83 1 77 31
M  V30 84 1 78 31
M  V30 85 1 79 34
M  V30 86 1 80 34
M  V30 87 1 81 35
M  V30 88 1 82 35
M  V30 89 1 83 36
M  V30 90 1 84 37
M  V30 91 1 85 37
M  V30 92 1 86 38
M  V30 93 1 87 38
M  V30 94 1 39 88 CFG=3
M  V30 95 1 89 40
M  V30 96 1 90 40
M  V30 97 1 91 40
M  V30 98 1 41 92 CFG=1
M  V30 99 1 93 43
M  V30 100 1 94 43
M  V30 101 1 95 5
M  V30 102 1 15 96 CFG=3
M  V30 END BOND
M  V30 END CTAB
M  END
>  <i_epik_Tot_Q>  (1) 
2

>  <i_epik_Tot_abs_Q>  (1) 
2

>  <i_i_glide_confnum>  (1) 
3372

>  <i_i_glide_lignum>  (1) 
68

>  <i_i_glide_posenum>  (1) 
226

>  <i_i_glide_rotatable_bonds>  (1) 
13

>  <i_lp_mmshare_version>  (1) 
72125

>  <i_m_source_file_index>  (1) 
27

>  <i_f3d_flags>  (1) 
0

>  <num_sample>  (1) 
50

>  <b_lp_Chiralities_Consistent>  (1) 
1

>  <r_epik_Charging_Adjusted_Penalty>  (1) 
0.023035094209541071

>  <r_epik_Ionization_Penalty>  (1) 
0.04084289902745275

>  <r_epik_Ionization_Penalty_Charging>  (1) 
0.023035094209541071

>  <r_epik_Ionization_Penalty_Neutral>  (1) 
0.017807804817911676

>  <r_epik_State_Penalty>  (1) 
-0

>  <r_glide_ring_energy>  (1) 
0

>  <r_i_docking_score>  (1) 
-7.223356053595765

>  <r_i_glide_ecoul>  (1) 
-1.2938556225717197

>  <r_i_glide_eff_state_penalty>  (1) 
-0

>  <r_i_glide_einternal>  (1) 
21.067189433090512

>  <r_i_glide_emodel>  (1) 
-51.468966629908309

>  <r_i_glide_emodel_strain>  (1) 
4.9139692897325631

>  <r_i_glide_energy>  (1) 
-46.201923168810282

>  <r_i_glide_erotb>  (1) 
0.45984128746928787

>  <r_i_glide_esite>  (1) 
0

>  <r_i_glide_evdw>  (1) 
-44.908067546238563

>  <r_i_glide_gscore>  (1) 
-7.223356053595765

>  <r_i_glide_gscore_strain>  (1) 
0.22849232243314077

>  <r_i_glide_hbond>  (1) 
0

>  <r_i_glide_ligand_efficiency>  (1) 
-0.1641671830362674

>  <r_i_glide_ligand_efficiency_ln>  (1) 
-1.5098389918293897

>  <r_i_glide_ligand_efficiency_sa>  (1) 
-0.57956734134725574

>  <r_i_glide_lipo>  (1) 
-4.1297950013437692

>  <r_i_glide_metal>  (1) 
-0

>  <r_i_glide_rewards>  (1) 
-1.3424129414567372

>  <r_lp_Energy>  (1) 
49.558928999999999

>  <r_lp_tautomer_probability>  (1) 
1

>  <s_epik_Chemistry_Notes>  (1) 
This compound contains an acetal/aminal-like group ( X-CH(R)-Y where X, Y are N, S, or O) that may be acid/base labile, releasing an aldehyde.

>  <s_epik_cmdline>  (1) 
J2VwaWtfcHl0aG9uJywgJy1waHQnLCAnMS4wJywgJy1waCcsICc3LjQnLCAnLXRuJywgJzgnLCAnLW1hJywgJzUwMCcsICctaW1hZScsICc8aW5maWxlLm1hZT4nLCAnLW9tYWUnLCAnPG91dGZpbGUubWFlPic=

>  <s_epik_input>  (1) 
W05IMl1jMW5bY0hdYyhuMVtDSDNdKUMyKFtDSDJdW0NIMl0yKVtDQEBIXShDMz1PKVtDSDJdW0NIMl1bQ0BASF0oTjNbQ0hdNFtDSDJdW0NIMl00KU4oW0NIMl1bQ0gyXVtDQEhdKFNbQ0gyXTUpW0NIMl1bQ0BASF01W0NIMl1bT0hdKVtDSDJdW0NIMl1OKFtDSDJdW0NIMl02KVtDSDJdYyhjNjcpW2NIXVtjSF1jKFtPSF0pYzdbQ0gzXQ==

>  <s_glide_docking_method>  (1) 
confgen

>  <s_i_glide_gridfile>  (1) 
gpcr_5ht2c_6bqh_protein_autoprepared_prepared

>  <s_lp_Force_Field>  (1) 
S-OPLS

>  <s_lp_Variant>  (1) 
DiffSBDD_26_num_sample_50-1

>  <s_m_source_file>  (1) 
generated__ligand_DiffSBDD_2026-05-06_prepared.sdf

>  <GenAI_Model>  (1) 
DiffSBDD

>  <Protein>  (1) 
GPCR_5HT2C

$$$$
DiffSBDD_25_num_sample_50
     RDKit          3D

  0  0  0  0  0  0  0  0  0  0999 V3000
M  V30 BEGIN CTAB
M  V30 COUNTS 59 60 0 0 1
M  V30 BEGIN ATOM
M  V30 1 C 38.639218 28.209636 55.887393 0 CFG=2
M  V30 2 C 38.735663 27.852809 53.364392 0
M  V30 3 C 38.097332 36.017537 62.032820 0
M  V30 4 C 38.821307 36.538630 63.271726 0
M  V30 5 C 37.751696 31.094254 59.445660 0 CFG=1
M  V30 6 C 38.967380 28.700013 54.474776 0
M  V30 7 C 38.195760 29.319288 56.870932 0
M  V30 8 C 39.515728 29.990051 54.269748 0
M  V30 9 C 38.000076 34.025529 59.517367 0
M  V30 10 C 39.626506 29.566695 51.866450 0
M  V30 11 C 37.032474 29.760596 59.158167 0 CFG=1
M  V30 12 C 40.513268 36.153275 61.713117 0
M  V30 13 N 35.683402 30.021231 58.653592 0 CHG=1
M  V30 14 C 36.925898 33.211883 60.232829 0
M  V30 15 C 39.064948 28.286669 52.063864 0
M  V30 16 C 37.768918 28.767759 58.242402 0
M  V30 17 N 40.103500 37.063869 62.790255 0 CHG=1
M  V30 18 N 36.852836 31.939443 60.216529 0
M  V30 19 C 39.205454 35.742100 61.013543 0 CFG=1
M  V30 20 C 41.017208 27.992275 56.947295 0
M  V30 21 C 39.227457 34.329525 60.407092 0
M  V30 22 C 39.843413 30.419138 52.967603 0
M  V30 23 C 39.750245 27.284234 56.444189 0
M  V30 24 Cl 40.047085 30.089385 50.277366 0
M  V30 25 O 38.950948 30.849395 60.154787 0
M  V30 26 H 37.766529 27.570608 55.749874 0
M  V30 27 H 38.316843 26.867435 53.512538 0
M  V30 28 H 37.410827 36.771291 61.644780 0
M  V30 29 H 37.500318 35.141729 62.253987 0
M  V30 30 H 38.248383 37.262970 63.849614 0
M  V30 31 H 39.065071 35.696828 63.908063 0
M  V30 32 H 37.991934 31.538989 58.482059 0
M  V30 33 H 37.364078 29.863460 56.420775 0
M  V30 34 H 38.997076 30.041693 57.021982 0
M  V30 35 H 39.697760 30.646925 55.107636 0
M  V30 36 H 38.321266 33.558060 58.591352 0
M  V30 37 H 37.533200 34.955175 59.189854 0
M  V30 38 H 36.882745 29.253679 60.104670 0
M  V30 39 H 40.989655 35.279936 62.160993 0
M  V30 40 H 41.232073 36.628150 61.044669 0
M  V30 41 H 35.693286 30.666220 57.853335 0
M  V30 42 H 35.209708 29.168513 58.404605 0
M  V30 43 H 36.199214 33.815133 60.784339 0
M  V30 44 H 38.891760 27.633789 51.218105 0
M  V30 45 H 38.651201 28.391926 58.763427 0
M  V30 46 H 37.133523 27.896707 58.079144 0
M  V30 47 H 39.957951 37.981791 62.400943 0
M  V30 48 H 39.032319 36.421017 60.192574 0
M  V30 49 H 41.775344 27.264400 57.242647 0
M  V30 50 H 41.453591 28.622049 56.176705 0
M  V30 51 H 40.813274 28.614063 57.818773 0
M  V30 52 H 39.359955 33.572384 61.178857 0
M  V30 53 H 40.112172 34.261603 59.777032 0
M  V30 54 H 40.266452 31.400030 52.814637 0
M  V30 55 H 39.343475 26.692294 57.267085 0
M  V30 56 H 40.023833 26.549203 55.683343 0
M  V30 57 H 39.013368 29.926308 60.344316 0
M  V30 58 H 40.788890 37.122180 63.535194 0
M  V30 59 H 35.182552 30.513165 59.376883 0
M  V30 END ATOM
M  V30 BEGIN BOND
M  V30 1 1 4 3
M  V30 2 1 6 1
M  V30 3 1 6 2
M  V30 4 1 7 1
M  V30 5 2 8 6
M  V30 6 1 11 5
M  V30 7 1 13 11
M  V30 8 1 14 9
M  V30 9 2 15 2
M  V30 10 1 15 10
M  V30 11 1 16 7
M  V30 12 1 16 11
M  V30 13 1 17 4
M  V30 14 1 17 12
M  V30 15 1 18 5
M  V30 16 2 18 14
M  V30 17 1 19 3
M  V30 18 1 19 12
M  V30 19 1 21 9
M  V30 20 1 21 19
M  V30 21 1 22 8
M  V30 22 2 22 10
M  V30 23 1 23 1
M  V30 24 1 23 20
M  V30 25 1 24 10
M  V30 26 1 25 5
M  V30 27 1 1 26 CFG=3
M  V30 28 1 27 2
M  V30 29 1 28 3
M  V30 30 1 29 3
M  V30 31 1 30 4
M  V30 32 1 31 4
M  V30 33 1 5 32 CFG=3
M  V30 34 1 33 7
M  V30 35 1 34 7
M  V30 36 1 35 8
M  V30 37 1 36 9
M  V30 38 1 37 9
M  V30 39 1 11 38 CFG=1
M  V30 40 1 39 12
M  V30 41 1 40 12
M  V30 42 1 41 13
M  V30 43 1 42 13
M  V30 44 1 43 14
M  V30 45 1 44 15
M  V30 46 1 45 16
M  V30 47 1 46 16
M  V30 48 1 47 17
M  V30 49 1 19 48 CFG=3
M  V30 50 1 49 20
M  V30 51 1 50 20
M  V30 52 1 51 20
M  V30 53 1 52 21
M  V30 54 1 53 21
M  V30 55 1 54 22
M  V30 56 1 55 23
M  V30 57 1 56 23
M  V30 58 1 57 25
M  V30 59 1 58 17
M  V30 60 1 59 13
M  V30 END BOND
M  V30 END CTAB
M  END
>  <i_epik_Tot_Q>  (1) 
2

>  <i_epik_Tot_abs_Q>  (1) 
2

>  <i_i_glide_confnum>  (1) 
102

>  <i_i_glide_lignum>  (1) 
67

>  <i_i_glide_posenum>  (1) 
217

>  <i_i_glide_rotatable_bonds>  (1) 
11

>  <i_lp_mmshare_version>  (1) 
72125

>  <i_m_source_file_index>  (1) 
26

>  <i_f3d_flags>  (1) 
0

>  <num_sample>  (1) 
50

>  <b_lp_Chiralities_Consistent>  (1) 
1

>  <r_epik_Charging_Adjusted_Penalty>  (1) 
0.45127827763218775

>  <r_epik_Ionization_Penalty>  (1) 
0.041210974459634293

>  <r_epik_Ionization_Penalty_Charging>  (1) 
0.040598438679583813

>  <r_epik_Ionization_Penalty_Neutral>  (1) 
0.0006125357800504809

>  <r_epik_State_Penalty>  (1) 
0.41067983895260396

>  <r_glide_ring_energy>  (1) 
0

>  <r_i_docking_score>  (1) 
-7.2112733874117829

>  <r_i_glide_ecoul>  (1) 
-8.6636962856856385

>  <r_i_glide_eff_state_penalty>  (1) 
0.41067983895260396

>  <r_i_glide_einternal>  (1) 
7.7985637864299981

>  <r_i_glide_emodel>  (1) 
-63.807690890469118

>  <r_i_glide_emodel_strain>  (1) 
1.4336260384399253

>  <r_i_glide_energy>  (1) 
-41.28977797223623

>  <r_i_glide_erotb>  (1) 
0.99595821917536853

>  <r_i_glide_esite>  (1) 
-0.15691265761912374

>  <r_i_glide_evdw>  (1) 
-32.626081686550592

>  <r_i_glide_gscore>  (1) 
-7.6219532263643872

>  <r_i_glide_gscore_strain>  (1) 
0

>  <r_i_glide_hbond>  (1) 
-0.19394890145171123

>  <r_i_glide_ligand_efficiency>  (1) 
-0.28845093549647133

>  <r_i_glide_ligand_efficiency_ln>  (1) 
-1.7092878972414567

>  <r_i_glide_ligand_efficiency_sa>  (1) 
-0.84343565199577741

>  <r_i_glide_lipo>  (1) 
-3.7591082247995722

>  <r_i_glide_metal>  (1) 
-0

>  <r_i_glide_rewards>  (1) 
-1.5770831344889729

>  <r_lp_Energy>  (1) 
32.149031000000001

>  <r_lp_tautomer_probability>  (1) 
0.49999300000000002

>  <s_epik_Chemistry_Notes>  (1) 
This compound has an imine and may undergo hydrolysis. This compound contains an acetal/aminal-like group ( X-CH(R)-Y where X, Y are N, S, or O) that may be acid/base labile, releasing an aldehyde.

>  <s_epik_cmdline>  (1) 
J2VwaWtfcHl0aG9uJywgJy1waHQnLCAnMS4wJywgJy1waCcsICc3LjQnLCAnLXRuJywgJzgnLCAnLW1hJywgJzUwMCcsICctaW1hZScsICc8aW5maWxlLm1hZT4nLCAnLW9tYWUnLCAnPG91dGZpbGUubWFlPic=

>  <s_epik_input>  (1) 
W2NIXTFbY0hdYyhDbClbY0hdW2NIXWMxW0NAQEhdKFtDSDJdW0NIM10pW0NIMl1bQ0gyXVtDQEhdKFtOSDJdKVtDQEhdKFtPSF0pL049W0NIXVxbQ0gyXVtDSDJdW0NASF0yW0NIMl1bQ0gyXVtOSF1bQ0gyXTI=

>  <s_glide_docking_method>  (1) 
confgen

>  <s_i_glide_gridfile>  (1) 
gpcr_5ht2c_6bqh_protein_autoprepared_prepared

>  <s_lp_Force_Field>  (1) 
S-OPLS

>  <s_lp_Variant>  (1) 
DiffSBDD_25_num_sample_50-2

>  <s_m_source_file>  (1) 
generated__ligand_DiffSBDD_2026-05-06_prepared.sdf

>  <GenAI_Model>  (1) 
DiffSBDD

>  <Protein>  (1) 
GPCR_5HT2C

$$$$
DiffSBDD_23_num_sample_50
     RDKit          3D

  0  0  0  0  0  0  0  0  0  0999 V3000
M  V30 BEGIN CTAB
M  V30 COUNTS 60 64 0 0 1
M  V30 BEGIN ATOM
M  V30 1 C 38.860055 35.417930 61.634905 0
M  V30 2 C 38.010233 29.616730 55.268590 0 CFG=2
M  V30 3 C 38.669592 30.850366 59.974964 0
M  V30 4 C 38.366877 27.123956 57.854478 0 CFG=1
M  V30 5 S 39.614004 28.590436 51.533288 0
M  V30 6 C 38.667440 32.234296 59.770501 0
M  V30 7 C 39.215123 34.577672 60.448563 0
M  V30 8 N 40.108242 31.105864 51.884313 0
M  V30 9 C 39.149090 29.365166 53.041348 0
M  V30 10 C 39.140761 31.621430 54.169748 0
M  V30 11 S 38.756800 25.820085 55.408519 0
M  V30 12 O 39.867411 25.798034 54.444723 0
M  V30 13 C 39.773861 31.154703 62.121366 0
M  V30 14 C 38.521733 28.645023 54.152359 0 CFG=2
M  V30 15 N 39.221163 26.966684 56.663752 0
M  V30 16 C 39.213043 30.309739 61.149862 0
M  V30 17 C 39.230808 33.102324 60.730623 0
M  V30 18 C 40.928296 28.337455 57.854913 0
M  V30 19 C 40.153017 35.710502 62.349255 0
M  V30 20 O 40.666402 36.821427 62.253543 0
M  V30 21 Cl 38.667395 25.621431 58.653501 0
M  V30 22 C 40.467348 33.389747 63.031516 0
M  V30 23 S 38.003661 29.788381 58.732697 0
M  V30 24 N 37.467416 26.629145 54.856199 0 CHG=-1
M  V30 25 O 38.382475 24.550208 56.046408 0
M  V30 26 N 40.649874 34.662149 63.090951 0
M  V30 27 C 40.656090 27.166610 56.903259 0
M  V30 28 C 39.467111 30.683326 53.053506 0
M  V30 29 C 40.264460 30.118485 51.010288 0
M  V30 30 O 40.223109 28.183879 59.067802 0
M  V30 31 C 39.805854 32.559904 61.936387 0
M  V30 32 N 37.598059 27.581186 53.803253 0
M  V30 33 N 36.667403 30.136019 55.029971 0 CHG=1
M  V30 34 C 38.810248 28.172245 58.906244 0 CFG=2
M  V30 35 C 38.937322 30.832644 55.469883 0
M  V30 36 H 38.096175 34.955973 62.253497 0
M  V30 37 H 38.451366 36.370588 61.295657 0
M  V30 38 H 37.914358 29.065887 56.188350 0
M  V30 39 H 37.307931 27.169161 57.597458 0
M  V30 40 H 38.244598 32.639257 58.862559 0
M  V30 41 H 38.444499 34.760116 59.699859 0
M  V30 42 H 40.157762 34.869647 59.980713 0
M  V30 43 H 39.867404 32.382233 54.364192 0
M  V30 44 H 38.229134 32.166012 53.923695 0
M  V30 45 H 40.196856 30.722534 63.017981 0
M  V30 46 H 39.406300 28.185785 54.573666 0
M  V30 47 H 39.211523 29.243657 61.308687 0
M  V30 48 H 40.647440 29.278953 57.400888 0
M  V30 49 H 41.994737 28.398697 58.073342 0
M  V30 50 H 40.840379 32.791988 63.867172 0
M  V30 51 H 41.147605 27.352671 55.952437 0
M  V30 52 H 41.067388 26.246314 57.311926 0
M  V30 53 H 40.748874 30.294148 50.060848 0
M  V30 54 H 36.683457 27.949671 53.593499 0
M  V30 55 H 36.652983 30.670961 54.177265 0
M  V30 56 H 36.044341 29.346289 54.959334 0
M  V30 57 H 38.420256 27.831450 59.864226 0
M  V30 58 H 39.912140 30.482101 55.798119 0
M  V30 59 H 38.567084 31.489535 56.258515 0
M  V30 60 H 36.355284 30.728436 55.801526 0
M  V30 END ATOM
M  V30 BEGIN BOND
M  V30 1 2 6 3
M  V30 2 1 7 1
M  V30 3 1 9 5
M  V30 4 2 12 11
M  V30 5 1 14 2
M  V30 6 1 14 9
M  V30 7 1 15 4
M  V30 8 1 15 11
M  V30 9 1 16 3
M  V30 10 2 16 13
M  V30 11 1 17 6
M  V30 12 1 17 7
M  V30 13 1 19 1
M  V30 14 2 20 19
M  V30 15 1 21 4
M  V30 16 1 23 3
M  V30 17 1 24 11
M  V30 18 2 25 11
M  V30 19 1 26 19
M  V30 20 2 26 22
M  V30 21 1 27 15
M  V30 22 1 27 18
M  V30 23 1 28 8
M  V30 24 2 28 9
M  V30 25 1 28 10
M  V30 26 1 29 5
M  V30 27 2 29 8
M  V30 28 1 30 18
M  V30 29 1 31 13
M  V30 30 2 31 17
M  V30 31 1 31 22
M  V30 32 1 32 14
M  V30 33 1 32 24
M  V30 34 1 33 2
M  V30 35 1 34 4
M  V30 36 1 34 23
M  V30 37 1 34 30
M  V30 38 1 35 2
M  V30 39 1 35 10
M  V30 40 1 36 1
M  V30 41 1 37 1
M  V30 42 1 2 38 CFG=1
M  V30 43 1 4 39 CFG=3
M  V30 44 1 40 6
M  V30 45 1 41 7
M  V30 46 1 42 7
M  V30 47 1 43 10
M  V30 48 1 44 10
M  V30 49 1 45 13
M  V30 50 1 14 46 CFG=1
M  V30 51 1 47 16
M  V30 52 1 48 18
M  V30 53 1 49 18
M  V30 54 1 50 22
M  V30 55 1 51 27
M  V30 56 1 52 27
M  V30 57 1 53 29
M  V30 58 1 54 32
M  V30 59 1 55 33
M  V30 60 1 56 33
M  V30 61 1 34 57 CFG=1
M  V30 62 1 58 35
M  V30 63 1 59 35
M  V30 64 1 60 33
M  V30 END BOND
M  V30 END CTAB
M  END
>  <i_epik_Tot_Q>  (1) 
0

>  <i_epik_Tot_abs_Q>  (1) 
2

>  <i_i_glide_confnum>  (1) 
391

>  <i_i_glide_lignum>  (1) 
65

>  <i_i_glide_posenum>  (1) 
191

>  <i_i_glide_rotatable_bonds>  (1) 
6

>  <i_lp_mmshare_version>  (1) 
72125

>  <i_m_source_file_index>  (1) 
24

>  <i_f3d_flags>  (1) 
0

>  <num_sample>  (1) 
50

>  <b_lp_Chiralities_Consistent>  (1) 
1

>  <r_epik_Charging_Adjusted_Penalty>  (1) 
2.2272092532468064

>  <r_epik_Ionization_Penalty>  (1) 
1.0462412004884125

>  <r_epik_Ionization_Penalty_Charging>  (1) 
1.0439143913358477

>  <r_epik_Ionization_Penalty_Neutral>  (1) 
0.002326809152564684

>  <r_epik_State_Penalty>  (1) 
1.1832948619109587

>  <r_glide_ring_energy>  (1) 
1.4722824389510294

>  <r_i_docking_score>  (1) 
-7.2065904847236464

>  <r_i_glide_ecoul>  (1) 
-1.9549826633273417

>  <r_i_glide_eff_state_penalty>  (1) 
1.1832948619109587

>  <r_i_glide_einternal>  (1) 
5.7711660503777917

>  <r_i_glide_emodel>  (1) 
-80.794071783672877

>  <r_i_glide_emodel_strain>  (1) 
1.3801466218575413

>  <r_i_glide_energy>  (1) 
-50.664757213427499

>  <r_i_glide_erotb>  (1) 
0.32509228849270932

>  <r_i_glide_esite>  (1) 
-0.079940204848882687

>  <r_i_glide_evdw>  (1) 
-48.709774550100157

>  <r_i_glide_gscore>  (1) 
-8.3898853466346051

>  <r_i_glide_gscore_strain>  (1) 
0

>  <r_i_glide_hbond>  (1) 
-0.20000000000000001

>  <r_i_glide_ligand_efficiency>  (1) 
-0.20590258527781846

>  <r_i_glide_ligand_efficiency_ln>  (1) 
-1.5820065530552203

>  <r_i_glide_ligand_efficiency_sa>  (1) 
-0.67352100988300523

>  <r_i_glide_lipo>  (1) 
-3.578704027556546

>  <r_i_glide_metal>  (1) 
-0

>  <r_i_glide_rewards>  (1) 
-2.1275972757177746

>  <r_lp_Energy>  (1) 
42.677467

>  <s_epik_Chemistry_Notes>  (1) 
This compound has an imine and may undergo hydrolysis. This compound contains an acetal/aminal-like group ( X-CH(R)-Y where X, Y are N, S, or O) that may be acid/base labile, releasing an aldehyde.

>  <s_epik_cmdline>  (1) 
J2VwaWtfcHl0aG9uJywgJy1waHQnLCAnMS4wJywgJy1waCcsICc3LjQnLCAnLXRuJywgJzgnLCAnLW1hJywgJzUwMCcsICctaW1hZScsICc8aW5maWxlLm1hZT4nLCAnLW9tYWUnLCAnPG91dGZpbGUubWFlPic=

>  <s_epik_input>  (1) 
W0NIMl0xW0NIMl1DKD1PKU49W0NIXWMoYzEyKVtjSF1bY0hdYyhbY0hdMilTW0NAQEhdM09bQ0gyXVtDSDJdTihbQ0BIXTNDbClTKD1PKSg9TylbTkhdW05IXVtDQEBIXTRbQ0BASF0oW05IMl0pW0NIMl1bQ0gyXWMoYzQ1KW5bY0hdczU=

>  <s_glide_docking_method>  (1) 
confgen

>  <s_i_glide_gridfile>  (1) 
gpcr_5ht2c_6bqh_protein_autoprepared_prepared

>  <s_lp_Force_Field>  (1) 
S-OPLS

>  <s_lp_Variant>  (1) 
DiffSBDD_23_num_sample_50-4

>  <s_m_source_file>  (1) 
generated__ligand_DiffSBDD_2026-05-06_prepared.sdf

>  <GenAI_Model>  (1) 
DiffSBDD

>  <Protein>  (1) 
GPCR_5HT2C

$$$$
DiffSBDD_23_num_sample_50
     RDKit          3D

  0  0  0  0  0  0  0  0  0  0999 V3000
M  V30 BEGIN CTAB
M  V30 COUNTS 60 64 0 0 1
M  V30 BEGIN ATOM
M  V30 1 C 37.203173 36.833096 61.425466 0
M  V30 2 C 38.231959 27.228084 53.318795 0 CFG=1
M  V30 3 C 39.587184 32.702095 62.449082 0
M  V30 4 C 39.071474 28.982534 60.484861 0 CFG=1
M  V30 5 S 38.351454 30.573023 55.687266 0
M  V30 6 C 38.701165 33.453735 61.662956 0
M  V30 7 C 37.781650 35.603919 60.790638 0
M  V30 8 N 39.541976 31.212610 53.494239 0
M  V30 9 C 38.646991 29.337577 54.490232 0
M  V30 10 C 39.662947 29.082333 52.156612 0
M  V30 11 S 39.445095 27.685387 58.017162 0
M  V30 12 O 40.473370 28.599657 57.498309 0
M  V30 13 C 40.631017 34.751332 63.239214 0
M  V30 14 C 38.186273 27.940169 54.669879 0 CFG=2
M  V30 15 N 38.502181 28.620959 59.148202 0
M  V30 16 C 40.550879 33.345637 63.235257 0
M  V30 17 C 38.764064 34.857822 61.651343 0
M  V30 18 C 37.200573 30.790654 59.228401 0
M  V30 19 C 38.153253 37.954811 61.107960 0
M  V30 20 O 37.867405 38.784162 60.252248 0
M  V30 21 Cl 40.819482 28.648756 60.524690 0
M  V30 22 C 39.909492 37.041318 62.518000 0
M  V30 23 S 39.480962 30.935287 62.456050 0
M  V30 24 N 38.341078 27.342024 56.919001 0 CHG=-1
M  V30 25 O 39.865419 26.458046 58.698601 0
M  V30 26 N 39.300893 37.956063 61.854740 0
M  V30 27 C 37.261302 29.346569 58.728189 0
M  V30 28 C 39.287871 29.847100 53.388869 0
M  V30 29 C 39.077638 31.724955 54.628994 0
M  V30 30 O 37.495366 30.786221 60.612911 0
M  V30 31 C 39.744870 35.534824 62.453727 0
M  V30 32 N 38.869911 27.112201 55.625869 0
M  V30 33 N 37.065063 27.725051 52.653476 0 CHG=1
M  V30 34 C 38.864956 30.472929 60.811354 0 CFG=2
M  V30 35 C 39.420804 27.559441 52.383523 0
M  V30 36 H 36.989784 36.712901 62.488966 0
M  V30 37 H 36.267341 37.070612 60.931907 0
M  V30 38 H 38.102365 26.151256 53.449050 0
M  V30 39 H 38.668073 28.323230 61.246716 0
M  V30 40 H 37.959785 32.959371 61.068289 0
M  V30 41 H 36.953517 34.933922 60.556683 0
M  V30 42 H 38.262842 35.817675 59.842351 0
M  V30 43 H 39.059390 29.430310 51.316748 0
M  V30 44 H 40.699093 29.257974 51.863588 0
M  V30 45 H 41.378484 35.240589 63.849732 0
M  V30 46 H 37.139783 27.979404 54.986577 0
M  V30 47 H 41.231444 32.763423 63.842842 0
M  V30 48 H 36.206510 31.207674 59.060049 0
M  V30 49 H 37.887162 31.436523 58.678049 0
M  V30 50 H 40.674055 37.363941 63.224696 0
M  V30 51 H 36.389351 28.821434 59.102550 0
M  V30 52 H 37.113552 29.344928 57.656670 0
M  V30 53 H 39.175892 32.780477 54.838104 0
M  V30 54 H 39.852609 27.356528 55.647200 0
M  V30 55 H 37.247463 28.656389 52.315546 0
M  V30 56 H 36.810386 27.093179 51.889378 0
M  V30 57 H 39.473463 31.061479 60.120889 0
M  V30 58 H 39.324108 27.051081 51.423050 0
M  V30 59 H 40.277230 27.100190 52.856342 0
M  V30 60 H 36.311676 27.745606 53.322546 0
M  V30 END ATOM
M  V30 BEGIN BOND
M  V30 1 2 6 3
M  V30 2 1 7 1
M  V30 3 1 9 5
M  V30 4 2 12 11
M  V30 5 1 14 2
M  V30 6 1 14 9
M  V30 7 1 15 4
M  V30 8 1 15 11
M  V30 9 1 16 3
M  V30 10 2 16 13
M  V30 11 1 17 6
M  V30 12 1 17 7
M  V30 13 1 19 1
M  V30 14 2 20 19
M  V30 15 1 21 4
M  V30 16 1 23 3
M  V30 17 1 24 11
M  V30 18 2 25 11
M  V30 19 1 26 19
M  V30 20 2 26 22
M  V30 21 1 27 15
M  V30 22 1 27 18
M  V30 23 1 28 8
M  V30 24 2 28 9
M  V30 25 1 28 10
M  V30 26 1 29 5
M  V30 27 2 29 8
M  V30 28 1 30 18
M  V30 29 1 31 13
M  V30 30 2 31 17
M  V30 31 1 31 22
M  V30 32 1 32 14
M  V30 33 1 32 24
M  V30 34 1 33 2
M  V30 35 1 34 4
M  V30 36 1 34 23
M  V30 37 1 34 30
M  V30 38 1 35 2
M  V30 39 1 35 10
M  V30 40 1 36 1
M  V30 41 1 37 1
M  V30 42 1 2 38 CFG=1
M  V30 43 1 4 39 CFG=1
M  V30 44 1 40 6
M  V30 45 1 41 7
M  V30 46 1 42 7
M  V30 47 1 43 10
M  V30 48 1 44 10
M  V30 49 1 45 13
M  V30 50 1 14 46 CFG=1
M  V30 51 1 47 16
M  V30 52 1 48 18
M  V30 53 1 49 18
M  V30 54 1 50 22
M  V30 55 1 51 27
M  V30 56 1 52 27
M  V30 57 1 53 29
M  V30 58 1 54 32
M  V30 59 1 55 33
M  V30 60 1 56 33
M  V30 61 1 34 57 CFG=3
M  V30 62 1 58 35
M  V30 63 1 59 35
M  V30 64 1 60 33
M  V30 END BOND
M  V30 END CTAB
M  END
>  <i_epik_Tot_Q>  (1) 
0

>  <i_epik_Tot_abs_Q>  (1) 
2

>  <i_i_glide_confnum>  (1) 
573

>  <i_i_glide_lignum>  (1) 
64

>  <i_i_glide_posenum>  (1) 
266

>  <i_i_glide_rotatable_bonds>  (1) 
6

>  <i_lp_mmshare_version>  (1) 
72125

>  <i_m_source_file_index>  (1) 
24

>  <i_f3d_flags>  (1) 
0

>  <num_sample>  (1) 
50

>  <b_lp_Chiralities_Consistent>  (1) 
1

>  <r_epik_Charging_Adjusted_Penalty>  (1) 
2.2272092532468064

>  <r_epik_Ionization_Penalty>  (1) 
1.0462412004884125

>  <r_epik_Ionization_Penalty_Charging>  (1) 
1.0439143913358477

>  <r_epik_Ionization_Penalty_Neutral>  (1) 
0.002326809152564684

>  <r_epik_State_Penalty>  (1) 
1.1832948619109587

>  <r_glide_ring_energy>  (1) 
2.0047208920200128

>  <r_i_docking_score>  (1) 
-7.2044199823404806

>  <r_i_glide_ecoul>  (1) 
-6.0412466133069822

>  <r_i_glide_eff_state_penalty>  (1) 
1.1832948619109587

>  <r_i_glide_einternal>  (1) 
7.301264900071458

>  <r_i_glide_emodel>  (1) 
-71.471470817050047

>  <r_i_glide_emodel_strain>  (1) 
4.2402844921839034

>  <r_i_glide_energy>  (1) 
-51.264868325786239

>  <r_i_glide_erotb>  (1) 
0.32509228849270932

>  <r_i_glide_esite>  (1) 
0

>  <r_i_glide_evdw>  (1) 
-45.223621712479257

>  <r_i_glide_gscore>  (1) 
-8.3877148442514393

>  <r_i_glide_gscore_strain>  (1) 
0.060071123045975838

>  <r_i_glide_hbond>  (1) 
0

>  <r_i_glide_ligand_efficiency>  (1) 
-0.20584057092401373

>  <r_i_glide_ligand_efficiency_ln>  (1) 
-1.5815300796104106

>  <r_i_glide_ligand_efficiency_sa>  (1) 
-0.67331815681952645

>  <r_i_glide_lipo>  (1) 
-3.8445469280491311

>  <r_i_glide_metal>  (1) 
-0

>  <r_i_glide_rewards>  (1) 
-1.7609632501209833

>  <r_lp_Energy>  (1) 
43.619828999999996

>  <s_epik_Chemistry_Notes>  (1) 
This compound has an imine and may undergo hydrolysis. This compound contains an acetal/aminal-like group ( X-CH(R)-Y where X, Y are N, S, or O) that may be acid/base labile, releasing an aldehyde.

>  <s_epik_cmdline>  (1) 
J2VwaWtfcHl0aG9uJywgJy1waHQnLCAnMS4wJywgJy1waCcsICc3LjQnLCAnLXRuJywgJzgnLCAnLW1hJywgJzUwMCcsICctaW1hZScsICc8aW5maWxlLm1hZT4nLCAnLW9tYWUnLCAnPG91dGZpbGUubWFlPic=

>  <s_epik_input>  (1) 
W0NIMl0xW0NIMl1DKD1PKU49W0NIXWMoYzEyKVtjSF1bY0hdYyhbY0hdMilTW0NAQEhdM09bQ0gyXVtDSDJdTihbQ0BIXTNDbClTKD1PKSg9TylbTkhdW05IXVtDQEBIXTRbQ0BASF0oW05IMl0pW0NIMl1bQ0gyXWMoYzQ1KW5bY0hdczU=

>  <s_glide_docking_method>  (1) 
confgen

>  <s_i_glide_gridfile>  (1) 
gpcr_5ht2c_6bqh_protein_autoprepared_prepared

>  <s_lp_Force_Field>  (1) 
S-OPLS

>  <s_lp_Variant>  (1) 
DiffSBDD_23_num_sample_50-3

>  <s_m_source_file>  (1) 
generated__ligand_DiffSBDD_2026-05-06_prepared.sdf

>  <GenAI_Model>  (1) 
DiffSBDD

>  <Protein>  (1) 
GPCR_5HT2C

$$$$
DiffSBDD_33_num_sample_50
     RDKit          3D

  0  0  0  0  0  0  0  0  0  0999 V3000
M  V30 BEGIN CTAB
M  V30 COUNTS 78 81 0 0 1
M  V30 BEGIN ATOM
M  V30 1 C 40.085328 32.592840 63.439109 0
M  V30 2 C 37.136052 33.092328 60.743321 0 CFG=1
M  V30 3 C 39.766544 30.296581 54.154127 0
M  V30 4 C 35.778699 33.219873 61.463115 0
M  V30 5 C 37.868212 26.299186 54.653656 0
M  V30 6 C 38.876207 31.207756 54.960907 0 CFG=2
M  V30 7 C 36.870985 32.573501 59.309702 0
M  V30 8 C 37.257511 27.392871 53.851484 0
M  V30 9 C 40.158277 32.120768 61.053875 0
M  V30 10 O 39.207333 38.835459 61.453498 0
M  V30 11 C 40.667486 30.838789 61.319515 0
M  V30 12 C 39.300466 26.507018 55.208005 0 CFG=2
M  V30 13 C 39.321042 28.813678 54.128929 0 CFG=2
M  V30 14 C 41.599962 28.713787 64.210812 0
M  V30 15 C 40.894937 30.425755 62.644436 0
M  V30 16 C 39.556663 25.672648 56.484382 0
M  V30 17 C 40.606542 31.312537 63.710481 0
M  V30 18 C 40.297824 36.762413 61.798140 0
M  V30 19 C 37.906290 37.044956 60.631942 0
M  V30 20 O 39.467397 32.419527 55.452817 0
M  V30 21 N 38.104221 32.153021 58.612549 0 CHG=1
M  V30 22 C 37.927075 28.538144 53.623366 0
M  V30 23 O 38.846895 28.501024 56.502884 0
M  V30 24 O 41.403432 29.163880 62.878060 0
M  V30 25 C 37.202022 35.699608 60.836083 0 CFG=2
M  V30 26 C 39.617416 28.007194 55.418869 0 CFG=1
M  V30 27 C 39.078083 31.450663 56.427688 0 CFG=1
M  V30 28 C 38.926061 37.475005 61.710368 0 CFG=2
M  V30 29 C 40.387266 35.306851 61.334142 0
M  V30 30 O 37.280831 25.242712 54.884528 0
M  V30 31 C 39.251284 34.378640 61.802924 0 CFG=2
M  V30 32 C 39.846414 32.994443 62.106562 0
M  V30 33 C 37.867230 31.772890 57.220113 0
M  V30 34 C 38.048980 34.390833 60.773353 0 CFG=1
M  V30 35 O 36.267402 35.683463 59.773048 0
M  V30 36 O 40.222854 26.021414 54.253464 0
M  V30 37 H 39.867409 33.259207 64.253246 0
M  V30 38 H 37.618481 32.276169 61.271880 0
M  V30 39 H 39.802842 30.689081 53.137071 0
M  V30 40 H 40.782890 30.375243 54.541535 0
M  V30 41 H 35.026127 33.708876 60.843707 0
M  V30 42 H 35.377678 32.238253 61.719538 0
M  V30 43 H 35.863183 33.797800 62.378188 0
M  V30 44 H 37.870454 31.342061 54.566178 0
M  V30 45 H 36.193708 31.717644 59.345491 0
M  V30 46 H 36.363247 33.333287 58.714430 0
M  V30 47 H 36.267422 27.247347 53.453475 0
M  V30 48 H 40.000114 32.434012 60.044186 0
M  V30 49 H 38.403687 39.258204 61.191504 0
M  V30 50 H 40.892401 30.170627 60.501984 0
M  V30 51 H 39.867323 28.367874 53.301910 0
M  V30 52 H 41.977177 27.691445 64.183813 0
M  V30 53 H 42.338096 29.321793 64.735498 0
M  V30 54 H 40.666325 28.704809 64.773532 0
M  V30 55 H 38.850238 25.923886 57.276451 0
M  V30 56 H 39.467954 24.601122 56.298392 0
M  V30 57 H 40.556365 25.853099 56.877339 0
M  V30 58 H 40.779366 31.015297 64.732402 0
M  V30 59 H 41.056791 37.295916 61.223933 0
M  V30 60 H 40.646304 36.828152 62.830458 0
M  V30 61 H 37.113306 37.796284 60.661345 0
M  V30 62 H 38.267403 37.113267 59.611796 0
M  V30 63 H 38.748937 32.928951 58.608619 0
M  V30 64 H 37.466831 29.313667 53.035635 0
M  V30 65 H 37.931865 28.427545 56.276451 0
M  V30 66 H 36.668007 35.752720 61.784727 0
M  V30 67 H 40.667300 28.123547 55.691041 0
M  V30 68 H 39.867495 30.893175 56.920090 0
M  V30 69 H 38.436108 37.410769 62.683303 0
M  V30 70 H 40.497549 35.266632 60.253380 0
M  V30 71 H 41.340651 34.935751 61.713480 0
M  V30 72 H 38.886755 34.765041 62.751479 0
M  V30 73 H 37.218906 30.892576 57.202436 0
M  V30 74 H 37.394718 32.613313 56.714741 0
M  V30 75 H 38.531377 34.415605 59.798539 0
M  V30 76 H 36.711943 35.768570 58.941470 0
M  V30 77 H 40.061867 25.096378 54.138380 0
M  V30 78 H 38.511629 31.371230 59.103970 0
M  V30 END ATOM
M  V30 BEGIN BOND
M  V30 1 1 4 2
M  V30 2 1 6 3
M  V30 3 1 7 2
M  V30 4 1 8 5
M  V30 5 2 11 9
M  V30 6 1 12 5
M  V30 7 1 13 3
M  V30 8 1 15 11
M  V30 9 1 16 12
M  V30 10 1 17 1
M  V30 11 2 17 15
M  V30 12 1 20 6
M  V30 13 1 21 7
M  V30 14 2 22 8
M  V30 15 1 22 13
M  V30 16 1 24 14
M  V30 17 1 24 15
M  V30 18 1 25 19
M  V30 19 1 26 12
M  V30 20 1 26 13
M  V30 21 1 26 23
M  V30 22 1 27 6
M  V30 23 1 27 20
M  V30 24 1 28 10
M  V30 25 1 28 18
M  V30 26 1 28 19
M  V30 27 1 29 18
M  V30 28 2 30 5
M  V30 29 1 31 29
M  V30 30 2 32 1
M  V30 31 1 32 9
M  V30 32 1 32 31
M  V30 33 1 33 21
M  V30 34 1 33 27
M  V30 35 1 34 2
M  V30 36 1 34 25
M  V30 37 1 34 31
M  V30 38 1 35 25
M  V30 39 1 12 36 CFG=3
M  V30 40 1 37 1
M  V30 41 1 2 38 CFG=1
M  V30 42 1 39 3
M  V30 43 1 40 3
M  V30 44 1 41 4
M  V30 45 1 42 4
M  V30 46 1 43 4
M  V30 47 1 6 44 CFG=1
M  V30 48 1 45 7
M  V30 49 1 46 7
M  V30 50 1 47 8
M  V30 51 1 48 9
M  V30 52 1 49 10
M  V30 53 1 50 11
M  V30 54 1 13 51 CFG=3
M  V30 55 1 52 14
M  V30 56 1 53 14
M  V30 57 1 54 14
M  V30 58 1 55 16
M  V30 59 1 56 16
M  V30 60 1 57 16
M  V30 61 1 58 17
M  V30 62 1 59 18
M  V30 63 1 60 18
M  V30 64 1 61 19
M  V30 65 1 62 19
M  V30 66 1 63 21
M  V30 67 1 64 22
M  V30 68 1 65 23
M  V30 69 1 25 66 CFG=1
M  V30 70 1 26 67 CFG=1
M  V30 71 1 27 68 CFG=1
M  V30 72 1 28 69 CFG=1
M  V30 73 1 70 29
M  V30 74 1 71 29
M  V30 75 1 31 72 CFG=1
M  V30 76 1 73 33
M  V30 77 1 74 33
M  V30 78 1 34 75 CFG=3
M  V30 79 1 76 35
M  V30 80 1 77 36
M  V30 81 1 78 21
M  V30 END BOND
M  V30 END CTAB
M  END
>  <i_epik_Tot_Q>  (1) 
1

>  <i_epik_Tot_abs_Q>  (1) 
1

>  <i_i_glide_confnum>  (1) 
655

>  <i_i_glide_lignum>  (1) 
86

>  <i_i_glide_posenum>  (1) 
163

>  <i_i_glide_rotatable_bonds>  (1) 
13

>  <i_lp_mmshare_version>  (1) 
72125

>  <i_m_source_file_index>  (1) 
34

>  <i_f3d_flags>  (1) 
0

>  <num_sample>  (1) 
50

>  <b_lp_Chiralities_Consistent>  (1) 
1

>  <r_epik_Charging_Adjusted_Penalty>  (1) 
0.0021184864287466625

>  <r_epik_Ionization_Penalty>  (1) 
0.0021212372829442611

>  <r_epik_Ionization_Penalty_Charging>  (1) 
0.0021184864287466625

>  <r_epik_Ionization_Penalty_Neutral>  (1) 
2.7508541975987684e-06

>  <r_epik_State_Penalty>  (1) 
-0

>  <r_glide_ring_energy>  (1) 
0

>  <r_i_docking_score>  (1) 
-7.2019408204594333

>  <r_i_glide_ecoul>  (1) 
-3.9675912840299947

>  <r_i_glide_eff_state_penalty>  (1) 
-0

>  <r_i_glide_einternal>  (1) 
19.147265406260971

>  <r_i_glide_emodel>  (1) 
-51.518310088612509

>  <r_i_glide_emodel_strain>  (1) 
1.7758067570077998

>  <r_i_glide_energy>  (1) 
-42.393302802178411

>  <r_i_glide_erotb>  (1) 
0.64233652918665762

>  <r_i_glide_esite>  (1) 
-0.066204097019425603

>  <r_i_glide_evdw>  (1) 
-38.425711518148418

>  <r_i_glide_gscore>  (1) 
-7.2019408204594333

>  <r_i_glide_gscore_strain>  (1) 
0

>  <r_i_glide_hbond>  (1) 
-0.1155149448822342

>  <r_i_glide_ligand_efficiency>  (1) 
-0.20005391167942871

>  <r_i_glide_ligand_efficiency_ln>  (1) 
-1.5712689130690709

>  <r_i_glide_ligand_efficiency_sa>  (1) 
-0.66056346222226481

>  <r_i_glide_lipo>  (1) 
-4.074976104292654

>  <r_i_glide_metal>  (1) 
-0

>  <r_i_glide_rewards>  (1) 
-1.0711579349398579

>  <r_lp_Energy>  (1) 
54.687307999999994

>  <r_lp_tautomer_probability>  (1) 
1

>  <s_epik_cmdline>  (1) 
J2VwaWtfcHl0aG9uJywgJy1waHQnLCAnMS4wJywgJy1waCcsICc3LjQnLCAnLXRuJywgJzgnLCAnLW1hJywgJzUwMCcsICctaW1hZScsICc8aW5maWxlLm1hZT4nLCAnLW9tYWUnLCAnPG91dGZpbGUubWFlPic=

>  <s_epik_input>  (1) 
W0NIM11PYzFbY0hdW2NIXWMoW2NIXVtjSF0xKVtDQEBIXShbQ0gyXVtDSDJdW0NAQEhdKFtPSF0pW0NIMl1bQ0BIXTJbT0hdKVtDQEhdMltDQEBIXShbQ0gzXSlbQ0gyXVtOSF1bQ0gyXVtDQEBIXTNPW0NASF0zW0NIMl1bQ0BASF0oW0NASF00W09IXSlbQ0hdPVtDSF1DKD1PKVtDQEBdNChbQ0gzXSlbT0hd

>  <s_glide_docking_method>  (1) 
confgen

>  <s_i_glide_gridfile>  (1) 
gpcr_5ht2c_6bqh_protein_autoprepared_prepared

>  <s_lp_Force_Field>  (1) 
S-OPLS

>  <s_lp_Variant>  (1) 
DiffSBDD_33_num_sample_50-1

>  <s_m_source_file>  (1) 
generated__ligand_DiffSBDD_2026-05-06_prepared.sdf

>  <GenAI_Model>  (1) 
DiffSBDD

>  <Protein>  (1) 
GPCR_5HT2C

$$$$
DiffSBDD_13_num_sample_50
     RDKit          3D

  0  0  0  0  0  0  0  0  0  0999 V3000
M  V30 BEGIN CTAB
M  V30 COUNTS 67 70 0 0 1
M  V30 BEGIN ATOM
M  V30 1 C 37.710890 34.236045 59.761539 0
M  V30 2 C 38.667153 25.645439 56.478666 0
M  V30 3 N 41.523474 30.704996 63.118271 0
M  V30 4 C 38.667928 27.834886 54.721684 0
M  V30 5 C 41.283583 32.583142 64.202041 0
M  V30 6 N 39.675317 30.049057 54.043166 0
M  V30 7 F 37.467345 24.149195 57.853368 0
M  V30 8 C 39.920357 31.011882 61.271712 0
M  V30 9 C 40.227115 30.111165 51.680174 0 CFG=1
M  V30 10 C 37.067181 30.961991 59.719680 0
M  V30 11 C 39.900759 30.954347 52.914368 0
M  V30 12 C 40.627116 31.513546 62.540100 0
M  V30 13 C 38.292567 33.121562 58.849455 0 CFG=1
M  V30 14 N 41.169118 29.349042 63.283969 0
M  V30 15 N 39.114401 29.264010 51.335363 0
M  V30 16 O 40.160627 29.919326 60.750196 0
M  V30 17 O 36.360281 34.015722 60.117394 0
M  V30 18 C 38.681253 28.990025 53.742673 0 CFG=1
M  V30 19 C 38.010732 32.408310 56.466899 0
M  V30 20 C 38.677939 24.484220 57.419685 0
M  V30 21 C 39.797210 27.569091 55.523858 0
M  V30 22 C 40.460125 30.789737 50.354175 0
M  V30 23 C 39.794766 26.479146 56.397932 0
M  V30 24 C 39.500490 30.792641 55.301768 0
M  V30 25 N 40.371954 32.666639 63.005342 0
M  V30 26 C 40.183793 29.633980 49.391099 0
M  V30 27 C 37.538550 26.998028 54.799460 0
M  V30 28 C 37.536468 25.903292 55.679759 0
M  V30 29 O 42.009304 31.291746 64.269110 0
M  V30 30 C 38.291727 31.708471 55.387987 0
M  V30 31 C 38.392635 31.724281 59.526434 0 CFG=1
M  V30 32 O 39.029849 31.901212 60.786755 0
M  V30 33 C 38.966775 28.288556 52.384979 0
M  V30 34 C 37.576156 33.093399 57.505849 0
M  V30 35 O 39.623449 28.588102 50.183516 0
M  V30 36 H 37.754428 35.199095 59.256088 0
M  V30 37 H 38.302456 34.348211 60.670433 0
M  V30 38 H 42.015730 33.392205 64.168503 0
M  V30 39 H 40.710203 32.717817 65.120103 0
M  V30 40 H 41.067529 29.458490 51.882871 0
M  V30 41 H 36.546366 30.822379 58.772189 0
M  V30 42 H 37.253479 29.971354 60.132536 0
M  V30 43 H 36.389180 31.474665 60.399809 0
M  V30 44 H 39.067384 31.623630 52.733991 0
M  V30 45 H 40.750332 31.586644 53.146377 0
M  V30 46 H 39.316926 33.427147 58.630248 0
M  V30 47 H 40.686285 29.024321 62.446528 0
M  V30 48 H 42.015448 28.795659 63.404798 0
M  V30 49 H 36.053589 34.749714 60.627152 0
M  V30 50 H 37.689605 29.443224 53.714019 0
M  V30 51 H 39.155493 23.621416 56.971029 0
M  V30 52 H 39.274781 24.821431 58.253499 0
M  V30 53 H 40.667793 28.200337 55.461102 0
M  V30 54 H 39.746952 31.601946 50.201067 0
M  V30 55 H 41.467754 31.190942 50.254546 0
M  V30 56 H 40.662840 26.277540 57.009126 0
M  V30 57 H 40.388809 31.406274 55.453985 0
M  V30 58 H 39.466088 30.104716 56.146040 0
M  V30 59 H 41.067450 29.305478 48.851347 0
M  V30 60 H 39.467414 29.949342 48.644237 0
M  V30 61 H 36.675909 27.195876 54.179554 0
M  V30 62 H 36.670077 25.260651 55.741118 0
M  V30 63 H 37.660538 31.763865 54.513321 0
M  V30 64 H 39.028148 31.110088 58.886573 0
M  V30 65 H 38.150390 27.614845 52.120257 0
M  V30 66 H 39.867894 27.676618 52.447380 0
M  V30 67 H 36.668003 33.672769 57.440634 0
M  V30 END ATOM
M  V30 BEGIN BOND
M  V30 1 1 11 6
M  V30 2 1 11 9
M  V30 3 1 12 3
M  V30 4 1 12 8
M  V30 5 1 13 1
M  V30 6 1 14 3
M  V30 7 1 15 9
M  V30 8 2 16 8
M  V30 9 1 17 1
M  V30 10 1 18 4
M  V30 11 1 18 6
M  V30 12 1 20 2
M  V30 13 1 20 7
M  V30 14 1 21 4
M  V30 15 1 22 9
M  V30 16 1 23 2
M  V30 17 2 23 21
M  V30 18 1 24 6
M  V30 19 1 25 5
M  V30 20 2 25 12
M  V30 21 1 26 22
M  V30 22 2 27 4
M  V30 23 2 28 2
M  V30 24 1 28 27
M  V30 25 1 29 3
M  V30 26 1 29 5
M  V30 27 2 30 19
M  V30 28 1 30 24
M  V30 29 1 31 10
M  V30 30 1 31 13
M  V30 31 1 32 8
M  V30 32 1 32 31
M  V30 33 1 33 15
M  V30 34 1 33 18
M  V30 35 1 34 13
M  V30 36 2 34 19
M  V30 37 1 35 15
M  V30 38 1 35 26
M  V30 39 1 36 1
M  V30 40 1 37 1
M  V30 41 1 38 5
M  V30 42 1 39 5
M  V30 43 1 9 40 CFG=1
M  V30 44 1 41 10
M  V30 45 1 42 10
M  V30 46 1 43 10
M  V30 47 1 44 11
M  V30 48 1 45 11
M  V30 49 1 13 46 CFG=3
M  V30 50 1 47 14
M  V30 51 1 48 14
M  V30 52 1 49 17
M  V30 53 1 18 50 CFG=3
M  V30 54 1 51 20
M  V30 55 1 52 20
M  V30 56 1 53 21
M  V30 57 1 54 22
M  V30 58 1 55 22
M  V30 59 1 56 23
M  V30 60 1 57 24
M  V30 61 1 58 24
M  V30 62 1 59 26
M  V30 63 1 60 26
M  V30 64 1 61 27
M  V30 65 1 62 28
M  V30 66 1 63 30
M  V30 67 1 31 64 CFG=3
M  V30 68 1 65 33
M  V30 69 1 66 33
M  V30 70 1 67 34
M  V30 END BOND
M  V30 END CTAB
M  END
>  <i_epik_Tot_Q>  (1) 
0

>  <i_epik_Tot_abs_Q>  (1) 
0

>  <i_i_glide_confnum>  (1) 
333

>  <i_i_glide_lignum>  (1) 
42

>  <i_i_glide_posenum>  (1) 
13

>  <i_i_glide_rotatable_bonds>  (1) 
11

>  <i_lp_mmshare_version>  (1) 
72125

>  <i_m_source_file_index>  (1) 
14

>  <i_f3d_flags>  (1) 
0

>  <num_sample>  (1) 
50

>  <b_lp_Chiralities_Consistent>  (1) 
1

>  <r_epik_Charging_Adjusted_Penalty>  (1) 
0.22633531445783178

>  <r_epik_Ionization_Penalty>  (1) 
0.23418350974146993

>  <r_epik_Ionization_Penalty_Charging>  (1) 
0

>  <r_epik_Ionization_Penalty_Neutral>  (1) 
0.23418350974146993

>  <r_epik_State_Penalty>  (1) 
0.22633531445783178

>  <r_glide_ring_energy>  (1) 
0

>  <r_i_docking_score>  (1) 
-7.1972530586152805

>  <r_i_glide_ecoul>  (1) 
0.28355946799649712

>  <r_i_glide_eff_state_penalty>  (1) 
0.22633531445783178

>  <r_i_glide_einternal>  (1) 
4.5971030987514929

>  <r_i_glide_emodel>  (1) 
-67.644717145939325

>  <r_i_glide_emodel_strain>  (1) 
1.1687060954043744

>  <r_i_glide_energy>  (1) 
-47.406523731875389

>  <r_i_glide_erotb>  (1) 
0.76399126750113433

>  <r_i_glide_esite>  (1) 
-0.011426961246453808

>  <r_i_glide_evdw>  (1) 
-47.690083199871886

>  <r_i_glide_gscore>  (1) 
-7.4235883730731125

>  <r_i_glide_gscore_strain>  (1) 
0

>  <r_i_glide_hbond>  (1) 
0

>  <r_i_glide_ligand_efficiency>  (1) 
-0.20563580167472231

>  <r_i_glide_ligand_efficiency_ln>  (1) 
-1.579956780791427

>  <r_i_glide_ligand_efficiency_sa>  (1) 
-0.67264834302680665

>  <r_i_glide_lipo>  (1) 
-3.7573697395795151

>  <r_i_glide_metal>  (1) 
-0

>  <r_i_glide_rewards>  (1) 
-2.0768126999541567

>  <r_lp_Energy>  (1) 
-4.0023499999999999

>  <s_epik_Chemistry_Notes>  (1) 
This compound has an ester and may undergo hydrolysis at high or low pH. This compound has an imine and may undergo hydrolysis. This compound contains an acetal/aminal-like group ( X-CH(R)-Y where X, Y are N, S, or O) that may be acid/base labile, releasing an aldehyde. This compound has a N-S or N-O group and may undergo hydrolysis at high or low pH.

>  <s_epik_cmdline>  (1) 
J2VwaWtfcHl0aG9uJywgJy1waHQnLCAnMS4wJywgJy1waCcsICc3LjQnLCAnLXRuJywgJzgnLCAnLW1hJywgJzUwMCcsICctaW1hZScsICc8aW5maWxlLm1hZT4nLCAnLW9tYWUnLCAnPG91dGZpbGUubWFlPic=

>  <s_epik_input>  (1) 
TzFbQ0gyXU49QyhOMVtOSDJdKUMoPU8pT1tDQEBIXShbQ0gzXSlbQ0BIXShbQ0gyXVtPSF0pW0NIXT1DPVtDSF1bQ0gyXU4oW0NIMl0yKVtDQEhdKGMoW2NIXVtjSF0zKVtjSF1bY0hdYzNbQ0gyXUYpW0NIMl1OKFtDQEhdMjQpT1tDSDJdW0NIMl00

>  <s_glide_docking_method>  (1) 
confgen

>  <s_i_glide_gridfile>  (1) 
gpcr_5ht2c_6bqh_protein_autoprepared_prepared

>  <s_lp_Force_Field>  (1) 
S-OPLS

>  <s_lp_Variant>  (1) 
DiffSBDD_13_num_sample_50-1

>  <s_m_source_file>  (1) 
generated__ligand_DiffSBDD_2026-05-06_prepared.sdf

>  <GenAI_Model>  (1) 
DiffSBDD

>  <Protein>  (1) 
GPCR_5HT2C

$$$$
DiffSBDD_43_num_sample_50
     RDKit          3D

  0  0  0  0  0  0  0  0  0  0999 V3000
M  V30 BEGIN CTAB
M  V30 COUNTS 63 64 0 0 1
M  V30 BEGIN ATOM
M  V30 1 O 35.878329 32.551841 60.252059 0
M  V30 2 C 39.801887 26.021167 55.661312 0
M  V30 3 C 38.415324 32.545245 58.217586 0
M  V30 4 C 38.720297 37.385449 61.853664 0
M  V30 5 C 37.843487 34.036939 60.221986 0 CFG=1
M  V30 6 C 39.720101 29.715136 50.296489 0
M  V30 7 C 38.612015 28.016711 54.911187 0
M  V30 8 O 38.793015 29.104207 52.420306 0
M  V30 9 C 39.751268 27.416696 55.492773 0
M  V30 10 C 39.479115 34.682382 62.060458 0
M  V30 11 C 37.592587 25.813624 54.654102 0
M  V30 12 C 38.491733 35.071192 61.126738 0
M  V30 13 C 38.113561 36.423967 61.028239 0
M  V30 14 C 38.353177 28.886715 58.001039 0
M  V30 15 O 39.372632 28.757566 58.720314 0 CHG=-1
M  V30 16 C 39.739146 28.699725 51.445748 0 CFG=1
M  V30 17 C 38.941282 33.305607 59.424758 0
M  V30 18 C 39.705329 36.998444 62.783941 0
M  V30 19 C 37.536770 27.208559 54.485383 0
M  V30 20 C 39.290804 27.297120 51.025893 0
M  V30 21 C 39.020753 30.356680 55.960291 0
M  V30 22 O 37.467533 28.020876 57.853356 0
M  V30 23 C 39.245406 29.973503 53.448097 0
M  V30 24 C 36.930551 33.088316 61.031254 0
M  V30 25 N 38.594870 31.221930 58.229751 0
M  V30 26 C 38.721498 25.221513 55.245828 0
M  V30 27 C 38.183682 30.221834 57.260350 0 CFG=2
M  V30 28 C 40.764306 30.821373 50.450082 0
M  V30 29 C 38.535924 29.535630 54.740522 0 CFG=1
M  V30 30 O 37.871136 33.144336 57.294665 0
M  V30 31 C 40.084665 35.647205 62.886885 0
M  V30 32 H 36.209403 32.259021 59.410719 0
M  V30 33 H 40.667203 25.564510 56.114242 0
M  V30 34 H 38.431165 38.420978 61.773744 0
M  V30 35 H 37.215388 34.589262 59.519439 0
M  V30 36 H 39.882435 29.218049 49.340427 0
M  V30 37 H 38.726052 30.162474 50.254431 0
M  V30 38 H 40.580317 28.026430 55.818870 0
M  V30 39 H 39.772644 33.646239 62.140365 0
M  V30 40 H 36.766523 25.197266 54.332479 0
M  V30 41 H 37.359976 36.725106 60.314346 0
M  V30 42 H 40.744280 28.601330 51.853599 0
M  V30 43 H 39.667820 34.021382 59.045300 0
M  V30 44 H 39.501598 32.633991 60.075613 0
M  V30 45 H 40.169856 37.738934 63.418909 0
M  V30 46 H 36.667662 27.661288 54.034193 0
M  V30 47 H 39.936234 26.882337 50.254126 0
M  V30 48 H 39.324575 26.616655 51.877578 0
M  V30 49 H 38.267942 27.303502 50.653583 0
M  V30 50 H 39.001198 31.402467 55.654769 0
M  V30 51 H 40.067468 30.145039 56.172937 0
M  V30 52 H 39.012178 31.007649 53.195941 0
M  V30 53 H 40.322158 29.939643 53.583115 0
M  V30 54 H 36.451660 33.643052 61.838755 0
M  V30 55 H 37.505735 32.291085 61.502820 0
M  V30 56 H 39.065066 30.801052 59.020841 0
M  V30 57 H 38.758946 24.152186 55.379581 0
M  V30 58 H 37.125304 30.369688 57.037140 0
M  V30 59 H 40.666540 31.546274 49.642948 0
M  V30 60 H 40.643139 31.353020 51.392999 0
M  V30 61 H 41.778095 30.421156 50.416442 0
M  V30 62 H 37.479866 29.777722 54.609899 0
M  V30 63 H 40.840772 35.350815 63.599368 0
M  V30 END ATOM
M  V30 BEGIN BOND
M  V30 1 1 9 2
M  V30 2 2 9 7
M  V30 3 1 12 5
M  V30 4 1 12 10
M  V30 5 1 13 4
M  V30 6 2 13 12
M  V30 7 1 15 14
M  V30 8 1 16 6
M  V30 9 1 16 8
M  V30 10 1 17 3
M  V30 11 1 17 5
M  V30 12 2 18 4
M  V30 13 1 19 7
M  V30 14 2 19 11
M  V30 15 1 20 16
M  V30 16 2 22 14
M  V30 17 1 23 8
M  V30 18 1 24 1
M  V30 19 1 24 5
M  V30 20 1 25 3
M  V30 21 2 26 2
M  V30 22 1 26 11
M  V30 23 1 27 14
M  V30 24 1 27 21
M  V30 25 1 27 25
M  V30 26 1 28 6
M  V30 27 1 29 7
M  V30 28 1 29 21
M  V30 29 1 29 23
M  V30 30 2 30 3
M  V30 31 2 31 10
M  V30 32 1 31 18
M  V30 33 1 32 1
M  V30 34 1 33 2
M  V30 35 1 34 4
M  V30 36 1 5 35 CFG=3
M  V30 37 1 36 6
M  V30 38 1 37 6
M  V30 39 1 38 9
M  V30 40 1 39 10
M  V30 41 1 40 11
M  V30 42 1 41 13
M  V30 43 1 16 42 CFG=1
M  V30 44 1 43 17
M  V30 45 1 44 17
M  V30 46 1 45 18
M  V30 47 1 46 19
M  V30 48 1 47 20
M  V30 49 1 48 20
M  V30 50 1 49 20
M  V30 51 1 50 21
M  V30 52 1 51 21
M  V30 53 1 52 23
M  V30 54 1 53 23
M  V30 55 1 54 24
M  V30 56 1 55 24
M  V30 57 1 56 25
M  V30 58 1 57 26
M  V30 59 1 27 58 CFG=3
M  V30 60 1 59 28
M  V30 61 1 60 28
M  V30 62 1 61 28
M  V30 63 1 29 62 CFG=3
M  V30 64 1 63 31
M  V30 END BOND
M  V30 END CTAB
M  END
>  <i_epik_Tot_Q>  (1) 
-1

>  <i_epik_Tot_abs_Q>  (1) 
1

>  <i_i_glide_confnum>  (1) 
332

>  <i_i_glide_lignum>  (1) 
101

>  <i_i_glide_posenum>  (1) 
35

>  <i_i_glide_rotatable_bonds>  (1) 
15

>  <i_lp_mmshare_version>  (1) 
72125

>  <i_m_source_file_index>  (1) 
44

>  <i_f3d_flags>  (1) 
0

>  <num_sample>  (1) 
50

>  <b_lp_Chiralities_Consistent>  (1) 
1

>  <r_epik_Charging_Adjusted_Penalty>  (1) 
6.4622408798935545e-05

>  <r_epik_Ionization_Penalty>  (1) 
6.4697991859273242e-05

>  <r_epik_Ionization_Penalty_Charging>  (1) 
6.4622408798935545e-05

>  <r_epik_Ionization_Penalty_Neutral>  (1) 
7.5583060337697202e-08

>  <r_epik_State_Penalty>  (1) 
-0

>  <r_glide_ring_energy>  (1) 
0

>  <r_i_docking_score>  (1) 
-7.1902875525108181

>  <r_i_glide_ecoul>  (1) 
-0.44928142205837052

>  <r_i_glide_eff_state_penalty>  (1) 
-0

>  <r_i_glide_einternal>  (1) 
10.584729782321364

>  <r_i_glide_emodel>  (1) 
-63.302053557482751

>  <r_i_glide_emodel_strain>  (1) 
1.0239206764582498

>  <r_i_glide_energy>  (1) 
-46.687482394793129

>  <r_i_glide_erotb>  (1) 
1.0908865233182055

>  <r_i_glide_esite>  (1) 
-0.10379639473803298

>  <r_i_glide_evdw>  (1) 
-46.238200972734759

>  <r_i_glide_gscore>  (1) 
-7.1902875525108181

>  <r_i_glide_gscore_strain>  (1) 
0

>  <r_i_glide_hbond>  (1) 
0

>  <r_i_glide_ligand_efficiency>  (1) 
-0.2319447597584135

>  <r_i_glide_ligand_efficiency_ln>  (1) 
-1.6216301989409372

>  <r_i_glide_ligand_efficiency_sa>  (1) 
-0.72862678072865006

>  <r_i_glide_lipo>  (1) 
-4.8147078528437985

>  <r_i_glide_metal>  (1) 
-0

>  <r_i_glide_rewards>  (1) 
-0.98336756630169864

>  <r_lp_Energy>  (1) 
36.114167000000002

>  <r_lp_tautomer_probability>  (1) 
1

>  <s_epik_cmdline>  (1) 
J2VwaWtfcHl0aG9uJywgJy1waHQnLCAnMS4wJywgJy1waCcsICc3LjQnLCAnLXRuJywgJzgnLCAnLW1hJywgJzUwMCcsICctaW1hZScsICc8aW5maWxlLm1hZT4nLCAnLW9tYWUnLCAnPG91dGZpbGUubWFlPic=

>  <s_epik_input>  (1) 
W2NIXTFbY0hdW2NIXVtjSF1bY0hdYzFbQ0BIXShbQ0gyXVtPSF0pW0NIMl1DKD1PKVtOSF1bQ0BIXShDKD1PKVtPSF0pW0NIMl1bQ0BASF0oW0NIMl1PW0NAQEhdKFtDSDNdKVtDSDJdW0NIM10pYzJbY0hdW2NIXVtjSF1bY0hdW2NIXTI=

>  <s_glide_docking_method>  (1) 
confgen

>  <s_i_glide_gridfile>  (1) 
gpcr_5ht2c_6bqh_protein_autoprepared_prepared

>  <s_lp_Force_Field>  (1) 
S-OPLS

>  <s_lp_Variant>  (1) 
DiffSBDD_43_num_sample_50-1

>  <s_m_source_file>  (1) 
generated__ligand_DiffSBDD_2026-05-06_prepared.sdf

>  <GenAI_Model>  (1) 
DiffSBDD

>  <Protein>  (1) 
GPCR_5HT2C

$$$$
DiffSBDD_4_num_sample_50
     RDKit          3D

  0  0  0  0  0  0  0  0  0  0999 V3000
M  V30 BEGIN CTAB
M  V30 COUNTS 72 74 0 0 1
M  V30 BEGIN ATOM
M  V30 1 C 39.161192 29.153689 52.573187 0
M  V30 2 C 40.007624 33.278944 62.549866 0
M  V30 3 C 40.668278 31.696801 64.220787 0
M  V30 4 N 38.598565 32.169239 61.235580 0
M  V30 5 C 37.127136 26.064771 56.844907 0
M  V30 6 C 41.502305 32.674980 64.824060 0
M  V30 7 C 39.178151 33.382183 61.392715 0
M  V30 8 N 39.302390 27.940317 55.794251 0
M  V30 9 C 38.062051 30.764102 57.731230 0
M  V30 10 C 38.172569 27.001372 53.762518 0
M  V30 11 O 37.467917 29.221406 55.381185 0
M  V30 12 C 37.751485 31.793972 60.107028 0
M  V30 13 F 40.918643 30.380150 49.492451 0
M  V30 14 C 39.382754 28.071810 50.406560 0
M  V30 15 C 38.986543 31.110959 62.297202 0
M  V30 16 C 40.808220 30.102473 50.791136 0
M  V30 17 N 38.667290 27.221080 51.348092 0 CHG=1
M  V30 18 C 40.820571 34.298085 63.102959 0
M  V30 19 C 39.139919 30.167210 56.799895 0
M  V30 20 C 39.087400 27.625412 52.688323 0 CFG=1
M  V30 21 C 39.936850 32.050706 63.076376 0
M  V30 22 O 40.579181 30.439351 64.746254 0
M  V30 23 C 41.579034 33.985061 64.261903 0
M  V30 24 C 39.468801 29.425172 51.082000 0 CFG=2
M  V30 25 C 38.350306 25.688098 55.998386 0
M  V30 26 C 38.559090 29.064635 55.921538 0
M  V30 27 N 38.812963 26.795447 55.093016 0
M  V30 28 C 37.945803 24.407201 55.244570 0
M  V30 29 C 40.892481 35.691768 62.492651 0
M  V30 30 N 39.773991 36.527488 62.884278 0
M  V30 31 F 40.891151 31.221248 51.492016 0
M  V30 32 C 38.681548 31.472240 58.930591 0
M  V30 33 C 39.490991 25.288937 56.956707 0
M  V30 34 O 39.046168 34.379440 60.682996 0
M  V30 35 H 38.198640 29.594741 52.831693 0
M  V30 36 H 39.896941 29.595103 53.244168 0
M  V30 37 H 37.246163 27.001218 57.388222 0
M  V30 38 H 36.267446 26.133434 56.189506 0
M  V30 39 H 36.895587 25.297770 57.583765 0
M  V30 40 H 42.076300 32.429304 65.706296 0
M  V30 41 H 39.920656 29.887846 64.347144 0
M  V30 42 H 40.195730 27.856609 56.258032 0
M  V30 43 H 37.383829 29.984284 58.083354 0
M  V30 44 H 37.467407 31.478877 57.167711 0
M  V30 45 H 37.922394 26.021227 53.372544 0
M  V30 46 H 37.207489 27.498498 53.843309 0
M  V30 47 H 37.161432 30.916724 60.377924 0
M  V30 48 H 37.046422 32.588068 59.852120 0
M  V30 49 H 38.876712 28.147749 49.453566 0
M  V30 50 H 40.367710 27.637947 50.252795 0
M  V30 51 H 39.510561 30.255713 61.868488 0
M  V30 52 H 38.137387 30.790644 62.898270 0
M  V30 53 H 41.662406 29.483980 51.053519 0
M  V30 54 H 38.874567 26.246741 51.179615 0
M  V30 55 H 39.584044 30.941617 56.173475 0
M  V30 56 H 39.947860 29.738100 57.393920 0
M  V30 57 H 40.092529 27.219179 52.808083 0
M  V30 58 H 42.211672 34.734664 64.717270 0
M  V30 59 H 38.669791 30.021806 50.656201 0
M  V30 60 H 38.768762 24.023218 54.653445 0
M  V30 61 H 37.660404 23.621599 55.942246 0
M  V30 62 H 37.082939 24.545873 54.593432 0
M  V30 63 H 41.802528 36.175924 62.848133 0
M  V30 64 H 40.991870 35.656289 61.407242 0
M  V30 65 H 40.125853 37.370900 63.318537 0
M  V30 66 H 39.270827 36.812696 62.055077 0
M  V30 67 H 39.149957 32.393912 58.581980 0
M  V30 68 H 39.467029 30.822849 59.317604 0
M  V30 69 H 39.761613 26.094546 57.639885 0
M  V30 70 H 39.220809 24.428324 57.567593 0
M  V30 71 H 40.383105 25.016224 56.394717 0
M  V30 72 H 37.669216 27.365424 51.254754 0
M  V30 END ATOM
M  V30 BEGIN BOND
M  V30 1 1 6 3
M  V30 2 1 7 2
M  V30 3 1 7 4
M  V30 4 1 12 4
M  V30 5 1 15 4
M  V30 6 1 16 13
M  V30 7 1 17 14
M  V30 8 2 18 2
M  V30 9 1 19 9
M  V30 10 1 20 1
M  V30 11 1 20 10
M  V30 12 1 20 17
M  V30 13 1 21 2
M  V30 14 2 21 3
M  V30 15 1 21 15
M  V30 16 1 22 3
M  V30 17 2 23 6
M  V30 18 1 23 18
M  V30 19 1 24 1
M  V30 20 1 24 14
M  V30 21 1 24 16
M  V30 22 1 25 5
M  V30 23 1 26 8
M  V30 24 2 26 11
M  V30 25 1 26 19
M  V30 26 1 27 8
M  V30 27 1 27 10
M  V30 28 1 27 25
M  V30 29 1 28 25
M  V30 30 1 29 18
M  V30 31 1 30 29
M  V30 32 1 31 16
M  V30 33 1 32 9
M  V30 34 1 32 12
M  V30 35 1 33 25
M  V30 36 2 34 7
M  V30 37 1 35 1
M  V30 38 1 36 1
M  V30 39 1 37 5
M  V30 40 1 38 5
M  V30 41 1 39 5
M  V30 42 1 40 6
M  V30 43 1 41 22
M  V30 44 1 42 8
M  V30 45 1 43 9
M  V30 46 1 44 9
M  V30 47 1 45 10
M  V30 48 1 46 10
M  V30 49 1 47 12
M  V30 50 1 48 12
M  V30 51 1 49 14
M  V30 52 1 50 14
M  V30 53 1 51 15
M  V30 54 1 52 15
M  V30 55 1 53 16
M  V30 56 1 54 17
M  V30 57 1 55 19
M  V30 58 1 56 19
M  V30 59 1 20 57 CFG=1
M  V30 60 1 58 23
M  V30 61 1 24 59 CFG=3
M  V30 62 1 60 28
M  V30 63 1 61 28
M  V30 64 1 62 28
M  V30 65 1 63 29
M  V30 66 1 64 29
M  V30 67 1 65 30
M  V30 68 1 66 30
M  V30 69 1 67 32
M  V30 70 1 68 32
M  V30 71 1 69 33
M  V30 72 1 70 33
M  V30 73 1 71 33
M  V30 74 1 72 17
M  V30 END BOND
M  V30 END CTAB
M  END
>  <i_epik_Tot_Q>  (1) 
1

>  <i_epik_Tot_abs_Q>  (1) 
1

>  <i_i_glide_confnum>  (1) 
1311

>  <i_i_glide_lignum>  (1) 
13

>  <i_i_glide_posenum>  (1) 
50

>  <i_i_glide_rotatable_bonds>  (1) 
13

>  <i_lp_mmshare_version>  (1) 
72125

>  <i_m_source_file_index>  (1) 
5

>  <i_f3d_flags>  (1) 
0

>  <num_sample>  (1) 
50

>  <b_lp_Chiralities_Consistent>  (1) 
1

>  <r_epik_Charging_Adjusted_Penalty>  (1) 
1.2595029471344665

>  <r_epik_Ionization_Penalty>  (1) 
1.2628522822174981

>  <r_epik_Ionization_Penalty_Charging>  (1) 
0.002090266189742528

>  <r_epik_Ionization_Penalty_Neutral>  (1) 
1.2607620160277555

>  <r_epik_State_Penalty>  (1) 
1.2574126809447239

>  <r_glide_ring_energy>  (1) 
0

>  <r_i_docking_score>  (1) 
-7.184854342652188

>  <r_i_glide_ecoul>  (1) 
-3.5382349857009379

>  <r_i_glide_eff_state_penalty>  (1) 
1.2574126809447239

>  <r_i_glide_einternal>  (1) 
11.147320748830186

>  <r_i_glide_emodel>  (1) 
-68.293205471187406

>  <r_i_glide_emodel_strain>  (1) 
0.89159573311154361

>  <r_i_glide_energy>  (1) 
-49.084680146842224

>  <r_i_glide_erotb>  (1) 
0.78424635180538971

>  <r_i_glide_esite>  (1) 
0

>  <r_i_glide_evdw>  (1) 
-45.546445161141285

>  <r_i_glide_gscore>  (1) 
-8.4422670235969122

>  <r_i_glide_gscore_strain>  (1) 
0

>  <r_i_glide_hbond>  (1) 
-0.044534503980657995

>  <r_i_glide_ligand_efficiency>  (1) 
-0.21131924537212318

>  <r_i_glide_ligand_efficiency_ln>  (1) 
-1.5873358526299601

>  <r_i_glide_ligand_efficiency_sa>  (1) 
-0.68459232114458257

>  <r_i_glide_lipo>  (1) 
-4.691935401597755

>  <r_i_glide_metal>  (1) 
-0

>  <r_i_glide_rewards>  (1) 
-1.6819859639116834

>  <r_lp_Energy>  (1) 
25.577957999999999

>  <r_lp_tautomer_probability>  (1) 
0.99999999999736477

>  <s_epik_cmdline>  (1) 
J2VwaWtfcHl0aG9uJywgJy1waHQnLCAnMS4wJywgJy1waCcsICc3LjQnLCAnLXRuJywgJzgnLCAnLW1hJywgJzUwMCcsICctaW1hZScsICc8aW5maWxlLm1hZT4nLCAnLW9tYWUnLCAnPG91dGZpbGUubWFlPic=

>  <s_epik_input>  (1) 
RltDSF0oRilbQ0BASF0oW0NIMl1bTkhdMSlbQ0gyXVtDQEhdMVtDSDJdTihDKFtDSDNdKShbQ0gzXSlbQ0gzXSlbTkhdQyg9TylbQ0gyXVtDSDJdW0NIMl1bQ0gyXU4oQzI9TylbQ0gyXUMoPUMyMylDKD1PKVtDSDJdW0NIXT1DM1tDSDJdW05IMl0=

>  <s_glide_docking_method>  (1) 
confgen

>  <s_i_glide_gridfile>  (1) 
gpcr_5ht2c_6bqh_protein_autoprepared_prepared

>  <s_lp_Force_Field>  (1) 
S-OPLS

>  <s_lp_Variant>  (1) 
DiffSBDD_4_num_sample_50-2

>  <s_m_source_file>  (1) 
generated__ligand_DiffSBDD_2026-05-06_prepared.sdf

>  <GenAI_Model>  (1) 
DiffSBDD

>  <Protein>  (1) 
GPCR_5HT2C

$$$$
DiffSBDD_19_num_sample_50
     RDKit          3D

  0  0  0  0  0  0  0  0  0  0999 V3000
M  V30 BEGIN CTAB
M  V30 COUNTS 46 49 0 0 1
M  V30 BEGIN ATOM
M  V30 1 N 38.009434 31.367067 60.624522 0
M  V30 2 C 39.484034 27.532654 58.855894 0
M  V30 3 C 38.284986 32.371057 61.647078 0
M  V30 4 C 38.946573 29.102886 56.887831 0
M  V30 5 N 39.147006 28.043667 56.050382 0
M  V30 6 C 40.362252 26.731888 57.914860 0
M  V30 7 C 39.434580 28.971028 58.349043 0 CFG=1
M  V30 8 F 38.316530 34.721561 61.853317 0
M  V30 9 O 40.156540 30.397337 60.653537 0
M  V30 10 O 38.397681 30.141792 56.520771 0
M  V30 11 N 36.704787 33.831617 60.483443 0
M  V30 12 N 36.940825 24.751155 55.052488 0
M  V30 13 C 39.026546 25.503785 56.071056 0 CFG=2
M  V30 14 O 38.549446 29.712243 59.188576 0
M  V30 15 C 38.281681 24.597930 57.063312 0
M  V30 16 O 36.562380 35.119158 59.832388 0
M  V30 17 C 36.437524 32.823804 59.453797 0
M  V30 18 C 39.815250 26.782971 56.483522 0 CFG=1
M  V30 19 C 38.656392 28.073959 54.650740 0
M  V30 20 C 38.082029 33.745553 60.977686 0 CFG=2
M  V30 21 C 37.878506 25.750416 55.136914 0
M  V30 22 C 37.713812 26.907159 54.485074 0
M  V30 23 C 36.668311 31.403575 60.012451 0
M  V30 24 C 39.012002 30.476274 60.200542 0
M  V30 25 C 37.162461 24.146001 56.137798 0
M  V30 26 H 39.890928 27.499859 59.866780 0
M  V30 27 H 38.479565 27.112367 58.903792 0
M  V30 28 H 37.595164 32.242981 62.481696 0
M  V30 29 H 39.292896 32.297913 62.057718 0
M  V30 30 H 40.470031 25.701646 58.253095 0
M  V30 31 H 41.370917 27.149075 57.933410 0
M  V30 32 H 40.441463 29.394902 58.363642 0
M  V30 33 H 37.856272 25.138258 57.907741 0
M  V30 34 H 37.158708 35.047911 59.102594 0
M  V30 35 H 35.412263 32.922944 59.095622 0
M  V30 36 H 37.086543 32.981423 58.590239 0
M  V30 37 H 40.705328 26.761351 55.852851 0
M  V30 38 H 38.117848 28.989331 54.399835 0
M  V30 39 H 39.467406 27.978761 53.934504 0
M  V30 40 H 38.793964 33.879428 60.161716 0
M  V30 41 H 36.859071 27.052654 53.840562 0
M  V30 42 H 35.933474 31.195460 60.790948 0
M  V30 43 H 36.463737 30.680974 59.222757 0
M  V30 44 H 36.583115 23.279858 56.465119 0
M  V30 45 H 39.724170 24.865548 55.523804 0
M  V30 46 H 38.884940 23.762995 57.421837 0
M  V30 END ATOM
M  V30 BEGIN BOND
M  V30 1 1 3 1
M  V30 2 1 5 4
M  V30 3 1 6 2
M  V30 4 1 7 2
M  V30 5 1 7 4
M  V30 6 2 10 4
M  V30 7 1 14 7
M  V30 8 1 15 13
M  V30 9 1 16 11
M  V30 10 1 17 11
M  V30 11 1 18 5
M  V30 12 1 18 6
M  V30 13 1 18 13
M  V30 14 1 19 5
M  V30 15 1 20 3
M  V30 16 1 20 8
M  V30 17 1 20 11
M  V30 18 1 21 12
M  V30 19 1 21 13
M  V30 20 1 22 19
M  V30 21 2 22 21
M  V30 22 1 23 1
M  V30 23 1 23 17
M  V30 24 1 24 1
M  V30 25 2 24 9
M  V30 26 1 24 14
M  V30 27 2 25 12
M  V30 28 1 25 15
M  V30 29 1 26 2
M  V30 30 1 27 2
M  V30 31 1 28 3
M  V30 32 1 29 3
M  V30 33 1 30 6
M  V30 34 1 31 6
M  V30 35 1 7 32 CFG=3
M  V30 36 1 33 15
M  V30 37 1 34 16
M  V30 38 1 35 17
M  V30 39 1 36 17
M  V30 40 1 18 37 CFG=3
M  V30 41 1 38 19
M  V30 42 1 39 19
M  V30 43 1 20 40 CFG=3
M  V30 44 1 41 22
M  V30 45 1 42 23
M  V30 46 1 43 23
M  V30 47 1 44 25
M  V30 48 1 13 45 CFG=3
M  V30 49 1 46 15
M  V30 END BOND
M  V30 END CTAB
M  END
>  <i_epik_Tot_Q>  (1) 
0

>  <i_epik_Tot_abs_Q>  (1) 
0

>  <i_i_glide_confnum>  (1) 
13

>  <i_i_glide_lignum>  (1) 
55

>  <i_i_glide_posenum>  (1) 
255

>  <i_i_glide_rotatable_bonds>  (1) 
4

>  <i_lp_mmshare_version>  (1) 
72125

>  <i_m_source_file_index>  (1) 
20

>  <i_f3d_flags>  (1) 
0

>  <num_sample>  (1) 
50

>  <b_lp_Chiralities_Consistent>  (1) 
1

>  <r_epik_Charging_Adjusted_Penalty>  (1) 
0

>  <r_epik_Ionization_Penalty>  (1) 
0.00023690808741792311

>  <r_epik_Ionization_Penalty_Charging>  (1) 
0

>  <r_epik_Ionization_Penalty_Neutral>  (1) 
0.00023690808741792311

>  <r_epik_State_Penalty>  (1) 
-0

>  <r_glide_ring_energy>  (1) 
0

>  <r_i_docking_score>  (1) 
-7.1837615771048906

>  <r_i_glide_ecoul>  (1) 
-0.60685529043006614

>  <r_i_glide_eff_state_penalty>  (1) 
-0

>  <r_i_glide_einternal>  (1) 
1.4803535275687869

>  <r_i_glide_emodel>  (1) 
-62.243142493974005

>  <r_i_glide_emodel_strain>  (1) 
0.00041714221693212039

>  <r_i_glide_energy>  (1) 
-44.412272897228739

>  <r_i_glide_erotb>  (1) 
0.46110279215177946

>  <r_i_glide_esite>  (1) 
0

>  <r_i_glide_evdw>  (1) 
-43.80541760679867

>  <r_i_glide_gscore>  (1) 
-7.1837615771048906

>  <r_i_glide_gscore_strain>  (1) 
0

>  <r_i_glide_hbond>  (1) 
0

>  <r_i_glide_ligand_efficiency>  (1) 
-0.28735046308419565

>  <r_i_glide_ligand_efficiency_ln>  (1) 
-1.7027667737362981

>  <r_i_glide_ligand_efficiency_sa>  (1) 
-0.84021785114186942

>  <r_i_glide_lipo>  (1) 
-2.6644053312381053

>  <r_i_glide_metal>  (1) 
-0

>  <r_i_glide_rewards>  (1) 
-2.6991598641141197

>  <r_lp_Energy>  (1) 
47.112966999999998

>  <r_lp_tautomer_probability>  (1) 
1

>  <s_epik_Chemistry_Notes>  (1) 
This compound has an ester and may undergo hydrolysis at high or low pH. This compound has an imine and may undergo hydrolysis. This compound has a N-S or N-O group and may undergo hydrolysis at high or low pH.

>  <s_epik_cmdline>  (1) 
J2VwaWtfcHl0aG9uJywgJy1waHQnLCAnMS4wJywgJy1waCcsICc3LjQnLCAnLXRuJywgJzgnLCAnLW1hJywgJzUwMCcsICctaW1hZScsICc8aW5maWxlLm1hZT4nLCAnLW9tYWUnLCAnPG91dGZpbGUubWFlPic=

>  <s_epik_input>  (1) 
W0NIMl0xW0NIMl1OKFtPSF0pW0NAQEhdKEYpW0NIMl1OMUMoPU8pT1tDQEhdKEMyPU8pW0NIMl1bQ0gyXVtDQEBIXShOMjMpQz00QyhbQ0gyXVtDSDJdMyk9TltDSDJdW0NIXTQ=

>  <s_glide_docking_method>  (1) 
confgen

>  <s_i_glide_gridfile>  (1) 
gpcr_5ht2c_6bqh_protein_autoprepared_prepared

>  <s_lp_Force_Field>  (1) 
S-OPLS

>  <s_lp_Variant>  (1) 
DiffSBDD_19_num_sample_50-4

>  <s_m_source_file>  (1) 
generated__ligand_DiffSBDD_2026-05-06_prepared.sdf

>  <GenAI_Model>  (1) 
DiffSBDD

>  <Protein>  (1) 
GPCR_5HT2C

$$$$
DiffSBDD_40_num_sample_50
     RDKit          3D

  0  0  0  0  0  0  0  0  0  0999 V3000
M  V30 BEGIN CTAB
M  V30 COUNTS 66 69 0 0 1
M  V30 BEGIN ATOM
M  V30 1 C 38.686370 28.358308 59.794483 0
M  V30 2 C 37.334246 30.905754 54.951002 0
M  V30 3 O 38.611643 24.021604 57.453487 0 CHG=-1
M  V30 4 C 37.455097 27.559026 54.306336 0
M  V30 5 O 37.827827 26.229416 54.629317 0
M  V30 6 C 38.743313 29.220660 52.097296 0 CFG=2
M  V30 7 C 38.141038 29.782205 55.625361 0 CFG=2
M  V30 8 O 36.914505 26.021957 56.842865 0
M  V30 9 C 38.522637 28.612001 54.696912 0 CFG=2
M  V30 10 C 37.778979 29.527303 59.324860 0 CFG=2
M  V30 11 C 38.076790 26.002273 56.011332 0 CFG=1
M  V30 12 C 40.080501 30.321770 53.318901 0
M  V30 13 C 39.319638 28.999116 53.479440 0 CFG=2
M  V30 14 C 38.840243 28.076912 51.117502 0
M  V30 15 O 38.182264 30.024248 58.049432 0
M  V30 16 O 40.803316 29.219447 59.139455 0
M  V30 17 C 39.836772 30.254829 51.806369 0 CFG=1
M  V30 18 C 37.815988 30.700848 60.314551 0
M  V30 19 P 37.443773 24.420782 56.646184 0
M  V30 20 C 41.003191 31.488787 62.683299 0
M  V30 21 O 41.067420 30.402022 61.772292 0
M  V30 22 N 37.467408 32.177359 55.674460 0 CHG=1
M  V30 23 O 39.154525 31.038838 60.638137 0
M  V30 24 C 37.522724 29.364467 56.975800 0
M  V30 25 C 40.054567 28.841795 60.269747 0 CFG=1
M  V30 26 C 40.750760 29.647829 50.756564 0
M  V30 27 O 36.971301 23.711504 55.433552 0
M  V30 28 C 39.840791 30.002456 61.271660 0 CFG=1
M  V30 29 C 39.970174 28.467630 50.157512 0
M  V30 30 C 38.792713 32.759397 55.967251 0
M  V30 31 H 38.783039 27.599251 59.018772 0
M  V30 32 H 38.267570 27.836610 60.646558 0
M  V30 33 H 37.574038 31.082605 53.908981 0
M  V30 34 H 36.279282 30.634439 54.935399 0
M  V30 35 H 36.475197 27.797532 54.653143 0
M  V30 36 H 37.268500 27.539796 53.236517 0
M  V30 37 H 37.752638 29.619357 52.212280 0
M  V30 38 H 39.125715 30.168760 55.879962 0
M  V30 39 H 39.260281 28.101804 55.310915 0
M  V30 40 H 36.734168 29.214837 59.277153 0
M  V30 41 H 38.966440 26.423170 56.470994 0
M  V30 42 H 39.593912 31.200608 53.717159 0
M  V30 43 H 41.067429 30.350576 53.723264 0
M  V30 44 H 39.867416 28.102672 53.280396 0
M  V30 45 H 37.876989 27.928806 50.653854 0
M  V30 46 H 39.072218 27.121650 51.591926 0
M  V30 47 H 40.266348 29.823699 58.644777 0
M  V30 48 H 39.467910 31.214689 51.459664 0
M  V30 49 H 37.320836 31.567919 59.880126 0
M  V30 50 H 37.268923 30.445678 61.221182 0
M  V30 51 H 42.001159 31.703972 63.070427 0
M  V30 52 H 40.639464 32.389124 62.188628 0
M  V30 53 H 40.353744 31.268675 63.530003 0
M  V30 54 H 36.880724 32.859444 55.199232 0
M  V30 55 H 37.614959 28.296351 57.135118 0
M  V30 56 H 36.463169 29.621185 57.019557 0
M  V30 57 H 40.584849 28.034790 60.781871 0
M  V30 58 H 40.994899 30.369603 49.973973 0
M  V30 59 H 41.698305 29.293809 51.147177 0
M  V30 60 H 39.253568 29.658560 62.129753 0
M  V30 61 H 39.537292 28.821332 49.224624 0
M  V30 62 H 40.643642 27.628974 49.957843 0
M  V30 63 H 38.647010 33.717047 56.465539 0
M  V30 64 H 39.383374 32.137632 56.633775 0
M  V30 65 H 39.354417 32.946238 55.053265 0
M  V30 66 H 36.941314 32.024089 56.541041 0
M  V30 END ATOM
M  V30 BEGIN BOND
M  V30 1 1 5 4
M  V30 2 1 7 2
M  V30 3 1 9 4
M  V30 4 1 9 7
M  V30 5 1 10 1
M  V30 6 1 11 5
M  V30 7 1 11 8
M  V30 8 1 13 6
M  V30 9 1 13 9
M  V30 10 1 13 12
M  V30 11 1 14 6
M  V30 12 1 15 10
M  V30 13 1 17 6
M  V30 14 1 17 12
M  V30 15 1 18 10
M  V30 16 1 19 3
M  V30 17 1 19 8
M  V30 18 1 19 11
M  V30 19 1 21 20
M  V30 20 1 22 2
M  V30 21 1 23 18
M  V30 22 1 24 7
M  V30 23 1 24 15
M  V30 24 1 25 1
M  V30 25 1 25 16
M  V30 26 1 26 17
M  V30 27 2 27 19
M  V30 28 1 28 21
M  V30 29 1 28 23
M  V30 30 1 28 25
M  V30 31 1 29 14
M  V30 32 1 29 26
M  V30 33 1 30 22
M  V30 34 1 31 1
M  V30 35 1 32 1
M  V30 36 1 33 2
M  V30 37 1 34 2
M  V30 38 1 35 4
M  V30 39 1 36 4
M  V30 40 1 6 37 CFG=1
M  V30 41 1 7 38 CFG=1
M  V30 42 1 9 39 CFG=1
M  V30 43 1 10 40 CFG=3
M  V30 44 1 11 41 CFG=1
M  V30 45 1 42 12
M  V30 46 1 43 12
M  V30 47 1 13 44 CFG=3
M  V30 48 1 45 14
M  V30 49 1 46 14
M  V30 50 1 47 16
M  V30 51 1 17 48 CFG=3
M  V30 52 1 49 18
M  V30 53 1 50 18
M  V30 54 1 51 20
M  V30 55 1 52 20
M  V30 56 1 53 20
M  V30 57 1 54 22
M  V30 58 1 55 24
M  V30 59 1 56 24
M  V30 60 1 25 57 CFG=1
M  V30 61 1 58 26
M  V30 62 1 59 26
M  V30 63 1 28 60 CFG=1
M  V30 64 1 61 29
M  V30 65 1 62 29
M  V30 66 1 63 30
M  V30 67 1 64 30
M  V30 68 1 65 30
M  V30 69 1 66 22
M  V30 END BOND
M  V30 END CTAB
M  END
>  <i_epik_Tot_Q>  (1) 
0

>  <i_epik_Tot_abs_Q>  (1) 
2

>  <i_i_glide_confnum>  (1) 
483

>  <i_i_glide_lignum>  (1) 
94

>  <i_i_glide_posenum>  (1) 
396

>  <i_i_glide_rotatable_bonds>  (1) 
12

>  <i_lp_mmshare_version>  (1) 
72125

>  <i_m_source_file_index>  (1) 
41

>  <i_f3d_flags>  (1) 
0

>  <num_sample>  (1) 
50

>  <b_lp_Chiralities_Consistent>  (1) 
1

>  <r_epik_Charging_Adjusted_Penalty>  (1) 
0.001220089536417487

>  <r_epik_Ionization_Penalty>  (1) 
0.0012207097255128069

>  <r_epik_Ionization_Penalty_Charging>  (1) 
0.001220089536417487

>  <r_epik_Ionization_Penalty_Neutral>  (1) 
6.2018909532001439e-07

>  <r_epik_State_Penalty>  (1) 
-0

>  <r_glide_ring_energy>  (1) 
2.4996791549734296

>  <r_i_docking_score>  (1) 
-7.1837541589190685

>  <r_i_glide_ecoul>  (1) 
-8.7868548070705685

>  <r_i_glide_eff_state_penalty>  (1) 
-0

>  <r_i_glide_einternal>  (1) 
12.967198678108057

>  <r_i_glide_emodel>  (1) 
-39.851781560323907

>  <r_i_glide_emodel_strain>  (1) 
2.99915650573422

>  <r_i_glide_energy>  (1) 
-31.647193540264759

>  <r_i_glide_erotb>  (1) 
0.69437166535620165

>  <r_i_glide_esite>  (1) 
-0.080249173633799298

>  <r_i_glide_evdw>  (1) 
-22.86033873319419

>  <r_i_glide_gscore>  (1) 
-7.1837541589190685

>  <r_i_glide_gscore_strain>  (1) 
0

>  <r_i_glide_hbond>  (1) 
-0.59911510205353291

>  <r_i_glide_ligand_efficiency>  (1) 
-0.23945847196396894

>  <r_i_glide_ligand_efficiency_ln>  (1) 
-1.6322272181771709

>  <r_i_glide_ligand_efficiency_sa>  (1) 
-0.74405314791248522

>  <r_i_glide_lipo>  (1) 
-3.0451729702682777

>  <r_i_glide_metal>  (1) 
-0

>  <r_i_glide_rewards>  (1) 
-1.6925434205993652

>  <r_lp_Energy>  (1) 
49.981364999999997

>  <r_lp_tautomer_probability>  (1) 
1

>  <s_epik_Chemistry_Notes>  (1) 
This compound contains an acetal/aminal-like group ( X-CH(R)-Y where X, Y are N, S, or O) that may be acid/base labile, releasing an aldehyde.

>  <s_epik_cmdline>  (1) 
J2VwaWtfcHl0aG9uJywgJy1waHQnLCAnMS4wJywgJy1waCcsICc3LjQnLCAnLXRuJywgJzgnLCAnLW1hJywgJzUwMCcsICctaW1hZScsICc8aW5maWxlLm1hZT4nLCAnLW9tYWUnLCAnPG91dGZpbGUubWFlPic=

>  <s_epik_input>  (1) 
W0NIMl0xT1tDQEhdKE9bQ0gzXSlbQ0BIXShbT0hdKVtDSDJdW0NAQEhdMU9bQ0gyXVtDQEhdKFtDSDJdW05IXVtDSDNdKVtDQEBIXShbQ0gyXU9bQ0BIXTJPW1BAXTIoPU8pW09IXSlbQ0BASF0zW0NIMl1bQ0BIXShbQ0BIXTM0KVtDSDJdW0NIMl1bQ0gyXTQ=

>  <s_glide_docking_method>  (1) 
confgen

>  <s_i_glide_gridfile>  (1) 
gpcr_5ht2c_6bqh_protein_autoprepared_prepared

>  <s_lp_Force_Field>  (1) 
S-OPLS

>  <s_lp_Variant>  (1) 
DiffSBDD_40_num_sample_50-1

>  <s_m_source_file>  (1) 
generated__ligand_DiffSBDD_2026-05-06_prepared.sdf

>  <GenAI_Model>  (1) 
DiffSBDD

>  <Protein>  (1) 
GPCR_5HT2C

$$$$
DiffSBDD_23_num_sample_50
     RDKit          3D

  0  0  0  0  0  0  0  0  0  0999 V3000
M  V30 BEGIN CTAB
M  V30 COUNTS 60 64 0 0 1
M  V30 BEGIN ATOM
M  V30 1 C 37.312383 36.541908 61.706346 0
M  V30 2 C 37.834333 27.670424 54.193157 0 CFG=1
M  V30 3 C 39.493709 32.299632 62.306141 0
M  V30 4 C 39.306447 28.802226 60.061514 0 CFG=1
M  V30 5 S 39.867404 30.821429 52.653505 0
M  V30 6 C 38.624737 33.141047 61.597299 0
M  V30 7 C 37.823685 35.400119 60.871852 0
M  V30 8 N 40.022922 28.954691 50.878566 0
M  V30 9 C 39.312566 29.242035 53.064314 0
M  V30 10 C 39.067403 26.939704 52.025942 0
M  V30 11 S 40.179948 27.505248 57.755083 0
M  V30 12 O 41.593463 27.904147 57.838018 0
M  V30 13 C 40.725905 34.229737 63.117619 0
M  V30 14 C 38.726368 28.933846 54.392417 0 CFG=2
M  V30 15 N 39.235870 28.732827 58.580263 0
M  V30 16 C 40.540311 32.838393 63.061461 0
M  V30 17 C 38.790210 34.540931 61.641615 0
M  V30 18 C 37.306047 30.340725 58.790078 0
M  V30 19 C 38.240706 37.697988 61.453501 0
M  V30 20 O 37.867416 38.644734 60.763738 0
M  V30 21 Cl 40.953521 28.421470 60.624980 0
M  V30 22 C 40.134753 36.600403 62.547134 0
M  V30 23 S 39.268010 30.554811 62.247990 0
M  V30 24 N 39.604451 27.648722 56.259322 0 CHG=-1
M  V30 25 O 39.773579 26.225681 58.354384 0
M  V30 26 N 39.474027 37.592661 62.061968 0
M  V30 27 C 37.862934 29.069433 58.111031 0
M  V30 28 C 39.465535 28.365571 52.017762 0
M  V30 29 C 40.267913 30.242606 51.064619 0
M  V30 30 O 37.515842 30.355397 60.192659 0
M  V30 31 C 39.860737 35.109643 62.420064 0
M  V30 32 N 39.735075 28.820291 55.453495 0
M  V30 33 N 36.668173 28.021419 53.384806 0 CHG=1
M  V30 34 C 38.889528 30.210487 60.509687 0 CFG=2
M  V30 35 C 38.578931 26.540943 53.453505 0
M  V30 36 H 37.208165 36.298483 62.765173 0
M  V30 37 H 36.326485 36.841506 61.351649 0
M  V30 38 H 37.428090 27.305686 55.136351 0
M  V30 39 H 38.659363 28.039564 60.494469 0
M  V30 40 H 37.819444 32.715771 61.018275 0
M  V30 41 H 36.967076 34.790927 60.580795 0
M  V30 42 H 38.274394 35.719467 59.930267 0
M  V30 43 H 38.260333 26.821429 51.304621 0
M  V30 44 H 39.867402 26.284909 51.695507 0
M  V30 45 H 41.537471 34.632634 63.706984 0
M  V30 46 H 38.088160 29.765342 54.695355 0
M  V30 47 H 41.206872 32.183679 63.603949 0
M  V30 48 H 36.235666 30.421290 58.603973 0
M  V30 49 H 37.763462 31.229703 58.352477 0
M  V30 50 H 41.026327 36.832472 63.135239 0
M  V30 51 H 37.209231 28.211100 58.253501 0
M  V30 52 H 37.835114 29.276139 57.047996 0
M  V30 53 H 40.693575 30.844567 50.274294 0
M  V30 54 H 40.671745 28.875206 55.077232 0
M  V30 55 H 36.979986 28.266002 52.455862 0
M  V30 56 H 36.044471 27.229654 53.341764 0
M  V30 57 H 39.467442 30.940865 59.941065 0
M  V30 58 H 37.945273 25.653499 53.453501 0
M  V30 59 H 39.457563 26.260996 54.035061 0
M  V30 60 H 36.214827 28.811388 53.816834 0
M  V30 END ATOM
M  V30 BEGIN BOND
M  V30 1 2 6 3
M  V30 2 1 7 1
M  V30 3 1 9 5
M  V30 4 2 12 11
M  V30 5 1 14 2
M  V30 6 1 14 9
M  V30 7 1 15 4
M  V30 8 1 15 11
M  V30 9 1 16 3
M  V30 10 2 16 13
M  V30 11 1 17 6
M  V30 12 1 17 7
M  V30 13 1 19 1
M  V30 14 2 20 19
M  V30 15 1 21 4
M  V30 16 1 23 3
M  V30 17 1 24 11
M  V30 18 2 25 11
M  V30 19 1 26 19
M  V30 20 2 26 22
M  V30 21 1 27 15
M  V30 22 1 27 18
M  V30 23 1 28 8
M  V30 24 2 28 9
M  V30 25 1 28 10
M  V30 26 1 29 5
M  V30 27 2 29 8
M  V30 28 1 30 18
M  V30 29 1 31 13
M  V30 30 2 31 17
M  V30 31 1 31 22
M  V30 32 1 32 14
M  V30 33 1 32 24
M  V30 34 1 33 2
M  V30 35 1 34 4
M  V30 36 1 34 23
M  V30 37 1 34 30
M  V30 38 1 35 2
M  V30 39 1 35 10
M  V30 40 1 36 1
M  V30 41 1 37 1
M  V30 42 1 2 38 CFG=1
M  V30 43 1 4 39 CFG=1
M  V30 44 1 40 6
M  V30 45 1 41 7
M  V30 46 1 42 7
M  V30 47 1 43 10
M  V30 48 1 44 10
M  V30 49 1 45 13
M  V30 50 1 14 46 CFG=1
M  V30 51 1 47 16
M  V30 52 1 48 18
M  V30 53 1 49 18
M  V30 54 1 50 22
M  V30 55 1 51 27
M  V30 56 1 52 27
M  V30 57 1 53 29
M  V30 58 1 54 32
M  V30 59 1 55 33
M  V30 60 1 56 33
M  V30 61 1 34 57 CFG=3
M  V30 62 1 58 35
M  V30 63 1 59 35
M  V30 64 1 60 33
M  V30 END BOND
M  V30 END CTAB
M  END
>  <i_epik_Tot_Q>  (1) 
0

>  <i_epik_Tot_abs_Q>  (1) 
2

>  <i_i_glide_confnum>  (1) 
155

>  <i_i_glide_lignum>  (1) 
64

>  <i_i_glide_posenum>  (1) 
87

>  <i_i_glide_rotatable_bonds>  (1) 
6

>  <i_lp_mmshare_version>  (1) 
72125

>  <i_m_source_file_index>  (1) 
24

>  <i_f3d_flags>  (1) 
0

>  <num_sample>  (1) 
50

>  <b_lp_Chiralities_Consistent>  (1) 
1

>  <r_epik_Charging_Adjusted_Penalty>  (1) 
2.2272092532468064

>  <r_epik_Ionization_Penalty>  (1) 
1.0462412004884125

>  <r_epik_Ionization_Penalty_Charging>  (1) 
1.0439143913358477

>  <r_epik_Ionization_Penalty_Neutral>  (1) 
0.002326809152564684

>  <r_epik_State_Penalty>  (1) 
1.1832948619109587

>  <r_glide_ring_energy>  (1) 
2.0047208920200128

>  <r_i_docking_score>  (1) 
-7.1806072227255537

>  <r_i_glide_ecoul>  (1) 
-0.77297188490766189

>  <r_i_glide_eff_state_penalty>  (1) 
1.1832948619109587

>  <r_i_glide_einternal>  (1) 
9.4443118712094396

>  <r_i_glide_emodel>  (1) 
-73.78208682875659

>  <r_i_glide_emodel_strain>  (1) 
2.8699522018915076

>  <r_i_glide_energy>  (1) 
-53.356444514961694

>  <r_i_glide_erotb>  (1) 
0.32509228849270932

>  <r_i_glide_esite>  (1) 
0

>  <r_i_glide_evdw>  (1) 
-52.583472630054032

>  <r_i_glide_gscore>  (1) 
-8.3639020846365124

>  <r_i_glide_gscore_strain>  (1) 
0

>  <r_i_glide_hbond>  (1) 
0

>  <r_i_glide_ligand_efficiency>  (1) 
-0.20516020636358726

>  <r_i_glide_ligand_efficiency_ln>  (1) 
-1.576302650379209

>  <r_i_glide_ligand_efficiency_sa>  (1) 
-0.67109263922726903

>  <r_i_glide_lipo>  (1) 
-4.3309778428978634

>  <r_i_glide_metal>  (1) 
-0

>  <r_i_glide_rewards>  (1) 
-1.6128971159925083

>  <r_lp_Energy>  (1) 
43.619828999999996

>  <s_epik_Chemistry_Notes>  (1) 
This compound has an imine and may undergo hydrolysis. This compound contains an acetal/aminal-like group ( X-CH(R)-Y where X, Y are N, S, or O) that may be acid/base labile, releasing an aldehyde.

>  <s_epik_cmdline>  (1) 
J2VwaWtfcHl0aG9uJywgJy1waHQnLCAnMS4wJywgJy1waCcsICc3LjQnLCAnLXRuJywgJzgnLCAnLW1hJywgJzUwMCcsICctaW1hZScsICc8aW5maWxlLm1hZT4nLCAnLW9tYWUnLCAnPG91dGZpbGUubWFlPic=

>  <s_epik_input>  (1) 
W0NIMl0xW0NIMl1DKD1PKU49W0NIXWMoYzEyKVtjSF1bY0hdYyhbY0hdMilTW0NAQEhdM09bQ0gyXVtDSDJdTihbQ0BIXTNDbClTKD1PKSg9TylbTkhdW05IXVtDQEBIXTRbQ0BASF0oW05IMl0pW0NIMl1bQ0gyXWMoYzQ1KW5bY0hdczU=

>  <s_glide_docking_method>  (1) 
confgen

>  <s_i_glide_gridfile>  (1) 
gpcr_5ht2c_6bqh_protein_autoprepared_prepared

>  <s_lp_Force_Field>  (1) 
S-OPLS

>  <s_lp_Variant>  (1) 
DiffSBDD_23_num_sample_50-3

>  <s_m_source_file>  (1) 
generated__ligand_DiffSBDD_2026-05-06_prepared.sdf

>  <GenAI_Model>  (1) 
DiffSBDD

>  <Protein>  (1) 
GPCR_5HT2C

$$$$
DiffSBDD_47_num_sample_50
     RDKit          3D

  0  0  0  0  0  0  0  0  0  0999 V3000
M  V30 BEGIN CTAB
M  V30 COUNTS 47 49 0 0 1
M  V30 BEGIN ATOM
M  V30 1 C 38.423545 33.124527 60.984368 0
M  V30 2 C 37.238314 35.240131 60.202125 0
M  V30 3 C 38.856870 36.841262 61.853439 0
M  V30 4 C 38.827068 29.422851 53.312703 0
M  V30 5 C 38.200111 27.271109 54.247705 0
M  V30 6 N 39.594791 31.147758 61.841128 0
M  V30 7 C 37.872823 30.901012 60.156848 0
M  V30 8 C 38.847468 30.381592 61.025902 0
M  V30 9 C 37.714026 31.185120 54.653569 0
M  V30 10 C 38.523238 28.127239 53.139154 0
M  V30 11 O 38.747224 28.391354 58.611439 0
M  V30 12 N 37.867421 29.671124 56.965412 0
M  V30 13 C 38.699209 29.120745 55.890420 0 CFG=2
M  V30 14 C 38.841603 30.124178 54.676328 0
M  V30 15 C 39.041593 35.445772 61.834546 0
M  V30 16 O 39.644634 37.621419 62.648868 0
M  V30 17 C 37.062849 36.636348 60.230034 0
M  V30 18 C 37.969851 29.272471 58.242514 0
M  V30 19 C 37.655278 32.288427 60.132826 0
M  V30 20 C 37.064312 29.975711 59.254710 0
M  V30 21 C 38.267335 27.707056 55.510584 0
M  V30 22 C 38.232941 34.615029 61.006839 0
M  V30 23 C 37.867409 37.433825 61.054150 0
M  V30 24 C 39.383592 32.483076 61.818017 0
M  V30 25 C 40.169896 30.886601 54.813069 0
M  V30 26 H 36.605948 34.650532 59.561958 0
M  V30 27 H 39.067734 30.030767 52.453654 0
M  V30 28 H 37.899805 26.251190 54.056820 0
M  V30 29 H 39.033352 29.318658 61.068002 0
M  V30 30 H 37.704284 31.807435 55.549491 0
M  V30 31 H 37.846891 31.876590 53.823480 0
M  V30 32 H 36.728266 30.727557 54.556616 0
M  V30 33 H 38.521334 27.716461 52.139501 0
M  V30 34 H 37.203420 30.399291 56.725890 0
M  V30 35 H 39.699769 28.971168 56.302253 0
M  V30 36 H 39.805844 35.014427 62.455078 0
M  V30 37 H 40.270236 37.146809 63.177081 0
M  V30 38 H 36.303017 37.094702 59.613857 0
M  V30 39 H 36.912185 32.700778 59.472590 0
M  V30 40 H 36.556376 29.222069 59.853526 0
M  V30 41 H 36.285537 30.536226 58.734954 0
M  V30 42 H 38.021029 27.037420 56.321661 0
M  V30 43 H 37.727926 38.505055 61.071095 0
M  V30 44 H 39.999221 33.055092 62.488635 0
M  V30 45 H 40.219958 31.426186 55.759427 0
M  V30 46 H 41.028008 30.217347 54.765216 0
M  V30 47 H 40.278757 31.621294 54.016769 0
M  V30 END ATOM
M  V30 BEGIN BOND
M  V30 1 2 8 6
M  V30 2 1 8 7
M  V30 3 2 10 4
M  V30 4 1 10 5
M  V30 5 1 13 12
M  V30 6 1 14 4
M  V30 7 1 14 9
M  V30 8 1 14 13
M  V30 9 2 15 3
M  V30 10 1 16 3
M  V30 11 1 17 2
M  V30 12 2 18 11
M  V30 13 1 18 12
M  V30 14 1 19 1
M  V30 15 2 19 7
M  V30 16 1 20 7
M  V30 17 1 20 18
M  V30 18 2 21 5
M  V30 19 1 21 13
M  V30 20 1 22 1
M  V30 21 2 22 2
M  V30 22 1 22 15
M  V30 23 1 23 3
M  V30 24 2 23 17
M  V30 25 2 24 1
M  V30 26 1 24 6
M  V30 27 1 25 14
M  V30 28 1 26 2
M  V30 29 1 27 4
M  V30 30 1 28 5
M  V30 31 1 29 8
M  V30 32 1 30 9
M  V30 33 1 31 9
M  V30 34 1 32 9
M  V30 35 1 33 10
M  V30 36 1 34 12
M  V30 37 1 13 35 CFG=1
M  V30 38 1 36 15
M  V30 39 1 37 16
M  V30 40 1 38 17
M  V30 41 1 39 19
M  V30 42 1 40 20
M  V30 43 1 41 20
M  V30 44 1 42 21
M  V30 45 1 43 23
M  V30 46 1 44 24
M  V30 47 1 45 25
M  V30 48 1 46 25
M  V30 49 1 47 25
M  V30 END BOND
M  V30 END CTAB
M  END
>  <i_epik_Tot_Q>  (1) 
0

>  <i_epik_Tot_abs_Q>  (1) 
0

>  <i_i_glide_confnum>  (1) 
67

>  <i_i_glide_lignum>  (1) 
108

>  <i_i_glide_posenum>  (1) 
131

>  <i_i_glide_rotatable_bonds>  (1) 
6

>  <i_lp_mmshare_version>  (1) 
72125

>  <i_m_source_file_index>  (1) 
48

>  <i_f3d_flags>  (1) 
0

>  <num_sample>  (1) 
50

>  <b_lp_Chiralities_Consistent>  (1) 
1

>  <r_epik_Charging_Adjusted_Penalty>  (1) 
0.0032589894025149397

>  <r_epik_Ionization_Penalty>  (1) 
0.0038156857198904941

>  <r_epik_Ionization_Penalty_Charging>  (1) 
0

>  <r_epik_Ionization_Penalty_Neutral>  (1) 
0.0038156857198904941

>  <r_epik_State_Penalty>  (1) 
0.0032589894025149397

>  <r_glide_ring_energy>  (1) 
0.22159941248723586

>  <r_i_docking_score>  (1) 
-7.1771658408155421

>  <r_i_glide_ecoul>  (1) 
-4.2716892666010722

>  <r_i_glide_eff_state_penalty>  (1) 
0.0032589894025149397

>  <r_i_glide_einternal>  (1) 
1.3660765438499602

>  <r_i_glide_emodel>  (1) 
-64.997572074693394

>  <r_i_glide_emodel_strain>  (1) 
0

>  <r_i_glide_energy>  (1) 
-44.376485581964651

>  <r_i_glide_erotb>  (1) 
0.84319913175930694

>  <r_i_glide_esite>  (1) 
-0.063331541409461109

>  <r_i_glide_evdw>  (1) 
-40.104796315363579

>  <r_i_glide_gscore>  (1) 
-7.1804248302180573

>  <r_i_glide_gscore_strain>  (1) 
0

>  <r_i_glide_hbond>  (1) 
-0.033336136685829534

>  <r_i_glide_ligand_efficiency>  (1) 
-0.28708663363262166

>  <r_i_glide_ligand_efficiency_ln>  (1) 
-1.7012033865774561

>  <r_i_glide_ligand_efficiency_sa>  (1) 
-0.8394464091456042

>  <r_i_glide_lipo>  (1) 
-3.3254214287544301

>  <r_i_glide_metal>  (1) 
-0

>  <r_i_glide_rewards>  (1) 
-1.9555416493693025

>  <r_lp_Energy>  (1) 
36.557407999999995

>  <r_lp_tautomer_probability>  (1) 
0.99999999999736477

>  <s_epik_cmdline>  (1) 
J2VwaWtfcHl0aG9uJywgJy1waHQnLCAnMS4wJywgJy1waCcsICc3LjQnLCAnLXRuJywgJzgnLCAnLW1hJywgJzUwMCcsICctaW1hZScsICc8aW5maWxlLm1hZT4nLCAnLW9tYWUnLCAnPG91dGZpbGUubWFlPic=

>  <s_epik_input>  (1) 
W09IXWMxW2NIXWMoW2NIXVtjSF1bY0hdMSktYzJbY0hdYyhbY0hdbltjSF0yKVtDSDJdQyg9TylbTkhdW0NAQEhdM1tDSF09W0NIXVtDSF09W0NIXUMzKFtDSDNdKVtDSDNd

>  <s_glide_docking_method>  (1) 
confgen

>  <s_i_glide_gridfile>  (1) 
gpcr_5ht2c_6bqh_protein_autoprepared_prepared

>  <s_lp_Force_Field>  (1) 
S-OPLS

>  <s_lp_Variant>  (1) 
DiffSBDD_47_num_sample_50-2

>  <s_m_source_file>  (1) 
generated__ligand_DiffSBDD_2026-05-06_prepared.sdf

>  <GenAI_Model>  (1) 
DiffSBDD

>  <Protein>  (1) 
GPCR_5HT2C

$$$$
DiffSBDD_29_num_sample_50
     RDKit          3D

  0  0  0  0  0  0  0  0  0  0999 V3000
M  V30 BEGIN CTAB
M  V30 COUNTS 79 81 0 0 1
M  V30 BEGIN ATOM
M  V30 1 C 41.074840 34.158382 67.941732 0
M  V30 2 C 39.991988 29.536936 60.007004 0
M  V30 3 C 40.281797 34.315764 66.653694 0
M  V30 4 C 39.966590 26.762513 55.951527 0
M  V30 5 C 37.365211 35.559953 60.529213 0
M  V30 6 C 37.574662 26.074895 56.436904 0
M  V30 7 C 40.913952 34.568397 61.874522 0 CFG=2
M  V30 8 N 38.151355 31.143651 59.595696 0 CHG=1
M  V30 9 C 38.668072 34.849311 60.703617 0 CFG=1
M  V30 10 N 37.539432 26.817176 57.468749 0
M  V30 11 C 39.515717 35.176766 61.950359 0
M  V30 12 C 38.689753 32.508328 59.504629 0 CFG=2
M  V30 13 O 37.316134 29.708671 57.321307 0
M  V30 14 O 40.967878 33.139120 61.934988 0
M  V30 15 C 36.304454 34.816017 60.416557 0
M  V30 16 C 38.184045 26.805788 54.114725 0
M  V30 17 C 37.353277 37.075161 60.448574 0
M  V30 18 C 40.919805 33.677940 64.314093 0
M  V30 19 C 38.063546 33.358058 60.627715 0 CFG=2
M  V30 20 C 39.624242 28.043806 56.692943 0
M  V30 21 C 42.247459 33.169485 67.934001 0
M  V30 22 F 41.807122 31.956087 67.600437 0
M  V30 23 O 40.416811 28.634952 62.198560 0
M  V30 24 O 39.062228 24.821447 55.053681 0
M  V30 25 C 37.123000 37.753942 61.804129 0
M  V30 26 C 38.956616 30.067087 58.987251 0 CFG=2
M  V30 27 F 43.174088 33.550146 67.057736 0
M  V30 28 C 36.470538 33.362238 60.504662 0
M  V30 29 C 39.389593 28.929548 61.281490 0
M  V30 30 C 37.973365 29.044723 58.388204 0 CFG=2
M  V30 31 C 41.025610 34.521977 65.355294 0
M  V30 32 F 42.807353 33.103683 69.142318 0
M  V30 33 C 38.611643 27.748751 57.830050 0 CFG=1
M  V30 34 O 40.766078 34.782539 68.958044 0
M  V30 35 C 41.596027 33.842990 63.017924 0 CFG=2
M  V30 36 C 38.685905 26.119674 55.401168 0 CFG=1
M  V30 37 C 38.439992 33.037521 58.076716 0
M  V30 38 H 40.647803 30.359530 60.292962 0
M  V30 39 H 40.648392 28.807637 59.531874 0
M  V30 40 H 39.483753 35.050155 66.773817 0
M  V30 41 H 39.867424 33.337094 66.493015 0
M  V30 42 H 40.469181 26.086225 56.647007 0
M  V30 43 H 40.667276 26.957144 55.141809 0
M  V30 44 H 36.782958 25.349836 56.228191 0
M  V30 45 H 41.562614 35.005222 61.118068 0
M  V30 46 H 37.266871 31.163756 59.102623 0
M  V30 47 H 39.296611 35.067687 59.853560 0
M  V30 48 H 39.657466 36.253306 62.034893 0
M  V30 49 H 39.012084 34.856291 62.858009 0
M  V30 50 H 39.754872 32.490148 59.717486 0
M  V30 51 H 36.385266 29.797157 57.481640 0
M  V30 52 H 35.328832 35.221057 60.253611 0
M  V30 53 H 37.857689 27.829313 54.304035 0
M  V30 54 H 38.963713 26.848433 53.352949 0
M  V30 55 H 37.336253 26.270760 53.680262 0
M  V30 56 H 38.267397 37.428885 59.986262 0
M  V30 57 H 36.549763 37.371324 59.773335 0
M  V30 58 H 40.288414 32.807252 64.411450 0
M  V30 59 H 38.300810 32.869949 61.574606 0
M  V30 60 H 39.225321 28.767022 55.981990 0
M  V30 61 H 40.533086 28.491127 57.094630 0
M  V30 62 H 40.020186 28.336400 63.007997 0
M  V30 63 H 39.522809 24.441447 55.785990 0
M  V30 64 H 37.053074 38.834140 61.673416 0
M  V30 65 H 36.196209 37.415632 62.266997 0
M  V30 66 H 37.930439 37.559105 62.507643 0
M  V30 67 H 39.510561 30.468720 58.141924 0
M  V30 68 H 36.061730 32.877118 59.618704 0
M  V30 69 H 35.976040 32.971901 61.395572 0
M  V30 70 H 38.834516 28.021299 61.052204 0
M  V30 71 H 38.699540 29.621688 61.763963 0
M  V30 72 H 37.220005 28.821411 59.140658 0
M  V30 73 H 41.654639 35.399565 65.282265 0
M  V30 74 H 39.163614 27.268997 58.639828 0
M  V30 75 H 42.667371 33.676120 63.053628 0
M  V30 76 H 38.855250 34.021409 57.942119 0
M  V30 77 H 38.904972 32.413459 57.315021 0
M  V30 78 H 37.380928 33.098102 57.827806 0
M  V30 79 H 37.977946 30.920931 60.562892 0
M  V30 END ATOM
M  V30 BEGIN BOND
M  V30 1 1 3 1
M  V30 2 1 9 5
M  V30 3 2 10 6
M  V30 4 1 11 7
M  V30 5 1 11 9
M  V30 6 1 12 8
M  V30 7 1 14 7
M  V30 8 2 15 5
M  V30 9 1 17 5
M  V30 10 1 19 9
M  V30 11 1 19 12
M  V30 12 1 20 4
M  V30 13 1 21 1
M  V30 14 1 22 21
M  V30 15 1 25 17
M  V30 16 1 26 2
M  V30 17 1 26 8
M  V30 18 1 27 21
M  V30 19 1 28 15
M  V30 20 1 28 19
M  V30 21 1 29 2
M  V30 22 1 29 23
M  V30 23 1 30 13
M  V30 24 1 30 26
M  V30 25 1 31 3
M  V30 26 2 31 18
M  V30 27 1 32 21
M  V30 28 1 33 10
M  V30 29 1 33 20
M  V30 30 1 33 30
M  V30 31 2 34 1
M  V30 32 1 35 7
M  V30 33 1 35 14
M  V30 34 1 35 18
M  V30 35 1 36 4
M  V30 36 1 36 6
M  V30 37 1 36 16
M  V30 38 1 36 24 CFG=3
M  V30 39 1 37 12
M  V30 40 1 38 2
M  V30 41 1 39 2
M  V30 42 1 40 3
M  V30 43 1 41 3
M  V30 44 1 42 4
M  V30 45 1 43 4
M  V30 46 1 44 6
M  V30 47 1 7 45 CFG=3
M  V30 48 1 46 8
M  V30 49 1 9 47 CFG=3
M  V30 50 1 48 11
M  V30 51 1 49 11
M  V30 52 1 12 50 CFG=1
M  V30 53 1 51 13
M  V30 54 1 52 15
M  V30 55 1 53 16
M  V30 56 1 54 16
M  V30 57 1 55 16
M  V30 58 1 56 17
M  V30 59 1 57 17
M  V30 60 1 58 18
M  V30 61 1 19 59 CFG=1
M  V30 62 1 60 20
M  V30 63 1 61 20
M  V30 64 1 62 23
M  V30 65 1 63 24
M  V30 66 1 64 25
M  V30 67 1 65 25
M  V30 68 1 66 25
M  V30 69 1 26 67 CFG=3
M  V30 70 1 68 28
M  V30 71 1 69 28
M  V30 72 1 70 29
M  V30 73 1 71 29
M  V30 74 1 30 72 CFG=1
M  V30 75 1 73 31
M  V30 76 1 33 74 CFG=1
M  V30 77 1 35 75 CFG=1
M  V30 78 1 76 37
M  V30 79 1 77 37
M  V30 80 1 78 37
M  V30 81 1 79 8
M  V30 END BOND
M  V30 END CTAB
M  END
>  <i_epik_Tot_Q>  (1) 
1

>  <i_epik_Tot_abs_Q>  (1) 
1

>  <i_i_glide_confnum>  (1) 
5093

>  <i_i_glide_lignum>  (1) 
75

>  <i_i_glide_posenum>  (1) 
100

>  <i_i_glide_rotatable_bonds>  (1) 
17

>  <i_lp_mmshare_version>  (1) 
72125

>  <i_m_source_file_index>  (1) 
30

>  <i_f3d_flags>  (1) 
0

>  <num_sample>  (1) 
50

>  <b_lp_Chiralities_Consistent>  (1) 
1

>  <r_epik_Charging_Adjusted_Penalty>  (1) 
0.073066720001252791

>  <r_epik_Ionization_Penalty>  (1) 
0.041882768558209021

>  <r_epik_Ionization_Penalty_Charging>  (1) 
0.011280877963412759

>  <r_epik_Ionization_Penalty_Neutral>  (1) 
0.030601890594796264

>  <r_epik_State_Penalty>  (1) 
0.061785842037840037

>  <r_glide_ring_energy>  (1) 
0

>  <r_i_docking_score>  (1) 
-7.1694665851847246

>  <r_i_glide_ecoul>  (1) 
-3.4637401470532381

>  <r_i_glide_eff_state_penalty>  (1) 
0.061785842037840037

>  <r_i_glide_einternal>  (1) 
4.6632339682663329

>  <r_i_glide_emodel>  (1) 
-56.731035222455745

>  <r_i_glide_emodel_strain>  (1) 
2.0920251955563174

>  <r_i_glide_energy>  (1) 
-37.378264683707926

>  <r_i_glide_erotb>  (1) 
0.87550365807384167

>  <r_i_glide_esite>  (1) 
-0.024511369994293788

>  <r_i_glide_evdw>  (1) 
-33.914524536654689

>  <r_i_glide_gscore>  (1) 
-7.2312524272225644

>  <r_i_glide_gscore_strain>  (1) 
0

>  <r_i_glide_hbond>  (1) 
-0.13952362178163116

>  <r_i_glide_ligand_efficiency>  (1) 
-0.1937693671671547

>  <r_i_glide_ligand_efficiency_ln>  (1) 
-1.554889226183003

>  <r_i_glide_ligand_efficiency_sa>  (1) 
-0.64568251945400101

>  <r_i_glide_lipo>  (1) 
-3.8864552992729084

>  <r_i_glide_metal>  (1) 
-0

>  <r_i_glide_rewards>  (1) 
-1.8409785453568528

>  <r_lp_Energy>  (1) 
33.860624000000001

>  <s_epik_Chemistry_Notes>  (1) 
This compound has an imine and may undergo hydrolysis.

>  <s_epik_cmdline>  (1) 
J2VwaWtfcHl0aG9uJywgJy1waHQnLCAnMS4wJywgJy1waCcsICc3LjQnLCAnLXRuJywgJzgnLCAnLW1hJywgJzUwMCcsICctaW1hZScsICc8aW5maWxlLm1hZT4nLCAnLW9tYWUnLCAnPG91dGZpbGUubWFlPic=

>  <s_epik_input>  (1) 
RkMoRikoRilDKD1PKVtDSDJdXFtDSF09W0NIXVxbQ0BIXTFPW0NASF0xW0NIMl1bQ0BIXTJbQ0BIXShbQ0gyXVtDSF09QzJbQ0gyXVtDSDNdKVtDQEhdKFtDSDNdKVtOSF1bQ0BASF0oW0NIMl1bQ0gyXVtPSF0pW0NAQEhdKFtPSF0pW0NAQEhdKE49W0NIXTMpW0NIMl1bQ0gyXVtDQEBdMyhbQ0gzXSlbT0hd

>  <s_glide_docking_method>  (1) 
confgen

>  <s_i_glide_gridfile>  (1) 
gpcr_5ht2c_6bqh_protein_autoprepared_prepared

>  <s_lp_Force_Field>  (1) 
S-OPLS

>  <s_lp_Variant>  (1) 
DiffSBDD_29_num_sample_50-3

>  <s_m_source_file>  (1) 
generated__ligand_DiffSBDD_2026-05-06_prepared.sdf

>  <GenAI_Model>  (1) 
DiffSBDD

>  <Protein>  (1) 
GPCR_5HT2C

$$$$
DiffSBDD_19_num_sample_50
     RDKit          3D

  0  0  0  0  0  0  0  0  0  0999 V3000
M  V30 BEGIN CTAB
M  V30 COUNTS 46 49 0 0 1
M  V30 BEGIN ATOM
M  V30 1 N 37.196901 31.628709 60.041560 0
M  V30 2 C 39.309692 27.905669 59.117425 0
M  V30 3 C 38.247927 32.562302 60.474805 0
M  V30 4 C 39.067515 29.306955 56.916845 0
M  V30 5 N 39.002675 28.125905 56.237068 0
M  V30 6 C 39.939354 26.834839 58.253549 0
M  V30 7 C 39.455540 29.261860 58.419488 0 CFG=1
M  V30 8 F 38.815751 34.821805 60.322903 0
M  V30 9 O 36.659052 29.621434 58.932337 0
M  V30 10 O 38.834846 30.390974 56.380599 0
M  V30 11 N 36.580081 34.361221 60.186679 0
M  V30 12 N 36.901228 24.717857 55.053490 0
M  V30 13 C 37.948205 26.026055 56.839337 0 CFG=1
M  V30 14 O 38.830535 30.312197 59.174556 0
M  V30 15 C 37.866727 24.554804 57.262122 0
M  V30 16 O 36.329401 35.590247 59.453537 0
M  V30 17 C 35.560797 33.409794 59.740700 0
M  V30 18 C 39.282063 26.802126 56.870497 0 CFG=1
M  V30 19 C 38.586586 28.096134 54.811398 0
M  V30 20 C 37.941422 33.935372 59.847132 0 CFG=2
M  V30 21 C 37.539807 25.885820 55.400389 0
M  V30 22 C 37.830453 26.816337 54.479462 0
M  V30 23 C 35.818940 32.013764 60.342170 0
M  V30 24 C 37.481794 30.441001 59.340363 0
M  V30 25 C 37.067508 24.021431 56.089515 0
M  V30 26 H 39.797457 27.933413 60.092309 0
M  V30 27 H 38.267412 27.656819 59.300468 0
M  V30 28 H 38.205133 32.638018 61.562140 0
M  V30 29 H 39.277051 32.292477 60.241717 0
M  V30 30 H 39.867408 25.860797 58.736549 0
M  V30 31 H 41.005674 27.040406 58.144450 0
M  V30 32 H 40.518713 29.504889 58.431192 0
M  V30 33 H 37.342675 24.412273 58.207241 0
M  V30 34 H 36.386576 35.316090 58.546574 0
M  V30 35 H 34.571575 33.768062 60.028122 0
M  V30 36 H 35.572918 33.340929 58.653487 0
M  V30 37 H 39.987310 26.278280 56.221119 0
M  V30 38 H 37.934394 28.933937 54.559047 0
M  V30 39 H 39.467353 28.168160 54.174838 0
M  V30 40 H 38.076798 33.891967 58.764783 0
M  V30 41 H 37.539219 26.669951 53.448555 0
M  V30 42 H 35.682390 32.037523 61.423879 0
M  V30 43 H 35.087883 31.307256 59.948048 0
M  V30 44 H 36.657029 23.014785 56.200799 0
M  V30 45 H 37.169553 26.592568 57.354612 0
M  V30 46 H 38.842658 24.069520 57.298812 0
M  V30 END ATOM
M  V30 BEGIN BOND
M  V30 1 1 3 1
M  V30 2 1 5 4
M  V30 3 1 6 2
M  V30 4 1 7 2
M  V30 5 1 7 4
M  V30 6 2 10 4
M  V30 7 1 14 7
M  V30 8 1 15 13
M  V30 9 1 16 11
M  V30 10 1 17 11
M  V30 11 1 18 5
M  V30 12 1 18 6
M  V30 13 1 18 13
M  V30 14 1 19 5
M  V30 15 1 20 3
M  V30 16 1 20 8
M  V30 17 1 20 11
M  V30 18 1 21 12
M  V30 19 1 21 13
M  V30 20 1 22 19
M  V30 21 2 22 21
M  V30 22 1 23 1
M  V30 23 1 23 17
M  V30 24 1 24 1
M  V30 25 2 24 9
M  V30 26 1 24 14
M  V30 27 2 25 12
M  V30 28 1 25 15
M  V30 29 1 26 2
M  V30 30 1 27 2
M  V30 31 1 28 3
M  V30 32 1 29 3
M  V30 33 1 30 6
M  V30 34 1 31 6
M  V30 35 1 7 32 CFG=3
M  V30 36 1 33 15
M  V30 37 1 34 16
M  V30 38 1 35 17
M  V30 39 1 36 17
M  V30 40 1 18 37 CFG=3
M  V30 41 1 38 19
M  V30 42 1 39 19
M  V30 43 1 20 40 CFG=3
M  V30 44 1 41 22
M  V30 45 1 42 23
M  V30 46 1 43 23
M  V30 47 1 44 25
M  V30 48 1 13 45 CFG=1
M  V30 49 1 46 15
M  V30 END BOND
M  V30 END CTAB
M  END
>  <i_epik_Tot_Q>  (1) 
0

>  <i_epik_Tot_abs_Q>  (1) 
0

>  <i_i_glide_confnum>  (1) 
16

>  <i_i_glide_lignum>  (1) 
54

>  <i_i_glide_posenum>  (1) 
239

>  <i_i_glide_rotatable_bonds>  (1) 
4

>  <i_lp_mmshare_version>  (1) 
72125

>  <i_m_source_file_index>  (1) 
20

>  <i_f3d_flags>  (1) 
0

>  <num_sample>  (1) 
50

>  <b_lp_Chiralities_Consistent>  (1) 
1

>  <r_epik_Charging_Adjusted_Penalty>  (1) 
0

>  <r_epik_Ionization_Penalty>  (1) 
0.00023690808741792311

>  <r_epik_Ionization_Penalty_Charging>  (1) 
0

>  <r_epik_Ionization_Penalty_Neutral>  (1) 
0.00023690808741792311

>  <r_epik_State_Penalty>  (1) 
-0

>  <r_glide_ring_energy>  (1) 
0

>  <r_i_docking_score>  (1) 
-7.1575966885400959

>  <r_i_glide_ecoul>  (1) 
-1.459831978541235

>  <r_i_glide_eff_state_penalty>  (1) 
-0

>  <r_i_glide_einternal>  (1) 
4.2665793731850226

>  <r_i_glide_emodel>  (1) 
-63.233715380535891

>  <r_i_glide_emodel_strain>  (1) 
0

>  <r_i_glide_energy>  (1) 
-46.833121741013841

>  <r_i_glide_erotb>  (1) 
0.46110279215177946

>  <r_i_glide_esite>  (1) 
-0.090577886617461412

>  <r_i_glide_evdw>  (1) 
-45.373289762472609

>  <r_i_glide_gscore>  (1) 
-7.1575966885400959

>  <r_i_glide_gscore_strain>  (1) 
0

>  <r_i_glide_hbond>  (1) 
-0.18551470330143244

>  <r_i_glide_ligand_efficiency>  (1) 
-0.28630386754160386

>  <r_i_glide_ligand_efficiency_ln>  (1) 
-1.6965649110480046

>  <r_i_glide_ligand_efficiency_sa>  (1) 
-0.83715758721059652

>  <r_i_glide_lipo>  (1) 
-2.3556455289034699

>  <r_i_glide_metal>  (1) 
-0

>  <r_i_glide_rewards>  (1) 
-2.4993220769646953

>  <r_lp_Energy>  (1) 
38.905223999999997

>  <r_lp_tautomer_probability>  (1) 
1

>  <s_epik_Chemistry_Notes>  (1) 
This compound has an ester and may undergo hydrolysis at high or low pH. This compound has an imine and may undergo hydrolysis. This compound has a N-S or N-O group and may undergo hydrolysis at high or low pH.

>  <s_epik_cmdline>  (1) 
J2VwaWtfcHl0aG9uJywgJy1waHQnLCAnMS4wJywgJy1waCcsICc3LjQnLCAnLXRuJywgJzgnLCAnLW1hJywgJzUwMCcsICctaW1hZScsICc8aW5maWxlLm1hZT4nLCAnLW9tYWUnLCAnPG91dGZpbGUubWFlPic=

>  <s_epik_input>  (1) 
W0NIMl0xW0NIMl1OKFtPSF0pW0NAQEhdKEYpW0NIMl1OMUMoPU8pT1tDQEhdKEMyPU8pW0NIMl1bQ0gyXVtDQEBIXShOMjMpQz00QyhbQ0gyXVtDSDJdMyk9TltDSDJdW0NIXTQ=

>  <s_glide_docking_method>  (1) 
confgen

>  <s_i_glide_gridfile>  (1) 
gpcr_5ht2c_6bqh_protein_autoprepared_prepared

>  <s_lp_Force_Field>  (1) 
S-OPLS

>  <s_lp_Variant>  (1) 
DiffSBDD_19_num_sample_50-3

>  <s_m_source_file>  (1) 
generated__ligand_DiffSBDD_2026-05-06_prepared.sdf

>  <GenAI_Model>  (1) 
DiffSBDD

>  <Protein>  (1) 
GPCR_5HT2C

$$$$
DiffSBDD_19_num_sample_50
     RDKit          3D

  0  0  0  0  0  0  0  0  0  0999 V3000
M  V30 BEGIN CTAB
M  V30 COUNTS 46 49 0 0 1
M  V30 BEGIN ATOM
M  V30 1 N 38.049301 34.306709 61.103806 0
M  V30 2 C 37.536263 30.977307 58.711966 0
M  V30 3 C 37.222652 35.481356 61.395701 0
M  V30 4 C 39.277192 29.946699 60.251259 0
M  V30 5 N 39.392097 28.925755 59.357416 0
M  V30 6 C 37.157129 29.592785 58.240555 0
M  V30 7 C 38.038758 30.853168 60.150379 0 CFG=1
M  V30 8 F 37.199326 37.585858 62.393720 0
M  V30 9 O 36.274034 32.763289 61.156223 0
M  V30 10 O 40.123571 30.160052 61.123357 0
M  V30 11 N 39.262045 36.753646 61.863994 0
M  V30 12 N 40.375315 26.762522 55.866348 0
M  V30 13 C 39.078610 28.553190 56.920497 0 CFG=1
M  V30 14 O 38.396740 32.140708 60.627397 0
M  V30 15 C 38.326274 28.008645 55.698305 0
M  V30 16 O 39.867384 37.621432 62.841218 0
M  V30 17 C 40.080634 35.551152 61.853879 0
M  V30 18 C 38.368319 28.643309 58.292957 0 CFG=1
M  V30 19 C 40.561673 28.021417 59.419658 0
M  V30 20 C 37.917824 36.463564 62.345655 0 CFG=2
M  V30 21 C 40.154385 27.513510 57.000318 0
M  V30 22 C 40.824771 27.269476 58.127857 0
M  V30 23 C 39.495739 34.522847 60.874944 0
M  V30 24 C 37.463201 33.038947 60.984340 0
M  V30 25 C 39.369228 27.057777 55.170279 0
M  V30 26 H 36.667411 31.632037 58.653502 0
M  V30 27 H 38.298728 31.412092 58.063633 0
M  V30 28 H 36.996951 35.974683 60.449197 0
M  V30 29 H 36.265762 35.198208 61.833342 0
M  V30 30 H 36.725457 29.638618 57.240391 0
M  V30 31 H 36.359484 29.220626 58.883766 0
M  V30 32 H 37.267968 30.421430 60.791509 0
M  V30 33 H 38.048304 28.771240 54.970410 0
M  V30 34 H 39.854659 37.101145 63.630641 0
M  V30 35 H 41.100260 35.805312 61.559479 0
M  V30 36 H 40.132272 35.119486 62.855172 0
M  V30 37 H 37.971405 27.649963 58.508222 0
M  V30 38 H 41.472914 28.559398 59.683022 0
M  V30 39 H 40.363293 27.300450 60.211899 0
M  V30 40 H 37.949376 36.059418 63.357597 0
M  V30 41 H 41.578045 26.495011 58.154629 0
M  V30 42 H 39.631763 34.867299 59.853502 0
M  V30 43 H 40.114870 33.631395 60.976540 0
M  V30 44 H 39.196656 26.652421 54.169686 0
M  V30 45 H 39.547124 29.507855 56.673618 0
M  V30 46 H 37.467421 27.418585 55.993442 0
M  V30 END ATOM
M  V30 BEGIN BOND
M  V30 1 1 3 1
M  V30 2 1 5 4
M  V30 3 1 6 2
M  V30 4 1 7 2
M  V30 5 1 7 4
M  V30 6 2 10 4
M  V30 7 1 14 7
M  V30 8 1 15 13
M  V30 9 1 16 11
M  V30 10 1 17 11
M  V30 11 1 18 5
M  V30 12 1 18 6
M  V30 13 1 18 13
M  V30 14 1 19 5
M  V30 15 1 20 3
M  V30 16 1 20 8
M  V30 17 1 20 11
M  V30 18 1 21 12
M  V30 19 1 21 13
M  V30 20 1 22 19
M  V30 21 2 22 21
M  V30 22 1 23 1
M  V30 23 1 23 17
M  V30 24 1 24 1
M  V30 25 2 24 9
M  V30 26 1 24 14
M  V30 27 2 25 12
M  V30 28 1 25 15
M  V30 29 1 26 2
M  V30 30 1 27 2
M  V30 31 1 28 3
M  V30 32 1 29 3
M  V30 33 1 30 6
M  V30 34 1 31 6
M  V30 35 1 7 32 CFG=1
M  V30 36 1 33 15
M  V30 37 1 34 16
M  V30 38 1 35 17
M  V30 39 1 36 17
M  V30 40 1 18 37 CFG=1
M  V30 41 1 38 19
M  V30 42 1 39 19
M  V30 43 1 20 40 CFG=1
M  V30 44 1 41 22
M  V30 45 1 42 23
M  V30 46 1 43 23
M  V30 47 1 44 25
M  V30 48 1 13 45 CFG=3
M  V30 49 1 46 15
M  V30 END BOND
M  V30 END CTAB
M  END
>  <i_epik_Tot_Q>  (1) 
0

>  <i_epik_Tot_abs_Q>  (1) 
0

>  <i_i_glide_confnum>  (1) 
9

>  <i_i_glide_lignum>  (1) 
54

>  <i_i_glide_posenum>  (1) 
361

>  <i_i_glide_rotatable_bonds>  (1) 
4

>  <i_lp_mmshare_version>  (1) 
72125

>  <i_m_source_file_index>  (1) 
20

>  <i_f3d_flags>  (1) 
0

>  <num_sample>  (1) 
50

>  <b_lp_Chiralities_Consistent>  (1) 
1

>  <r_epik_Charging_Adjusted_Penalty>  (1) 
0

>  <r_epik_Ionization_Penalty>  (1) 
0.00023690808741792311

>  <r_epik_Ionization_Penalty_Charging>  (1) 
0

>  <r_epik_Ionization_Penalty_Neutral>  (1) 
0.00023690808741792311

>  <r_epik_State_Penalty>  (1) 
-0

>  <r_glide_ring_energy>  (1) 
0

>  <r_i_docking_score>  (1) 
-7.1566818892157356

>  <r_i_glide_ecoul>  (1) 
-2.5870087234997388

>  <r_i_glide_eff_state_penalty>  (1) 
-0

>  <r_i_glide_einternal>  (1) 
1.992972251655438

>  <r_i_glide_emodel>  (1) 
-59.52822995524474

>  <r_i_glide_emodel_strain>  (1) 
0

>  <r_i_glide_energy>  (1) 
-41.993201536642907

>  <r_i_glide_erotb>  (1) 
0.46110279215177946

>  <r_i_glide_esite>  (1) 
0

>  <r_i_glide_evdw>  (1) 
-39.406192813143171

>  <r_i_glide_gscore>  (1) 
-7.1566818892157356

>  <r_i_glide_gscore_strain>  (1) 
0

>  <r_i_glide_hbond>  (1) 
0

>  <r_i_glide_ligand_efficiency>  (1) 
-0.28626727556862941

>  <r_i_glide_ligand_efficiency_ln>  (1) 
-1.6963480761938075

>  <r_i_glide_ligand_efficiency_sa>  (1) 
-0.83705059163254314

>  <r_i_glide_lipo>  (1) 
-1.8926297986132465

>  <r_i_glide_metal>  (1) 
-0

>  <r_i_glide_rewards>  (1) 
-3.366793933572148

>  <r_lp_Energy>  (1) 
38.905223999999997

>  <r_lp_tautomer_probability>  (1) 
1

>  <s_epik_Chemistry_Notes>  (1) 
This compound has an ester and may undergo hydrolysis at high or low pH. This compound has an imine and may undergo hydrolysis. This compound has a N-S or N-O group and may undergo hydrolysis at high or low pH.

>  <s_epik_cmdline>  (1) 
J2VwaWtfcHl0aG9uJywgJy1waHQnLCAnMS4wJywgJy1waCcsICc3LjQnLCAnLXRuJywgJzgnLCAnLW1hJywgJzUwMCcsICctaW1hZScsICc8aW5maWxlLm1hZT4nLCAnLW9tYWUnLCAnPG91dGZpbGUubWFlPic=

>  <s_epik_input>  (1) 
W0NIMl0xW0NIMl1OKFtPSF0pW0NAQEhdKEYpW0NIMl1OMUMoPU8pT1tDQEhdKEMyPU8pW0NIMl1bQ0gyXVtDQEBIXShOMjMpQz00QyhbQ0gyXVtDSDJdMyk9TltDSDJdW0NIXTQ=

>  <s_glide_docking_method>  (1) 
confgen

>  <s_i_glide_gridfile>  (1) 
gpcr_5ht2c_6bqh_protein_autoprepared_prepared

>  <s_lp_Force_Field>  (1) 
S-OPLS

>  <s_lp_Variant>  (1) 
DiffSBDD_19_num_sample_50-3

>  <s_m_source_file>  (1) 
generated__ligand_DiffSBDD_2026-05-06_prepared.sdf

>  <GenAI_Model>  (1) 
DiffSBDD

>  <Protein>  (1) 
GPCR_5HT2C

$$$$
DiffSBDD_32_num_sample_50
     RDKit          3D

  0  0  0  0  0  0  0  0  0  0999 V3000
M  V30 BEGIN CTAB
M  V30 COUNTS 52 55 0 0 1
M  V30 BEGIN ATOM
M  V30 1 C 40.281142 31.957343 62.047368 0
M  V30 2 O 37.899350 26.880417 53.550854 0
M  V30 3 C 38.552844 30.274152 56.991257 0
M  V30 4 C 38.771877 29.314267 54.919391 0
M  V30 5 C 39.871368 29.784639 51.285256 0
M  V30 6 C 41.517662 35.160419 64.456070 0
M  V30 7 N 41.044954 32.780929 64.202401 0
M  V30 8 C 38.790524 27.622647 51.463009 0
M  V30 9 C 38.593161 30.625103 55.628737 0
M  V30 10 C 41.067461 33.993822 63.597541 0
M  V30 11 C 38.980267 29.055815 53.459025 0
M  V30 12 C 38.754627 27.672846 59.453241 0
M  V30 13 C 39.635336 30.022985 52.653794 0
M  V30 14 N 38.452879 31.079504 57.978993 0 CHG=1
M  V30 15 N 40.294298 33.173415 61.453025 0
M  V30 16 N 38.650446 29.065106 57.297750 0
M  V30 17 C 40.652409 31.762320 63.406256 0
M  V30 18 C 39.446587 28.590425 50.695685 0
M  V30 19 C 38.510471 31.942039 54.881603 0
M  V30 20 C 38.555530 27.838407 52.835349 0
M  V30 21 C 40.696143 34.194429 62.245691 0
M  V30 22 F 40.746172 35.443450 61.722953 0
M  V30 23 C 38.479971 30.906922 60.509676 0
M  V30 24 C 40.587108 30.820579 50.450368 0
M  V30 25 C 38.639297 28.940822 58.679180 0
M  V30 26 C 38.512776 30.307555 59.139269 0
M  V30 27 C 39.881630 30.786063 61.151534 0
M  V30 28 S 38.786918 27.900191 56.123015 0
M  V30 29 N 40.635437 30.491195 63.976618 0
M  V30 30 H 37.531764 26.205067 52.998866 0
M  V30 31 H 40.679771 35.540067 65.041480 0
M  V30 32 H 42.306941 34.851947 65.142367 0
M  V30 33 H 41.905467 35.979880 63.849093 0
M  V30 34 H 38.461861 26.707220 50.997072 0
M  V30 35 H 38.285421 27.779023 60.429288 0
M  V30 36 H 38.268594 26.853405 58.923328 0
M  V30 37 H 39.804577 27.417975 59.596697 0
M  V30 38 H 39.980474 30.943646 53.093095 0
M  V30 39 H 39.622268 28.418075 49.646588 0
M  V30 40 H 37.898284 32.642172 55.451373 0
M  V30 41 H 39.498425 32.383266 54.766459 0
M  V30 42 H 38.037108 31.832166 53.906206 0
M  V30 43 H 38.179116 31.950503 60.412198 0
M  V30 44 H 37.721928 30.420535 61.123457 0
M  V30 45 H 39.903893 31.629061 50.196240 0
M  V30 46 H 41.433592 31.221388 51.004413 0
M  V30 47 H 40.970998 30.393247 49.523180 0
M  V30 48 H 39.971743 29.815878 61.638101 0
M  V30 49 H 40.641535 30.771565 60.371149 0
M  V30 50 H 40.295855 29.686392 63.470070 0
M  V30 51 H 40.853420 30.354380 64.953884 0
M  V30 52 H 38.363158 32.086806 57.930834 0
M  V30 END ATOM
M  V30 BEGIN BOND
M  V30 1 1 9 3
M  V30 2 2 9 4
M  V30 3 1 10 6
M  V30 4 2 10 7
M  V30 5 1 11 4
M  V30 6 2 13 5
M  V30 7 1 13 11
M  V30 8 2 14 3
M  V30 9 1 15 1
M  V30 10 1 16 3
M  V30 11 2 17 1
M  V30 12 1 17 7
M  V30 13 1 18 5
M  V30 14 2 18 8
M  V30 15 1 19 9
M  V30 16 1 20 2
M  V30 17 1 20 8
M  V30 18 2 20 11
M  V30 19 1 21 10
M  V30 20 2 21 15
M  V30 21 1 22 21
M  V30 22 1 24 5
M  V30 23 1 25 12
M  V30 24 1 25 16
M  V30 25 1 26 14
M  V30 26 1 26 23
M  V30 27 2 26 25
M  V30 28 1 27 1
M  V30 29 1 27 23
M  V30 30 1 28 4
M  V30 31 1 28 16
M  V30 32 1 29 17
M  V30 33 1 30 2
M  V30 34 1 31 6
M  V30 35 1 32 6
M  V30 36 1 33 6
M  V30 37 1 34 8
M  V30 38 1 35 12
M  V30 39 1 36 12
M  V30 40 1 37 12
M  V30 41 1 38 13
M  V30 42 1 39 18
M  V30 43 1 40 19
M  V30 44 1 41 19
M  V30 45 1 42 19
M  V30 46 1 43 23
M  V30 47 1 44 23
M  V30 48 1 45 24
M  V30 49 1 46 24
M  V30 50 1 47 24
M  V30 51 1 48 27
M  V30 52 1 49 27
M  V30 53 1 50 29
M  V30 54 1 51 29
M  V30 55 1 52 14
M  V30 END BOND
M  V30 END CTAB
M  END
>  <i_epik_Tot_Q>  (1) 
1

>  <i_epik_Tot_abs_Q>  (1) 
1

>  <i_i_glide_confnum>  (1) 
57

>  <i_i_glide_lignum>  (1) 
85

>  <i_i_glide_posenum>  (1) 
133

>  <i_i_glide_rotatable_bonds>  (1) 
5

>  <i_lp_mmshare_version>  (1) 
72125

>  <i_m_source_file_index>  (1) 
33

>  <i_f3d_flags>  (1) 
0

>  <num_sample>  (1) 
50

>  <b_lp_Chiralities_Consistent>  (1) 
1

>  <r_epik_Charging_Adjusted_Penalty>  (1) 
0.70840898770903482

>  <r_epik_Ionization_Penalty>  (1) 
0.71036238548422381

>  <r_epik_Ionization_Penalty_Charging>  (1) 
0

>  <r_epik_Ionization_Penalty_Neutral>  (1) 
0.71036238548422381

>  <r_epik_State_Penalty>  (1) 
0.70840898770903482

>  <r_glide_ring_energy>  (1) 
0

>  <r_i_docking_score>  (1) 
-7.1546073653724234

>  <r_i_glide_ecoul>  (1) 
-3.1013090375040839

>  <r_i_glide_eff_state_penalty>  (1) 
0.70840898770903482

>  <r_i_glide_einternal>  (1) 
0.7536884315049317

>  <r_i_glide_emodel>  (1) 
-73.941729748815263

>  <r_i_glide_emodel_strain>  (1) 
1.8764110421895595

>  <r_i_glide_energy>  (1) 
-50.351967610573709

>  <r_i_glide_erotb>  (1) 
0.46353657378789748

>  <r_i_glide_esite>  (1) 
-0.11319310277075093

>  <r_i_glide_evdw>  (1) 
-47.250658573069622

>  <r_i_glide_gscore>  (1) 
-7.8630163530814583

>  <r_i_glide_gscore_strain>  (1) 
0

>  <r_i_glide_hbond>  (1) 
0

>  <r_i_glide_ligand_efficiency>  (1) 
-0.24671059880594565

>  <r_i_glide_ligand_efficiency_ln>  (1) 
-1.6382236614812926

>  <r_i_glide_ligand_efficiency_sa>  (1) 
-0.75797312378653758

>  <r_i_glide_lipo>  (1) 
-3.8885841460293902

>  <r_i_glide_metal>  (1) 
-0

>  <r_i_glide_rewards>  (1) 
-1.4970463937901219

>  <r_lp_Energy>  (1) 
27.758326

>  <r_lp_tautomer_probability>  (1) 
0.99999990127737282

>  <s_epik_cmdline>  (1) 
J2VwaWtfcHl0aG9uJywgJy1waHQnLCAnMS4wJywgJy1waCcsICc3LjQnLCAnLXRuJywgJzgnLCAnLW1hJywgJzUwMCcsICctaW1hZScsICc8aW5maWxlLm1hZT4nLCAnLW9tYWUnLCAnPG91dGZpbGUubWFlPic=

>  <s_epik_input>  (1) 
W05IMl1jMW5jKFtDSDNdKWMoRiluYzFbQ0gyXVtDSDJdYyhuMiljKFtDSDNdKW4oYzIzKXNjKGMzW0NIM10pLWMoW2NIXWM0W0NIM10pYyhbT0hdKVtjSF1bY0hdNA==

>  <s_glide_docking_method>  (1) 
confgen

>  <s_i_glide_gridfile>  (1) 
gpcr_5ht2c_6bqh_protein_autoprepared_prepared

>  <s_lp_Force_Field>  (1) 
S-OPLS

>  <s_lp_Variant>  (1) 
DiffSBDD_32_num_sample_50-2

>  <s_m_source_file>  (1) 
generated__ligand_DiffSBDD_2026-05-06_prepared.sdf

>  <GenAI_Model>  (1) 
DiffSBDD

>  <Protein>  (1) 
GPCR_5HT2C

$$$$
DiffSBDD_18_num_sample_50
     RDKit          3D

  0  0  0  0  0  0  0  0  0  0999 V3000
M  V30 BEGIN CTAB
M  V30 COUNTS 74 76 0 0 1
M  V30 BEGIN ATOM
M  V30 1 C 39.418112 29.397355 55.385315 0
M  V30 2 C 39.037964 30.877236 55.137998 0 CFG=1
M  V30 3 C 38.491334 24.844009 56.946701 0
M  V30 4 F 35.466217 32.723131 61.453451 0
M  V30 5 C 40.343537 32.970724 62.262542 0
M  V30 6 C 38.850212 29.511452 60.185352 0 CFG=2
M  V30 7 C 37.932737 24.572221 55.547975 0
M  V30 8 C 39.052730 33.538470 61.695459 0
M  V30 9 F 40.234638 35.448508 60.824985 0
M  V30 10 C 38.291044 28.368922 55.138347 0
M  V30 11 C 37.880116 35.300430 60.457561 0
M  V30 12 C 39.340995 28.061178 60.275884 0
M  V30 13 C 40.179942 31.666333 63.046738 0 CFG=2
M  V30 14 N 41.438762 30.939488 63.200665 0
M  V30 15 C 38.738613 29.970025 58.726198 0
M  V30 16 C 37.993165 31.301573 58.541843 0
M  V30 17 O 40.665936 28.021449 59.779590 0
M  V30 18 C 36.667388 34.607044 60.611790 0
M  V30 19 O 41.421968 33.535524 62.086182 0
M  V30 20 C 37.818187 32.852699 61.853500 0
M  V30 21 S 39.346025 26.442661 56.894228 0
M  V30 22 C 37.867373 33.492712 57.275471 0
M  V30 23 C 37.565212 25.931255 54.955139 0
M  V30 24 C 39.073012 34.772490 60.990390 0
M  V30 25 C 38.667419 31.151253 53.680147 0
M  V30 26 N 37.944407 31.349396 56.032488 0 CHG=1
M  V30 27 F 39.677194 26.649670 54.346640 0
M  V30 28 C 39.672073 30.368456 62.378216 0 CFG=2
M  V30 29 C 40.803564 29.639163 63.102192 0
M  V30 30 C 39.763205 30.790995 52.663196 0
M  V30 31 C 38.385156 32.051979 57.258795 0 CFG=2
M  V30 32 C 38.725047 26.890987 55.248155 0 CFG=1
M  V30 33 C 36.635806 33.387352 61.307593 0
M  V30 34 N 39.803424 30.370584 60.905406 0 CHG=1
M  V30 35 H 40.267096 29.166114 54.749858 0
M  V30 36 H 39.819665 29.267840 56.382064 0
M  V30 37 H 39.930941 31.478305 55.317060 0
M  V30 38 H 39.159746 24.051876 57.285441 0
M  V30 39 H 37.675517 24.918918 57.666201 0
M  V30 40 H 37.867383 29.621430 60.638781 0
M  V30 41 H 38.694377 24.108588 54.924642 0
M  V30 42 H 37.080735 23.892202 55.572554 0
M  V30 43 H 37.470212 28.560648 55.828758 0
M  V30 44 H 37.880379 28.509122 54.138980 0
M  V30 45 H 37.898790 36.239115 59.922405 0
M  V30 46 H 38.698774 27.394147 59.699912 0
M  V30 47 H 39.333567 27.713451 61.309524 0
M  V30 48 H 39.751460 31.821712 64.036873 0
M  V30 49 H 41.882464 31.105210 64.095908 0
M  V30 50 H 39.750385 30.046628 58.332332 0
M  V30 51 H 38.230957 29.203984 58.139558 0
M  V30 52 H 36.914625 31.144963 58.603095 0
M  V30 53 H 38.238860 31.957826 59.371248 0
M  V30 54 H 40.967044 27.123801 59.765535 0
M  V30 55 H 35.758055 35.012962 60.194919 0
M  V30 56 H 37.769230 31.926930 62.389972 0
M  V30 57 H 38.341290 34.021436 58.095152 0
M  V30 58 H 38.112461 34.021180 56.353564 0
M  V30 59 H 36.792287 33.568119 57.440745 0
M  V30 60 H 36.667399 26.289140 55.453523 0
M  V30 61 H 37.344350 25.867734 53.888660 0
M  V30 62 H 37.760109 30.601913 53.453501 0
M  V30 63 H 38.422447 32.208302 53.564886 0
M  V30 64 H 37.313597 30.599092 56.277106 0
M  V30 65 H 38.693907 30.044553 62.735520 0
M  V30 66 H 40.525914 29.239208 64.079561 0
M  V30 67 H 41.354496 28.914028 62.501144 0
M  V30 68 H 39.521050 31.170652 51.670633 0
M  V30 69 H 40.718601 31.221446 52.951681 0
M  V30 70 H 39.892366 29.712347 52.571328 0
M  V30 71 H 39.467448 32.140074 57.261896 0
M  V30 72 H 40.730940 30.061600 60.652053 0
M  V30 73 H 37.375634 32.021287 55.530186 0
M  V30 74 H 39.669827 31.314839 60.579496 0
M  V30 END ATOM
M  V30 BEGIN BOND
M  V30 1 1 2 1
M  V30 2 1 7 3
M  V30 3 1 8 5
M  V30 4 1 10 1
M  V30 5 1 12 6
M  V30 6 1 13 5
M  V30 7 1 14 13
M  V30 8 1 15 6
M  V30 9 1 16 15
M  V30 10 1 17 12
M  V30 11 2 18 11
M  V30 12 2 19 5
M  V30 13 1 20 8
M  V30 14 1 21 3
M  V30 15 1 23 7
M  V30 16 2 24 8
M  V30 17 1 24 9
M  V30 18 1 24 11
M  V30 19 1 25 2
M  V30 20 1 26 2
M  V30 21 1 28 13
M  V30 22 1 29 14
M  V30 23 1 29 28
M  V30 24 1 30 25
M  V30 25 1 31 16
M  V30 26 1 31 22
M  V30 27 1 31 26
M  V30 28 1 32 10
M  V30 29 1 32 21
M  V30 30 1 32 23
M  V30 31 1 32 27 CFG=3
M  V30 32 1 33 4
M  V30 33 1 33 18
M  V30 34 2 33 20
M  V30 35 1 34 6
M  V30 36 1 34 28
M  V30 37 1 35 1
M  V30 38 1 36 1
M  V30 39 1 2 37 CFG=1
M  V30 40 1 38 3
M  V30 41 1 39 3
M  V30 42 1 6 40 CFG=1
M  V30 43 1 41 7
M  V30 44 1 42 7
M  V30 45 1 43 10
M  V30 46 1 44 10
M  V30 47 1 45 11
M  V30 48 1 46 12
M  V30 49 1 47 12
M  V30 50 1 13 48 CFG=1
M  V30 51 1 49 14
M  V30 52 1 50 15
M  V30 53 1 51 15
M  V30 54 1 52 16
M  V30 55 1 53 16
M  V30 56 1 54 17
M  V30 57 1 55 18
M  V30 58 1 56 20
M  V30 59 1 57 22
M  V30 60 1 58 22
M  V30 61 1 59 22
M  V30 62 1 60 23
M  V30 63 1 61 23
M  V30 64 1 62 25
M  V30 65 1 63 25
M  V30 66 1 64 26
M  V30 67 1 28 65 CFG=3
M  V30 68 1 66 29
M  V30 69 1 67 29
M  V30 70 1 68 30
M  V30 71 1 69 30
M  V30 72 1 70 30
M  V30 73 1 31 71 CFG=3
M  V30 74 1 72 34
M  V30 75 1 73 26
M  V30 76 1 74 34
M  V30 END BOND
M  V30 END CTAB
M  END
>  <i_epik_Tot_Q>  (1) 
2

>  <i_epik_Tot_abs_Q>  (1) 
2

>  <i_i_glide_confnum>  (1) 
4820

>  <i_i_glide_lignum>  (1) 
50

>  <i_i_glide_posenum>  (1) 
62

>  <i_i_glide_rotatable_bonds>  (1) 
15

>  <i_lp_mmshare_version>  (1) 
72125

>  <i_m_source_file_index>  (1) 
19

>  <i_f3d_flags>  (1) 
0

>  <num_sample>  (1) 
50

>  <b_lp_Chiralities_Consistent>  (1) 
1

>  <r_epik_Charging_Adjusted_Penalty>  (1) 
0.1621260604540144

>  <r_epik_Ionization_Penalty>  (1) 
0.081641699249211233

>  <r_epik_Ionization_Penalty_Charging>  (1) 
0.081638306134831307

>  <r_epik_Ionization_Penalty_Neutral>  (1) 
3.3931143799284323e-06

>  <r_epik_State_Penalty>  (1) 
0.080487754319183077

>  <r_glide_ring_energy>  (1) 
0

>  <r_i_docking_score>  (1) 
-7.1524377438929134

>  <r_i_glide_ecoul>  (1) 
-2.6679832057551076

>  <r_i_glide_eff_state_penalty>  (1) 
0.080487754319183077

>  <r_i_glide_einternal>  (1) 
12.464591014929606

>  <r_i_glide_emodel>  (1) 
-68.298062881968846

>  <r_i_glide_emodel_strain>  (1) 
0.28195939401587111

>  <r_i_glide_energy>  (1) 
-46.608169037254093

>  <r_i_glide_erotb>  (1) 
0.96692483815447339

>  <r_i_glide_esite>  (1) 
-0.10000000000000001

>  <r_i_glide_evdw>  (1) 
-43.940185831498987

>  <r_i_glide_gscore>  (1) 
-7.2329254982120963

>  <r_i_glide_gscore_strain>  (1) 
0

>  <r_i_glide_hbond>  (1) 
-0.00049583672080926453

>  <r_i_glide_ligand_efficiency>  (1) 
-0.21036581599685039

>  <r_i_glide_ligand_efficiency_ln>  (1) 
-1.5801741167092396

>  <r_i_glide_ligand_efficiency_sa>  (1) 
-0.68150358008876422

>  <r_i_glide_lipo>  (1) 
-3.843334855520375

>  <r_i_glide_metal>  (1) 
-0

>  <r_i_glide_rewards>  (1) 
-1.6588128716871702

>  <r_lp_Energy>  (1) 
44.339452000000001

>  <r_lp_tautomer_probability>  (1) 
0.99990000499974985

>  <s_epik_cmdline>  (1) 
J2VwaWtfcHl0aG9uJywgJy1waHQnLCAnMS4wJywgJy1waCcsICc3LjQnLCAnLXRuJywgJzgnLCAnLW1hJywgJzUwMCcsICctaW1hZScsICc8aW5maWxlLm1hZT4nLCAnLW9tYWUnLCAnPG91dGZpbGUubWFlPic=

>  <s_epik_input>  (1) 
W0NIMl0xW0NIMl1bQ0gyXVNbQ0BdMShGKVtDSDJdW0NIMl1bQ0BASF0oW0NIMl1bQ0gzXSlbTkhdW0NAQEhdKFtDSDNdKVtDSDJdW0NIMl1bQ0BASF0oW0NIMl1bT0hdKVtOSF1bQ0BIXTJbQ0gyXVtOSF1bQ0BIXTJDKD1PKWMzW2NIXWMoRilbY0hdW2NIXWMzRg==

>  <s_glide_docking_method>  (1) 
confgen

>  <s_i_glide_gridfile>  (1) 
gpcr_5ht2c_6bqh_protein_autoprepared_prepared

>  <s_lp_Force_Field>  (1) 
S-OPLS

>  <s_lp_Variant>  (1) 
DiffSBDD_18_num_sample_50-1

>  <s_m_source_file>  (1) 
generated__ligand_DiffSBDD_2026-05-06_prepared.sdf

>  <GenAI_Model>  (1) 
DiffSBDD

>  <Protein>  (1) 
GPCR_5HT2C

$$$$
DiffSBDD_29_num_sample_50
     RDKit          3D

  0  0  0  0  0  0  0  0  0  0999 V3000
M  V30 BEGIN CTAB
M  V30 COUNTS 79 81 0 0 1
M  V30 BEGIN ATOM
M  V30 1 C 41.916482 33.469948 67.125537 0
M  V30 2 C 39.482547 30.407912 60.088244 0
M  V30 3 C 42.408340 33.765607 65.705479 0
M  V30 4 C 39.337321 27.987713 55.462038 0
M  V30 5 C 36.361121 35.432500 62.125473 0
M  V30 6 C 38.078015 26.217117 56.843962 0
M  V30 7 C 39.392243 36.427651 62.461672 0 CFG=2
M  V30 8 N 37.380499 31.719396 59.463332 0 CHG=1
M  V30 9 C 37.463149 35.342250 61.120176 0 CFG=1
M  V30 10 N 37.867435 27.068508 57.773868 0
M  V30 11 C 38.854685 35.183117 61.786192 0
M  V30 12 C 37.974683 33.014595 59.869407 0 CFG=2
M  V30 13 O 36.267625 29.621447 58.253495 0
M  V30 14 O 40.803634 36.631380 62.346123 0
M  V30 15 C 35.537715 34.421388 62.177644 0
M  V30 16 C 37.791363 26.312557 54.351759 0
M  V30 17 C 36.267384 36.671514 63.020840 0
M  V30 18 C 40.878924 35.111046 64.221043 0
M  V30 19 C 36.906224 34.007284 60.383763 0 CFG=1
M  V30 20 C 38.457372 28.955251 56.255511 0
M  V30 21 C 42.694395 32.420945 67.925413 0
M  V30 22 F 42.150905 32.249826 69.131245 0
M  V30 23 O 40.159707 29.940607 62.352131 0
M  V30 24 O 39.862161 25.672272 55.285781 0
M  V30 25 C 36.157375 38.017995 62.273612 0
M  V30 26 C 38.334712 30.648158 59.056504 0 CFG=2
M  V30 27 F 42.678802 31.257040 67.275311 0
M  V30 28 C 35.764172 33.304868 61.248210 0
M  V30 29 C 39.069291 29.853423 61.462490 0
M  V30 30 C 37.588846 29.350439 58.690428 0 CFG=2
M  V30 31 C 41.841987 35.059238 65.151928 0
M  V30 32 F 43.958494 32.817506 68.074866 0
M  V30 33 C 38.376340 28.432960 57.707637 0 CFG=1
M  V30 34 O 40.937404 34.047472 67.602378 0
M  V30 35 C 40.313181 36.363369 63.659949 0 CFG=2
M  V30 36 C 38.775144 26.548205 55.513178 0 CFG=1
M  V30 37 C 38.772742 33.621420 58.708707 0
M  V30 38 H 40.046394 31.323074 60.253483 0
M  V30 39 H 40.218611 29.726985 59.660687 0
M  V30 40 H 42.111453 32.936275 65.062284 0
M  V30 41 H 43.495043 33.805900 65.687345 0
M  V30 42 H 40.339443 28.011643 55.894006 0
M  V30 43 H 39.451172 28.328404 54.432393 0
M  V30 44 H 37.755442 25.176647 56.942078 0
M  V30 45 H 38.854378 37.350450 62.280099 0
M  V30 46 H 36.746276 31.879907 58.687291 0
M  V30 47 H 37.449769 36.189480 60.433094 0
M  V30 48 H 38.801843 34.371031 62.508507 0
M  V30 49 H 39.617114 34.892343 61.072238 0
M  V30 50 H 38.632022 32.812052 60.710021 0
M  V30 51 H 36.250592 30.183643 57.482485 0
M  V30 52 H 34.713931 34.375626 62.862834 0
M  V30 53 H 36.948624 27.002219 54.401751 0
M  V30 54 H 38.270991 26.459456 53.383417 0
M  V30 55 H 37.391831 25.297077 54.358852 0
M  V30 56 H 35.387602 36.570273 63.653785 0
M  V30 57 H 37.108259 36.686995 63.712758 0
M  V30 58 H 40.477079 34.186757 63.838264 0
M  V30 59 H 36.375679 34.375312 59.501902 0
M  V30 60 H 37.467465 29.027839 55.805452 0
M  V30 61 H 38.893014 29.952177 56.210400 0
M  V30 62 H 39.916787 29.517006 63.165917 0
M  V30 63 H 40.484652 25.765369 55.992701 0
M  V30 64 H 36.123184 38.843682 62.984947 0
M  V30 65 H 36.991942 38.202402 61.600033 0
M  V30 66 H 35.251175 38.080763 61.675877 0
M  V30 67 H 38.792316 30.990166 58.133930 0
M  V30 68 H 34.871427 33.067636 60.668282 0
M  V30 69 H 36.106454 32.430590 61.801966 0
M  V30 70 H 38.789913 28.803838 61.383205 0
M  V30 71 H 38.229132 30.406084 61.883636 0
M  V30 72 H 37.448735 28.821431 59.625243 0
M  V30 73 H 42.254703 35.977985 65.546566 0
M  V30 74 H 39.397808 28.387402 58.085115 0
M  V30 75 H 40.267308 37.207761 64.342890 0
M  V30 76 H 39.394216 34.419863 59.087050 0
M  V30 77 H 39.467474 32.943019 58.227522 0
M  V30 78 H 38.116329 34.019896 57.933336 0
M  V30 79 H 36.823031 31.364117 60.225311 0
M  V30 END ATOM
M  V30 BEGIN BOND
M  V30 1 1 3 1
M  V30 2 1 9 5
M  V30 3 2 10 6
M  V30 4 1 11 7
M  V30 5 1 11 9
M  V30 6 1 12 8
M  V30 7 1 14 7
M  V30 8 2 15 5
M  V30 9 1 17 5
M  V30 10 1 19 9
M  V30 11 1 19 12
M  V30 12 1 20 4
M  V30 13 1 21 1
M  V30 14 1 22 21
M  V30 15 1 25 17
M  V30 16 1 26 2
M  V30 17 1 26 8
M  V30 18 1 27 21
M  V30 19 1 28 15
M  V30 20 1 28 19
M  V30 21 1 29 2
M  V30 22 1 29 23
M  V30 23 1 30 13
M  V30 24 1 30 26
M  V30 25 1 31 3
M  V30 26 2 31 18
M  V30 27 1 32 21
M  V30 28 1 33 10
M  V30 29 1 33 20
M  V30 30 1 33 30
M  V30 31 2 34 1
M  V30 32 1 35 7
M  V30 33 1 35 14
M  V30 34 1 35 18
M  V30 35 1 36 4
M  V30 36 1 36 6
M  V30 37 1 36 16
M  V30 38 1 36 24 CFG=3
M  V30 39 1 37 12
M  V30 40 1 38 2
M  V30 41 1 39 2
M  V30 42 1 40 3
M  V30 43 1 41 3
M  V30 44 1 42 4
M  V30 45 1 43 4
M  V30 46 1 44 6
M  V30 47 1 7 45 CFG=1
M  V30 48 1 46 8
M  V30 49 1 9 47 CFG=3
M  V30 50 1 48 11
M  V30 51 1 49 11
M  V30 52 1 12 50 CFG=1
M  V30 53 1 51 13
M  V30 54 1 52 15
M  V30 55 1 53 16
M  V30 56 1 54 16
M  V30 57 1 55 16
M  V30 58 1 56 17
M  V30 59 1 57 17
M  V30 60 1 58 18
M  V30 61 1 19 59 CFG=3
M  V30 62 1 60 20
M  V30 63 1 61 20
M  V30 64 1 62 23
M  V30 65 1 63 24
M  V30 66 1 64 25
M  V30 67 1 65 25
M  V30 68 1 66 25
M  V30 69 1 26 67 CFG=3
M  V30 70 1 68 28
M  V30 71 1 69 28
M  V30 72 1 70 29
M  V30 73 1 71 29
M  V30 74 1 30 72 CFG=1
M  V30 75 1 73 31
M  V30 76 1 33 74 CFG=1
M  V30 77 1 35 75 CFG=1
M  V30 78 1 76 37
M  V30 79 1 77 37
M  V30 80 1 78 37
M  V30 81 1 79 8
M  V30 END BOND
M  V30 END CTAB
M  END
>  <i_epik_Tot_Q>  (1) 
1

>  <i_epik_Tot_abs_Q>  (1) 
1

>  <i_i_glide_confnum>  (1) 
6570

>  <i_i_glide_lignum>  (1) 
73

>  <i_i_glide_posenum>  (1) 
248

>  <i_i_glide_rotatable_bonds>  (1) 
17

>  <i_lp_mmshare_version>  (1) 
72125

>  <i_m_source_file_index>  (1) 
30

>  <i_f3d_flags>  (1) 
0

>  <num_sample>  (1) 
50

>  <b_lp_Chiralities_Consistent>  (1) 
1

>  <r_epik_Charging_Adjusted_Penalty>  (1) 
0.073066720001252791

>  <r_epik_Ionization_Penalty>  (1) 
0.041882768558209021

>  <r_epik_Ionization_Penalty_Charging>  (1) 
0.011280877963412759

>  <r_epik_Ionization_Penalty_Neutral>  (1) 
0.030601890594796264

>  <r_epik_State_Penalty>  (1) 
0.061785842037840037

>  <r_glide_ring_energy>  (1) 
0

>  <r_i_docking_score>  (1) 
-7.1381187106103425

>  <r_i_glide_ecoul>  (1) 
-7.9568329831936859

>  <r_i_glide_eff_state_penalty>  (1) 
0.061785842037840037

>  <r_i_glide_einternal>  (1) 
12.254880953224266

>  <r_i_glide_emodel>  (1) 
-55.821191756386114

>  <r_i_glide_emodel_strain>  (1) 
2.4921783956641832

>  <r_i_glide_energy>  (1) 
-43.285763860368483

>  <r_i_glide_erotb>  (1) 
0.87550365807384167

>  <r_i_glide_esite>  (1) 
-0.067462856948257113

>  <r_i_glide_evdw>  (1) 
-35.328930877174798

>  <r_i_glide_gscore>  (1) 
-7.1999045526481824

>  <r_i_glide_gscore_strain>  (1) 
0

>  <r_i_glide_hbond>  (1) 
-0.20495703427845025

>  <r_i_glide_ligand_efficiency>  (1) 
-0.19292212731379305

>  <r_i_glide_ligand_efficiency_ln>  (1) 
-1.5480906070862677

>  <r_i_glide_ligand_efficiency_sa>  (1) 
-0.64285932830104386

>  <r_i_glide_lipo>  (1) 
-2.9467816101796855

>  <r_i_glide_metal>  (1) 
-0

>  <r_i_glide_rewards>  (1) 
-1.8962352179778372

>  <r_lp_Energy>  (1) 
29.690287999999999

>  <s_epik_Chemistry_Notes>  (1) 
This compound has an imine and may undergo hydrolysis.

>  <s_epik_cmdline>  (1) 
J2VwaWtfcHl0aG9uJywgJy1waHQnLCAnMS4wJywgJy1waCcsICc3LjQnLCAnLXRuJywgJzgnLCAnLW1hJywgJzUwMCcsICctaW1hZScsICc8aW5maWxlLm1hZT4nLCAnLW9tYWUnLCAnPG91dGZpbGUubWFlPic=

>  <s_epik_input>  (1) 
RkMoRikoRilDKD1PKVtDSDJdXFtDSF09W0NIXVxbQ0BIXTFPW0NASF0xW0NIMl1bQ0BIXTJbQ0BIXShbQ0gyXVtDSF09QzJbQ0gyXVtDSDNdKVtDQEhdKFtDSDNdKVtOSF1bQ0BASF0oW0NIMl1bQ0gyXVtPSF0pW0NAQEhdKFtPSF0pW0NAQEhdKE49W0NIXTMpW0NIMl1bQ0gyXVtDQEBdMyhbQ0gzXSlbT0hd

>  <s_glide_docking_method>  (1) 
confgen

>  <s_i_glide_gridfile>  (1) 
gpcr_5ht2c_6bqh_protein_autoprepared_prepared

>  <s_lp_Force_Field>  (1) 
S-OPLS

>  <s_lp_Variant>  (1) 
DiffSBDD_29_num_sample_50-1

>  <s_m_source_file>  (1) 
generated__ligand_DiffSBDD_2026-05-06_prepared.sdf

>  <GenAI_Model>  (1) 
DiffSBDD

>  <Protein>  (1) 
GPCR_5HT2C

$$$$
DiffSBDD_19_num_sample_50
     RDKit          3D

  0  0  0  0  0  0  0  0  0  0999 V3000
M  V30 BEGIN CTAB
M  V30 COUNTS 46 49 0 0 1
M  V30 BEGIN ATOM
M  V30 1 N 38.768451 34.671123 61.525554 0
M  V30 2 C 38.609864 33.068174 57.672987 0
M  V30 3 C 38.714422 36.021774 62.101825 0
M  V30 4 C 37.799820 30.970199 58.999207 0
M  V30 5 N 38.253887 30.200623 57.967187 0
M  V30 6 C 38.467479 32.255694 56.413270 0
M  V30 7 C 37.758898 32.503341 58.813349 0 CFG=1
M  V30 8 F 40.870889 36.695425 61.453503 0
M  V30 9 O 37.255722 35.110026 59.775865 0
M  V30 10 O 37.431578 30.480200 60.070332 0
M  V30 11 N 40.720299 35.522508 63.426349 0
M  V30 12 N 38.519045 27.775685 54.494570 0
M  V30 13 C 38.107749 29.971017 55.486724 0 CFG=2
M  V30 14 O 38.227969 33.067274 60.037975 0
M  V30 15 C 38.656823 30.150803 54.070373 0
M  V30 16 O 42.042022 36.021430 63.729644 0
M  V30 17 C 40.945432 34.273044 62.706945 0
M  V30 18 C 38.723261 30.765627 56.658271 0 CFG=2
M  V30 19 C 38.353143 28.725817 58.141256 0
M  V30 20 C 40.109736 36.503221 62.532330 0 CFG=2
M  V30 21 C 38.355671 28.508893 55.650657 0
M  V30 22 C 38.472671 27.941185 56.850045 0
M  V30 23 C 39.622079 33.667602 62.206731 0
M  V30 24 C 38.008612 34.351303 60.386646 0
M  V30 25 C 38.667404 28.697520 53.643405 0
M  V30 26 H 38.267403 34.077308 57.451294 0
M  V30 27 H 39.655288 33.147561 57.963485 0
M  V30 28 H 38.299692 36.743659 61.396359 0
M  V30 29 H 38.043656 36.021430 62.961032 0
M  V30 30 H 39.143670 32.634595 55.646026 0
M  V30 31 H 37.467403 32.405838 56.017425 0
M  V30 32 H 36.711268 32.766339 58.653502 0
M  V30 33 H 39.670811 30.552126 54.057148 0
M  V30 34 H 41.867404 36.750535 64.317926 0
M  V30 35 H 41.612506 34.438976 61.859688 0
M  V30 36 H 41.449567 33.563908 63.364705 0
M  V30 37 H 39.804469 30.617813 56.652074 0
M  V30 38 H 39.214473 28.499985 58.770669 0
M  V30 39 H 37.467404 28.355690 58.653501 0
M  V30 40 H 40.032815 37.467396 63.036942 0
M  V30 41 H 38.672479 26.882631 56.933660 0
M  V30 42 H 39.897261 32.806308 61.598519 0
M  V30 43 H 39.067396 33.266975 63.053501 0
M  V30 44 H 38.809604 28.506011 52.576566 0
M  V30 45 H 37.024042 30.111780 55.480941 0
M  V30 46 H 38.004865 30.762129 53.453511 0
M  V30 END ATOM
M  V30 BEGIN BOND
M  V30 1 1 3 1
M  V30 2 1 5 4
M  V30 3 1 6 2
M  V30 4 1 7 2
M  V30 5 1 7 4
M  V30 6 2 10 4
M  V30 7 1 14 7
M  V30 8 1 15 13
M  V30 9 1 16 11
M  V30 10 1 17 11
M  V30 11 1 18 5
M  V30 12 1 18 6
M  V30 13 1 18 13
M  V30 14 1 19 5
M  V30 15 1 20 3
M  V30 16 1 20 8
M  V30 17 1 20 11
M  V30 18 1 21 12
M  V30 19 1 21 13
M  V30 20 1 22 19
M  V30 21 2 22 21
M  V30 22 1 23 1
M  V30 23 1 23 17
M  V30 24 1 24 1
M  V30 25 2 24 9
M  V30 26 1 24 14
M  V30 27 2 25 12
M  V30 28 1 25 15
M  V30 29 1 26 2
M  V30 30 1 27 2
M  V30 31 1 28 3
M  V30 32 1 29 3
M  V30 33 1 30 6
M  V30 34 1 31 6
M  V30 35 1 7 32 CFG=3
M  V30 36 1 33 15
M  V30 37 1 34 16
M  V30 38 1 35 17
M  V30 39 1 36 17
M  V30 40 1 18 37 CFG=1
M  V30 41 1 38 19
M  V30 42 1 39 19
M  V30 43 1 20 40 CFG=1
M  V30 44 1 41 22
M  V30 45 1 42 23
M  V30 46 1 43 23
M  V30 47 1 44 25
M  V30 48 1 13 45 CFG=3
M  V30 49 1 46 15
M  V30 END BOND
M  V30 END CTAB
M  END
>  <i_epik_Tot_Q>  (1) 
0

>  <i_epik_Tot_abs_Q>  (1) 
0

>  <i_i_glide_confnum>  (1) 
5

>  <i_i_glide_lignum>  (1) 
53

>  <i_i_glide_posenum>  (1) 
62

>  <i_i_glide_rotatable_bonds>  (1) 
4

>  <i_lp_mmshare_version>  (1) 
72125

>  <i_m_source_file_index>  (1) 
20

>  <i_f3d_flags>  (1) 
0

>  <num_sample>  (1) 
50

>  <b_lp_Chiralities_Consistent>  (1) 
1

>  <r_epik_Charging_Adjusted_Penalty>  (1) 
0

>  <r_epik_Ionization_Penalty>  (1) 
0.00023690808741792311

>  <r_epik_Ionization_Penalty_Charging>  (1) 
0

>  <r_epik_Ionization_Penalty_Neutral>  (1) 
0.00023690808741792311

>  <r_epik_State_Penalty>  (1) 
-0

>  <r_glide_ring_energy>  (1) 
0.27322882293605699

>  <r_i_docking_score>  (1) 
-7.1329462230776812

>  <r_i_glide_ecoul>  (1) 
-6.4613634826767354

>  <r_i_glide_eff_state_penalty>  (1) 
-0

>  <r_i_glide_einternal>  (1) 
5.9745319169798883

>  <r_i_glide_emodel>  (1) 
-60.254750760871119

>  <r_i_glide_emodel_strain>  (1) 
0.74243071217699708

>  <r_i_glide_energy>  (1) 
-44.995038643947218

>  <r_i_glide_erotb>  (1) 
0.46110279215177946

>  <r_i_glide_esite>  (1) 
-0.16133134205795738

>  <r_i_glide_evdw>  (1) 
-38.53367516127048

>  <r_i_glide_gscore>  (1) 
-7.1329462230776812

>  <r_i_glide_gscore_strain>  (1) 
0

>  <r_i_glide_hbond>  (1) 
-0.32000000000000001

>  <r_i_glide_ligand_efficiency>  (1) 
-0.28531784892310724

>  <r_i_glide_ligand_efficiency_ln>  (1) 
-1.6907220120185729

>  <r_i_glide_ligand_efficiency_sa>  (1) 
-0.83427445127990429

>  <r_i_glide_lipo>  (1) 
-1.3364329273673159

>  <r_i_glide_metal>  (1) 
-0

>  <r_i_glide_rewards>  (1) 
-2.8803964653391536

>  <r_lp_Energy>  (1) 
38.735985999999997

>  <r_lp_tautomer_probability>  (1) 
1

>  <s_epik_Chemistry_Notes>  (1) 
This compound has an ester and may undergo hydrolysis at high or low pH. This compound has an imine and may undergo hydrolysis. This compound has a N-S or N-O group and may undergo hydrolysis at high or low pH.

>  <s_epik_cmdline>  (1) 
J2VwaWtfcHl0aG9uJywgJy1waHQnLCAnMS4wJywgJy1waCcsICc3LjQnLCAnLXRuJywgJzgnLCAnLW1hJywgJzUwMCcsICctaW1hZScsICc8aW5maWxlLm1hZT4nLCAnLW9tYWUnLCAnPG91dGZpbGUubWFlPic=

>  <s_epik_input>  (1) 
W0NIMl0xW0NIMl1OKFtPSF0pW0NAQEhdKEYpW0NIMl1OMUMoPU8pT1tDQEhdKEMyPU8pW0NIMl1bQ0gyXVtDQEBIXShOMjMpQz00QyhbQ0gyXVtDSDJdMyk9TltDSDJdW0NIXTQ=

>  <s_glide_docking_method>  (1) 
confgen

>  <s_i_glide_gridfile>  (1) 
gpcr_5ht2c_6bqh_protein_autoprepared_prepared

>  <s_lp_Force_Field>  (1) 
S-OPLS

>  <s_lp_Variant>  (1) 
DiffSBDD_19_num_sample_50-2

>  <s_m_source_file>  (1) 
generated__ligand_DiffSBDD_2026-05-06_prepared.sdf

>  <GenAI_Model>  (1) 
DiffSBDD

>  <Protein>  (1) 
GPCR_5HT2C

$$$$
DiffSBDD_19_num_sample_50
     RDKit          3D

  0  0  0  0  0  0  0  0  0  0999 V3000
M  V30 BEGIN CTAB
M  V30 COUNTS 46 49 0 0 1
M  V30 BEGIN ATOM
M  V30 1 N 37.924908 34.496740 60.742304 0
M  V30 2 C 38.510075 32.285384 56.916655 0
M  V30 3 C 39.223023 34.201745 61.384235 0
M  V30 4 C 38.520207 30.441472 58.774333 0
M  V30 5 N 38.985575 29.568003 57.832763 0
M  V30 6 C 38.298651 31.152474 55.925921 0
M  V30 7 C 38.037390 31.830299 58.299952 0 CFG=1
M  V30 8 F 41.065305 35.227212 62.413054 0
M  V30 9 O 36.384007 33.949714 59.053545 0
M  V30 10 O 38.460870 30.153858 59.971985 0
M  V30 11 N 39.112103 36.408510 62.467451 0
M  V30 12 N 38.122862 26.506794 55.139806 0
M  V30 13 C 39.086497 28.740356 55.373463 0 CFG=1
M  V30 14 O 38.352057 32.811144 59.290917 0
M  V30 15 C 38.199367 28.701996 54.118117 0
M  V30 16 O 39.867510 37.621422 62.653577 0
M  V30 17 C 37.955216 36.799141 61.669481 0
M  V30 18 C 39.113576 29.935632 56.379124 0 CFG=2
M  V30 19 C 39.429447 28.205038 58.229910 0
M  V30 20 C 39.972542 35.510535 61.701770 0 CFG=2
M  V30 21 C 38.700320 27.432500 55.981776 0
M  V30 22 C 38.858890 27.182671 57.278816 0
M  V30 23 C 37.107679 35.563489 61.333818 0
M  V30 24 C 37.452599 33.769514 59.635916 0
M  V30 25 C 37.866397 27.221126 54.127222 0
M  V30 26 H 37.938507 33.159130 56.599868 0
M  V30 27 H 39.556888 32.587280 56.943932 0
M  V30 28 H 39.022657 33.656480 62.307473 0
M  V30 29 H 39.903556 33.577547 60.806223 0
M  V30 30 H 38.606376 31.471274 54.929283 0
M  V30 31 H 37.238788 30.901664 55.862604 0
M  V30 32 H 36.964583 31.687760 58.253958 0
M  V30 33 H 38.725892 28.994289 53.209361 0
M  V30 34 H 40.307169 37.460279 63.479897 0
M  V30 35 H 37.354144 37.519931 62.225398 0
M  V30 36 H 38.272312 37.291509 60.748820 0
M  V30 37 H 40.143817 30.286771 56.328215 0
M  V30 38 H 40.518278 28.147499 58.218206 0
M  V30 39 H 39.105700 27.929418 59.234612 0
M  V30 40 H 40.309807 35.992413 60.782222 0
M  V30 41 H 38.558950 26.230998 57.693724 0
M  V30 42 H 36.632401 35.186934 62.240561 0
M  V30 43 H 36.298492 35.867298 60.667780 0
M  V30 44 H 37.400337 26.823540 53.221400 0
M  V30 45 H 40.117092 28.586837 55.053424 0
M  V30 46 H 37.277729 29.275276 54.216385 0
M  V30 END ATOM
M  V30 BEGIN BOND
M  V30 1 1 3 1
M  V30 2 1 5 4
M  V30 3 1 6 2
M  V30 4 1 7 2
M  V30 5 1 7 4
M  V30 6 2 10 4
M  V30 7 1 14 7
M  V30 8 1 15 13
M  V30 9 1 16 11
M  V30 10 1 17 11
M  V30 11 1 18 5
M  V30 12 1 18 6
M  V30 13 1 18 13
M  V30 14 1 19 5
M  V30 15 1 20 3
M  V30 16 1 20 8
M  V30 17 1 20 11
M  V30 18 1 21 12
M  V30 19 1 21 13
M  V30 20 1 22 19
M  V30 21 2 22 21
M  V30 22 1 23 1
M  V30 23 1 23 17
M  V30 24 1 24 1
M  V30 25 2 24 9
M  V30 26 1 24 14
M  V30 27 2 25 12
M  V30 28 1 25 15
M  V30 29 1 26 2
M  V30 30 1 27 2
M  V30 31 1 28 3
M  V30 32 1 29 3
M  V30 33 1 30 6
M  V30 34 1 31 6
M  V30 35 1 7 32 CFG=3
M  V30 36 1 33 15
M  V30 37 1 34 16
M  V30 38 1 35 17
M  V30 39 1 36 17
M  V30 40 1 18 37 CFG=1
M  V30 41 1 38 19
M  V30 42 1 39 19
M  V30 43 1 20 40 CFG=3
M  V30 44 1 41 22
M  V30 45 1 42 23
M  V30 46 1 43 23
M  V30 47 1 44 25
M  V30 48 1 13 45 CFG=3
M  V30 49 1 46 15
M  V30 END BOND
M  V30 END CTAB
M  END
>  <i_epik_Tot_Q>  (1) 
0

>  <i_epik_Tot_abs_Q>  (1) 
0

>  <i_i_glide_confnum>  (1) 
16

>  <i_i_glide_lignum>  (1) 
52

>  <i_i_glide_posenum>  (1) 
6

>  <i_i_glide_rotatable_bonds>  (1) 
4

>  <i_lp_mmshare_version>  (1) 
72125

>  <i_m_source_file_index>  (1) 
20

>  <i_f3d_flags>  (1) 
0

>  <num_sample>  (1) 
50

>  <b_lp_Chiralities_Consistent>  (1) 
1

>  <r_epik_Charging_Adjusted_Penalty>  (1) 
0

>  <r_epik_Ionization_Penalty>  (1) 
0.00023690808741792311

>  <r_epik_Ionization_Penalty_Charging>  (1) 
0

>  <r_epik_Ionization_Penalty_Neutral>  (1) 
0.00023690808741792311

>  <r_epik_State_Penalty>  (1) 
-0

>  <r_glide_ring_energy>  (1) 
0

>  <r_i_docking_score>  (1) 
-7.1311446023686633

>  <r_i_glide_ecoul>  (1) 
-2.6203944067243783

>  <r_i_glide_eff_state_penalty>  (1) 
-0

>  <r_i_glide_einternal>  (1) 
3.4172675926130913

>  <r_i_glide_emodel>  (1) 
-61.542346326093032

>  <r_i_glide_emodel_strain>  (1) 
0.16370704901882505

>  <r_i_glide_energy>  (1) 
-44.563669688511581

>  <r_i_glide_erotb>  (1) 
0.46110279215177946

>  <r_i_glide_esite>  (1) 
-0.031256729130440725

>  <r_i_glide_evdw>  (1) 
-41.943275281787201

>  <r_i_glide_gscore>  (1) 
-7.1311446023686633

>  <r_i_glide_gscore_strain>  (1) 
0

>  <r_i_glide_hbond>  (1) 
-0.083090806073846876

>  <r_i_glide_ligand_efficiency>  (1) 
-0.28524578409474655

>  <r_i_glide_ligand_efficiency_ln>  (1) 
-1.6902949739203197

>  <r_i_glide_ligand_efficiency_sa>  (1) 
-0.83406373244347631

>  <r_i_glide_lipo>  (1) 
-1.8731711348120497

>  <r_i_glide_metal>  (1) 
-0

>  <r_i_glide_rewards>  (1) 
-3.114505799406087

>  <r_lp_Energy>  (1) 
47.194033999999995

>  <r_lp_tautomer_probability>  (1) 
1

>  <s_epik_Chemistry_Notes>  (1) 
This compound has an ester and may undergo hydrolysis at high or low pH. This compound has an imine and may undergo hydrolysis. This compound has a N-S or N-O group and may undergo hydrolysis at high or low pH.

>  <s_epik_cmdline>  (1) 
J2VwaWtfcHl0aG9uJywgJy1waHQnLCAnMS4wJywgJy1waCcsICc3LjQnLCAnLXRuJywgJzgnLCAnLW1hJywgJzUwMCcsICctaW1hZScsICc8aW5maWxlLm1hZT4nLCAnLW9tYWUnLCAnPG91dGZpbGUubWFlPic=

>  <s_epik_input>  (1) 
W0NIMl0xW0NIMl1OKFtPSF0pW0NAQEhdKEYpW0NIMl1OMUMoPU8pT1tDQEhdKEMyPU8pW0NIMl1bQ0gyXVtDQEBIXShOMjMpQz00QyhbQ0gyXVtDSDJdMyk9TltDSDJdW0NIXTQ=

>  <s_glide_docking_method>  (1) 
confgen

>  <s_i_glide_gridfile>  (1) 
gpcr_5ht2c_6bqh_protein_autoprepared_prepared

>  <s_lp_Force_Field>  (1) 
S-OPLS

>  <s_lp_Variant>  (1) 
DiffSBDD_19_num_sample_50-1

>  <s_m_source_file>  (1) 
generated__ligand_DiffSBDD_2026-05-06_prepared.sdf

>  <GenAI_Model>  (1) 
DiffSBDD

>  <Protein>  (1) 
GPCR_5HT2C

$$$$
DiffSBDD_43_num_sample_50
     RDKit          3D

  0  0  0  0  0  0  0  0  0  0999 V3000
M  V30 BEGIN CTAB
M  V30 COUNTS 63 64 0 0 1
M  V30 BEGIN ATOM
M  V30 1 O 34.022443 34.021399 59.053504 0
M  V30 2 C 37.594935 25.817113 54.675144 0
M  V30 3 C 37.305750 31.249691 59.472359 0
M  V30 4 C 37.408843 37.322458 59.988716 0
M  V30 5 C 36.366759 33.644447 59.610743 0 CFG=1
M  V30 6 C 39.947523 30.489540 50.848879 0
M  V30 7 C 38.582368 28.007425 55.097510 0
M  V30 8 O 38.758598 29.335858 52.653505 0
M  V30 9 C 37.519968 27.218901 54.610156 0
M  V30 10 C 36.667479 35.164350 61.626842 0
M  V30 11 C 39.797968 25.980982 55.700396 0
M  V30 12 C 36.701936 35.000646 60.231296 0
M  V30 13 C 37.067368 36.084453 59.412505 0
M  V30 14 C 39.150633 28.840470 58.436937 0
M  V30 15 O 40.282957 29.221152 58.813967 0 CHG=-1
M  V30 16 C 39.725833 29.181723 51.628425 0 CFG=1
M  V30 17 C 37.369886 32.605040 60.165805 0
M  V30 18 C 37.381456 37.481038 61.385773 0
M  V30 19 C 39.728866 27.383243 55.633633 0
M  V30 20 C 39.218008 28.046778 50.743388 0
M  V30 21 C 38.969736 30.260721 56.314731 0
M  V30 22 O 38.667618 27.707813 58.653682 0
M  V30 23 C 39.195122 30.073848 53.788754 0
M  V30 24 C 34.891720 33.226094 59.825047 0
M  V30 25 N 38.156133 31.059485 58.456830 0
M  V30 26 C 38.730320 25.199712 55.224617 0
M  V30 27 C 38.285173 29.849477 57.651451 0 CFG=2
M  V30 28 C 41.177947 30.422055 49.943304 0
M  V30 29 C 38.486751 29.529056 55.038853 0 CFG=1
M  V30 30 O 36.508886 30.394103 59.853416 0
M  V30 31 C 37.011145 36.403176 62.206048 0
M  V30 32 H 34.066115 34.911243 59.371473 0
M  V30 33 H 36.779036 25.214450 54.305442 0
M  V30 34 H 37.694656 38.150443 59.357691 0
M  V30 35 H 36.534796 33.711618 58.533475 0
M  V30 36 H 39.067506 30.733569 50.253523 0
M  V30 37 H 40.090466 31.317628 51.542156 0
M  V30 38 H 36.646664 27.691546 54.190333 0
M  V30 39 H 36.380361 34.337056 62.253491 0
M  V30 40 H 40.667424 25.504011 56.120528 0
M  V30 41 H 37.094208 35.964850 58.340516 0
M  V30 42 H 40.667426 28.855922 52.058675 0
M  V30 43 H 38.386956 32.989865 60.071648 0
M  V30 44 H 37.206396 32.441897 61.230877 0
M  V30 45 H 37.643305 38.427961 61.827090 0
M  V30 46 H 40.550097 27.979749 56.002912 0
M  V30 47 H 39.951571 27.787840 49.984202 0
M  V30 48 H 39.016522 27.147666 51.327099 0
M  V30 49 H 38.295165 28.346116 50.253497 0
M  V30 50 H 38.795566 31.323652 56.136728 0
M  V30 51 H 40.052079 30.175704 56.399096 0
M  V30 52 H 38.975238 31.132539 53.646968 0
M  V30 53 H 40.272428 29.995056 53.926160 0
M  V30 54 H 34.608429 33.265141 60.876956 0
M  V30 55 H 34.719491 32.204436 59.488786 0
M  V30 56 H 38.787398 31.809878 58.228304 0
M  V30 57 H 38.783236 24.124199 55.278832 0
M  V30 58 H 37.293457 29.433792 57.459784 0
M  V30 59 H 41.336649 31.374551 49.449639 0
M  V30 60 H 42.075530 30.206444 50.521935 0
M  V30 61 H 41.067453 29.663933 49.168966 0
M  V30 62 H 37.427334 29.767529 54.930722 0
M  V30 63 H 36.987636 36.522735 63.279894 0
M  V30 END ATOM
M  V30 BEGIN BOND
M  V30 1 1 9 2
M  V30 2 2 9 7
M  V30 3 1 12 5
M  V30 4 1 12 10
M  V30 5 1 13 4
M  V30 6 2 13 12
M  V30 7 1 15 14
M  V30 8 1 16 6
M  V30 9 1 16 8
M  V30 10 1 17 3
M  V30 11 1 17 5
M  V30 12 2 18 4
M  V30 13 1 19 7
M  V30 14 2 19 11
M  V30 15 1 20 16
M  V30 16 2 22 14
M  V30 17 1 23 8
M  V30 18 1 24 1
M  V30 19 1 24 5
M  V30 20 1 25 3
M  V30 21 2 26 2
M  V30 22 1 26 11
M  V30 23 1 27 14
M  V30 24 1 27 21
M  V30 25 1 27 25
M  V30 26 1 28 6
M  V30 27 1 29 7
M  V30 28 1 29 21
M  V30 29 1 29 23
M  V30 30 2 30 3
M  V30 31 2 31 10
M  V30 32 1 31 18
M  V30 33 1 32 1
M  V30 34 1 33 2
M  V30 35 1 34 4
M  V30 36 1 5 35 CFG=3
M  V30 37 1 36 6
M  V30 38 1 37 6
M  V30 39 1 38 9
M  V30 40 1 39 10
M  V30 41 1 40 11
M  V30 42 1 41 13
M  V30 43 1 16 42 CFG=1
M  V30 44 1 43 17
M  V30 45 1 44 17
M  V30 46 1 45 18
M  V30 47 1 46 19
M  V30 48 1 47 20
M  V30 49 1 48 20
M  V30 50 1 49 20
M  V30 51 1 50 21
M  V30 52 1 51 21
M  V30 53 1 52 23
M  V30 54 1 53 23
M  V30 55 1 54 24
M  V30 56 1 55 24
M  V30 57 1 56 25
M  V30 58 1 57 26
M  V30 59 1 27 58 CFG=3
M  V30 60 1 59 28
M  V30 61 1 60 28
M  V30 62 1 61 28
M  V30 63 1 29 62 CFG=3
M  V30 64 1 63 31
M  V30 END BOND
M  V30 END CTAB
M  END
>  <i_epik_Tot_Q>  (1) 
-1

>  <i_epik_Tot_abs_Q>  (1) 
1

>  <i_i_glide_confnum>  (1) 
461

>  <i_i_glide_lignum>  (1) 
101

>  <i_i_glide_posenum>  (1) 
107

>  <i_i_glide_rotatable_bonds>  (1) 
15

>  <i_lp_mmshare_version>  (1) 
72125

>  <i_m_source_file_index>  (1) 
44

>  <i_f3d_flags>  (1) 
0

>  <num_sample>  (1) 
50

>  <b_lp_Chiralities_Consistent>  (1) 
1

>  <r_epik_Charging_Adjusted_Penalty>  (1) 
6.4622408798935545e-05

>  <r_epik_Ionization_Penalty>  (1) 
6.4697991859273242e-05

>  <r_epik_Ionization_Penalty_Charging>  (1) 
6.4622408798935545e-05

>  <r_epik_Ionization_Penalty_Neutral>  (1) 
7.5583060337697202e-08

>  <r_epik_State_Penalty>  (1) 
-0

>  <r_glide_ring_energy>  (1) 
0

>  <r_i_docking_score>  (1) 
-7.1244568354828841

>  <r_i_glide_ecoul>  (1) 
-2.690764026776395

>  <r_i_glide_eff_state_penalty>  (1) 
-0

>  <r_i_glide_einternal>  (1) 
10.629316958499171

>  <r_i_glide_emodel>  (1) 
-63.021289277033077

>  <r_i_glide_emodel_strain>  (1) 
0.43235696017028502

>  <r_i_glide_energy>  (1) 
-46.047391570402553

>  <r_i_glide_erotb>  (1) 
1.0908865233182055

>  <r_i_glide_esite>  (1) 
-0.13025501843990062

>  <r_i_glide_evdw>  (1) 
-43.356627543626161

>  <r_i_glide_gscore>  (1) 
-7.1244568354828841

>  <r_i_glide_gscore_strain>  (1) 
0

>  <r_i_glide_hbond>  (1) 
0

>  <r_i_glide_ligand_efficiency>  (1) 
-0.22982118824138337

>  <r_i_glide_ligand_efficiency_ln>  (1) 
-1.6067833547819501

>  <r_i_glide_ligand_efficiency_sa>  (1) 
-0.72195583425108212

>  <r_i_glide_lipo>  (1) 
-4.1184163900807853

>  <r_i_glide_metal>  (1) 
-0

>  <r_i_glide_rewards>  (1) 
-1.395225969082637

>  <r_lp_Energy>  (1) 
36.114167000000002

>  <r_lp_tautomer_probability>  (1) 
1

>  <s_epik_cmdline>  (1) 
J2VwaWtfcHl0aG9uJywgJy1waHQnLCAnMS4wJywgJy1waCcsICc3LjQnLCAnLXRuJywgJzgnLCAnLW1hJywgJzUwMCcsICctaW1hZScsICc8aW5maWxlLm1hZT4nLCAnLW9tYWUnLCAnPG91dGZpbGUubWFlPic=

>  <s_epik_input>  (1) 
W2NIXTFbY0hdW2NIXVtjSF1bY0hdYzFbQ0BIXShbQ0gyXVtPSF0pW0NIMl1DKD1PKVtOSF1bQ0BIXShDKD1PKVtPSF0pW0NIMl1bQ0BASF0oW0NIMl1PW0NAQEhdKFtDSDNdKVtDSDJdW0NIM10pYzJbY0hdW2NIXVtjSF1bY0hdW2NIXTI=

>  <s_glide_docking_method>  (1) 
confgen

>  <s_i_glide_gridfile>  (1) 
gpcr_5ht2c_6bqh_protein_autoprepared_prepared

>  <s_lp_Force_Field>  (1) 
S-OPLS

>  <s_lp_Variant>  (1) 
DiffSBDD_43_num_sample_50-1

>  <s_m_source_file>  (1) 
generated__ligand_DiffSBDD_2026-05-06_prepared.sdf

>  <GenAI_Model>  (1) 
DiffSBDD

>  <Protein>  (1) 
GPCR_5HT2C

$$$$
DiffSBDD_37_num_sample_50
     RDKit          3D

  0  0  0  0  0  0  0  0  0  0999 V3000
M  V30 BEGIN CTAB
M  V30 COUNTS 62 64 0 0 1
M  V30 BEGIN ATOM
M  V30 1 C 38.497519 27.323940 54.428034 0
M  V30 2 F 37.071723 24.257306 57.853501 0
M  V30 3 C 37.395219 33.129330 60.271743 0
M  V30 4 C 39.735018 30.002837 53.821317 0
M  V30 5 C 38.877938 27.545505 52.962201 0
M  V30 6 N 37.479009 24.467107 56.560321 0
M  V30 7 C 37.538973 36.814765 60.979563 0 CFG=1
M  V30 8 C 39.317554 30.730552 56.162617 0
M  V30 9 C 37.849698 37.989436 61.853507 0
M  V30 10 C 38.161448 28.097286 56.731154 0
M  V30 11 C 38.483791 28.388804 55.389283 0
M  V30 12 C 38.788020 29.841011 54.990969 0 CFG=2
M  V30 13 S 39.067342 29.221463 52.359532 0
M  V30 14 O 39.067641 38.576635 61.453517 0
M  V30 15 C 37.830783 25.756378 56.175100 0
M  V30 16 C 39.172963 35.062900 62.151752 0
M  V30 17 C 37.849619 26.790820 57.121928 0
M  V30 18 C 38.134296 35.421884 61.098527 0 CFG=1
M  V30 19 C 38.902797 30.555739 59.180192 0
M  V30 20 C 37.670884 32.693072 54.654293 0
M  V30 21 C 38.453425 31.776070 58.325369 0 CFG=2
M  V30 22 C 38.136339 32.857837 56.107903 0
M  V30 23 C 38.158311 26.022222 54.837344 0
M  V30 24 F 37.067276 23.584518 55.588546 0
M  V30 25 C 37.159075 32.314900 58.996251 0
M  V30 26 O 36.831541 35.746098 61.609018 0
M  V30 27 N 38.267321 31.555879 56.842260 0 CFG=1 CHG=1
M  V30 28 O 37.063194 37.198844 59.709945 0
M  V30 29 C 38.127574 34.438680 59.949297 0
M  V30 30 H 37.924783 32.553384 61.028268 0
M  V30 31 H 36.420679 33.362708 60.702350 0
M  V30 32 H 39.951435 31.035872 53.561350 0
M  V30 33 H 40.667386 29.621466 54.167170 0
M  V30 34 H 39.822026 27.026694 52.793103 0
M  V30 35 H 38.139295 27.055220 52.326747 0
M  V30 36 H 40.078561 31.424511 55.800345 0
M  V30 37 H 39.898634 30.098712 56.820553 0
M  V30 38 H 37.942648 37.621432 62.878390 0
M  V30 39 H 37.033345 38.711558 61.824488 0
M  V30 40 H 38.140566 28.877884 57.458765 0
M  V30 41 H 37.813049 30.182207 54.662165 0
M  V30 42 H 39.018085 38.734882 60.521665 0
M  V30 43 H 40.177200 35.185573 61.745297 0
M  V30 44 H 39.081879 35.694702 63.033878 0
M  V30 45 H 39.059337 34.028297 62.473864 0
M  V30 46 H 37.599982 26.585805 58.151696 0
M  V30 47 H 39.162870 30.880955 60.186175 0
M  V30 48 H 38.097392 29.834242 59.311964 0
M  V30 49 H 39.786102 30.021715 58.839798 0
M  V30 50 H 37.341425 33.621400 54.231274 0
M  V30 51 H 38.453017 32.365818 53.985388 0
M  V30 52 H 36.816989 32.021010 54.577877 0
M  V30 53 H 39.242829 32.520242 58.394436 0
M  V30 54 H 37.435964 33.534431 56.583831 0
M  V30 55 H 39.083932 33.396989 56.126318 0
M  V30 56 H 38.152295 25.222359 54.117647 0
M  V30 57 H 36.474384 31.491322 59.203347 0
M  V30 58 H 36.595053 32.967841 58.341133 0
M  V30 59 H 36.298905 37.738688 59.850285 0
M  V30 60 H 37.643405 34.890182 59.084683 0
M  V30 61 H 39.161671 34.257594 59.660094 0
M  V30 62 H 37.365433 31.098588 56.748045 0
M  V30 END ATOM
M  V30 BEGIN BOND
M  V30 1 1 5 1
M  V30 2 1 6 2
M  V30 3 1 9 7
M  V30 4 2 11 1
M  V30 5 1 11 10
M  V30 6 1 12 4
M  V30 7 1 12 8
M  V30 8 1 12 11
M  V30 9 1 13 4
M  V30 10 1 13 5
M  V30 11 1 14 9
M  V30 12 1 15 6
M  V30 13 2 17 10
M  V30 14 1 17 15
M  V30 15 1 18 7
M  V30 16 1 18 16 CFG=1
M  V30 17 1 21 19
M  V30 18 1 22 20
M  V30 19 1 23 1
M  V30 20 2 23 15
M  V30 21 1 24 6
M  V30 22 1 25 3
M  V30 23 1 25 21
M  V30 24 1 26 7
M  V30 25 1 26 18
M  V30 26 1 27 8
M  V30 27 1 27 21
M  V30 28 1 27 22
M  V30 29 1 7 28 CFG=3
M  V30 30 1 29 3
M  V30 31 1 29 18
M  V30 32 1 30 3
M  V30 33 1 31 3
M  V30 34 1 32 4
M  V30 35 1 33 4
M  V30 36 1 34 5
M  V30 37 1 35 5
M  V30 38 1 36 8
M  V30 39 1 37 8
M  V30 40 1 38 9
M  V30 41 1 39 9
M  V30 42 1 40 10
M  V30 43 1 12 41 CFG=3
M  V30 44 1 42 14
M  V30 45 1 43 16
M  V30 46 1 44 16
M  V30 47 1 45 16
M  V30 48 1 46 17
M  V30 49 1 47 19
M  V30 50 1 48 19
M  V30 51 1 49 19
M  V30 52 1 50 20
M  V30 53 1 51 20
M  V30 54 1 52 20
M  V30 55 1 21 53 CFG=3
M  V30 56 1 54 22
M  V30 57 1 55 22
M  V30 58 1 56 23
M  V30 59 1 57 25
M  V30 60 1 58 25
M  V30 61 1 59 28
M  V30 62 1 60 29
M  V30 63 1 61 29
M  V30 64 1 27 62 CFG=1
M  V30 END BOND
M  V30 END CTAB
M  END
>  <i_epik_Tot_Q>  (1) 
1

>  <i_epik_Tot_abs_Q>  (1) 
1

>  <i_i_glide_confnum>  (1) 
1116

>  <i_i_glide_lignum>  (1) 
92

>  <i_i_glide_posenum>  (1) 
196

>  <i_i_glide_rotatable_bonds>  (1) 
12

>  <i_lp_mmshare_version>  (1) 
72125

>  <i_m_source_file_index>  (1) 
38

>  <i_f3d_flags>  (1) 
0

>  <num_sample>  (1) 
50

>  <b_lp_Chiralities_Consistent>  (1) 
1

>  <r_epik_Charging_Adjusted_Penalty>  (1) 
0.031037112904587178

>  <r_epik_Ionization_Penalty>  (1) 
0.015538636701717824

>  <r_epik_Ionization_Penalty_Charging>  (1) 
0.015518556452293627

>  <r_epik_Ionization_Penalty_Neutral>  (1) 
2.0080249424197063e-05

>  <r_epik_State_Penalty>  (1) 
0.015518556452293551

>  <r_glide_ring_energy>  (1) 
0

>  <r_i_docking_score>  (1) 
-7.1073203063606245

>  <r_i_glide_ecoul>  (1) 
-4.4976153547367925

>  <r_i_glide_eff_state_penalty>  (1) 
0.015518556452293551

>  <r_i_glide_einternal>  (1) 
10.079088102241954

>  <r_i_glide_emodel>  (1) 
-51.364832751282215

>  <r_i_glide_emodel_strain>  (1) 
2.9119342366439156

>  <r_i_glide_energy>  (1) 
-34.919959893951813

>  <r_i_glide_erotb>  (1) 
0.85436837262661747

>  <r_i_glide_esite>  (1) 
-0.10000000000000001

>  <r_i_glide_evdw>  (1) 
-30.422344539215022

>  <r_i_glide_gscore>  (1) 
-7.1228388628129178

>  <r_i_glide_gscore_strain>  (1) 
0

>  <r_i_glide_hbond>  (1) 
-0.19151852769029631

>  <r_i_glide_ligand_efficiency>  (1) 
-0.24508001056415946

>  <r_i_glide_ligand_efficiency_ln>  (1) 
-1.6273961240639463

>  <r_i_glide_ligand_efficiency_sa>  (1) 
-0.7529634400955324

>  <r_i_glide_lipo>  (1) 
-2.8458693315819814

>  <r_i_glide_metal>  (1) 
-0

>  <r_i_glide_rewards>  (1) 
-2.6440598459959874

>  <r_lp_Energy>  (1) 
38.592610000000001

>  <s_epik_cmdline>  (1) 
J2VwaWtfcHl0aG9uJywgJy1waHQnLCAnMS4wJywgJy1waCcsICc3LjQnLCAnLXRuJywgJzgnLCAnLW1hJywgJzUwMCcsICctaW1hZScsICc8aW5maWxlLm1hZT4nLCAnLW9tYWUnLCAnPG91dGZpbGUubWFlPic=

>  <s_epik_input>  (1) 
Rk4oRiljKFtjSF0xKVtjSF1bY0hdYyhjMTIpW0NASF0oW0NIMl1TW0NIMl0yKVtDSDJdTihbQ0gyXVtDSDNdKVtDQEhdKFtDSDNdKVtDSDJdW0NIMl1bQ0gyXVtDQEBdKE8zKShbQ0gzXSlDMyhbT0hdKVtDSDJdW09IXQ==

>  <s_glide_docking_method>  (1) 
confgen

>  <s_i_glide_gridfile>  (1) 
gpcr_5ht2c_6bqh_protein_autoprepared_prepared

>  <s_lp_Force_Field>  (1) 
S-OPLS

>  <s_lp_Variant>  (1) 
DiffSBDD_37_num_sample_50-2

>  <s_m_source_file>  (1) 
generated__ligand_DiffSBDD_2026-05-06_prepared.sdf

>  <GenAI_Model>  (1) 
DiffSBDD

>  <Protein>  (1) 
GPCR_5HT2C

$$$$
DiffSBDD_19_num_sample_50
     RDKit          3D

  0  0  0  0  0  0  0  0  0  0999 V3000
M  V30 BEGIN CTAB
M  V30 COUNTS 46 49 0 0 1
M  V30 BEGIN ATOM
M  V30 1 N 37.930915 32.229213 60.376739 0
M  V30 2 C 38.946438 28.130540 59.243094 0
M  V30 3 C 38.118178 33.198840 61.453502 0
M  V30 4 C 39.129679 29.429740 57.018684 0
M  V30 5 N 39.078816 28.225230 56.377326 0
M  V30 6 C 39.646866 26.981759 58.551453 0
M  V30 7 C 39.327010 29.431103 58.553190 0 CFG=1
M  V30 8 F 38.121735 35.517865 61.853501 0
M  V30 9 O 39.877275 30.981318 60.832168 0
M  V30 10 O 39.023164 30.500640 56.419041 0
M  V30 11 N 36.744998 34.781543 60.180257 0
M  V30 12 N 37.067403 24.822132 54.988895 0
M  V30 13 C 37.901838 26.144241 56.873767 0 CFG=1
M  V30 14 O 38.499085 30.460892 59.094847 0
M  V30 15 C 37.757101 24.678020 57.299541 0
M  V30 16 O 36.725652 36.113579 59.606048 0
M  V30 17 C 36.628965 33.857513 59.053501 0
M  V30 18 C 39.224724 26.913656 57.081275 0 CFG=1
M  V30 19 C 38.834876 28.163204 54.914181 0
M  V30 20 C 38.026947 34.623772 60.868827 0 CFG=2
M  V30 21 C 37.677952 25.985570 55.397546 0
M  V30 22 C 38.100730 26.893121 54.508547 0
M  V30 23 C 36.731244 32.396159 59.533939 0
M  V30 24 C 38.864065 31.197061 60.165063 0
M  V30 25 C 37.098697 24.137270 56.046301 0
M  V30 26 H 39.213382 28.157919 60.300265 0
M  V30 27 H 37.867403 28.021428 59.182823 0
M  V30 28 H 37.338280 33.040879 62.199206 0
M  V30 29 H 39.071699 33.076269 61.969060 0
M  V30 30 H 39.442365 26.037076 59.053501 0
M  V30 31 H 40.726163 27.130043 58.615413 0
M  V30 32 H 40.387695 29.621430 58.725111 0
M  V30 33 H 37.124342 24.546783 58.177234 0
M  V30 34 H 37.406423 36.061501 58.952587 0
M  V30 35 H 35.674507 34.015235 58.549089 0
M  V30 36 H 37.411564 34.055190 58.318908 0
M  V30 37 H 40.013545 26.361227 56.565510 0
M  V30 38 H 38.242736 29.009985 54.562885 0
M  V30 39 H 39.792156 28.198652 54.400507 0
M  V30 40 H 38.861240 34.810482 60.191142 0
M  V30 41 H 37.941011 26.733104 53.451251 0
M  V30 42 H 35.857399 32.150316 60.138290 0
M  V30 43 H 36.667403 31.758446 58.653503 0
M  V30 44 H 36.665909 23.136507 56.119473 0
M  V30 45 H 37.067403 26.720566 57.277081 0
M  V30 46 H 38.718492 24.186423 57.453501 0
M  V30 END ATOM
M  V30 BEGIN BOND
M  V30 1 1 3 1
M  V30 2 1 5 4
M  V30 3 1 6 2
M  V30 4 1 7 2
M  V30 5 1 7 4
M  V30 6 2 10 4
M  V30 7 1 14 7
M  V30 8 1 15 13
M  V30 9 1 16 11
M  V30 10 1 17 11
M  V30 11 1 18 5
M  V30 12 1 18 6
M  V30 13 1 18 13
M  V30 14 1 19 5
M  V30 15 1 20 3
M  V30 16 1 20 8
M  V30 17 1 20 11
M  V30 18 1 21 12
M  V30 19 1 21 13
M  V30 20 1 22 19
M  V30 21 2 22 21
M  V30 22 1 23 1
M  V30 23 1 23 17
M  V30 24 1 24 1
M  V30 25 2 24 9
M  V30 26 1 24 14
M  V30 27 2 25 12
M  V30 28 1 25 15
M  V30 29 1 26 2
M  V30 30 1 27 2
M  V30 31 1 28 3
M  V30 32 1 29 3
M  V30 33 1 30 6
M  V30 34 1 31 6
M  V30 35 1 7 32 CFG=3
M  V30 36 1 33 15
M  V30 37 1 34 16
M  V30 38 1 35 17
M  V30 39 1 36 17
M  V30 40 1 18 37 CFG=3
M  V30 41 1 38 19
M  V30 42 1 39 19
M  V30 43 1 20 40 CFG=3
M  V30 44 1 41 22
M  V30 45 1 42 23
M  V30 46 1 43 23
M  V30 47 1 44 25
M  V30 48 1 13 45 CFG=1
M  V30 49 1 46 15
M  V30 END BOND
M  V30 END CTAB
M  END
>  <i_epik_Tot_Q>  (1) 
0

>  <i_epik_Tot_abs_Q>  (1) 
0

>  <i_i_glide_confnum>  (1) 
9

>  <i_i_glide_lignum>  (1) 
54

>  <i_i_glide_posenum>  (1) 
385

>  <i_i_glide_rotatable_bonds>  (1) 
4

>  <i_lp_mmshare_version>  (1) 
72125

>  <i_m_source_file_index>  (1) 
20

>  <i_f3d_flags>  (1) 
0

>  <num_sample>  (1) 
50

>  <b_lp_Chiralities_Consistent>  (1) 
1

>  <r_epik_Charging_Adjusted_Penalty>  (1) 
0

>  <r_epik_Ionization_Penalty>  (1) 
0.00023690808741792311

>  <r_epik_Ionization_Penalty_Charging>  (1) 
0

>  <r_epik_Ionization_Penalty_Neutral>  (1) 
0.00023690808741792311

>  <r_epik_State_Penalty>  (1) 
-0

>  <r_glide_ring_energy>  (1) 
0

>  <r_i_docking_score>  (1) 
-7.0992216502228134

>  <r_i_glide_ecoul>  (1) 
-0.33112310959959557

>  <r_i_glide_eff_state_penalty>  (1) 
-0

>  <r_i_glide_einternal>  (1) 
0.36485222905226156

>  <r_i_glide_emodel>  (1) 
-59.796956032495849

>  <r_i_glide_emodel_strain>  (1) 
0

>  <r_i_glide_energy>  (1) 
-41.596655165195742

>  <r_i_glide_erotb>  (1) 
0.46110279215177946

>  <r_i_glide_esite>  (1) 
0

>  <r_i_glide_evdw>  (1) 
-41.265532055596147

>  <r_i_glide_gscore>  (1) 
-7.0992216502228134

>  <r_i_glide_gscore_strain>  (1) 
0

>  <r_i_glide_hbond>  (1) 
0

>  <r_i_glide_ligand_efficiency>  (1) 
-0.28396886600891252

>  <r_i_glide_ligand_efficiency_ln>  (1) 
-1.6827282776080748

>  <r_i_glide_ligand_efficiency_sa>  (1) 
-0.83033000131025292

>  <r_i_glide_lipo>  (1) 
-2.5078477100896692

>  <r_i_glide_metal>  (1) 
-0

>  <r_i_glide_rewards>  (1) 
-2.9395316630651771

>  <r_lp_Energy>  (1) 
38.905223999999997

>  <r_lp_tautomer_probability>  (1) 
1

>  <s_epik_Chemistry_Notes>  (1) 
This compound has an ester and may undergo hydrolysis at high or low pH. This compound has an imine and may undergo hydrolysis. This compound has a N-S or N-O group and may undergo hydrolysis at high or low pH.

>  <s_epik_cmdline>  (1) 
J2VwaWtfcHl0aG9uJywgJy1waHQnLCAnMS4wJywgJy1waCcsICc3LjQnLCAnLXRuJywgJzgnLCAnLW1hJywgJzUwMCcsICctaW1hZScsICc8aW5maWxlLm1hZT4nLCAnLW9tYWUnLCAnPG91dGZpbGUubWFlPic=

>  <s_epik_input>  (1) 
W0NIMl0xW0NIMl1OKFtPSF0pW0NAQEhdKEYpW0NIMl1OMUMoPU8pT1tDQEhdKEMyPU8pW0NIMl1bQ0gyXVtDQEBIXShOMjMpQz00QyhbQ0gyXVtDSDJdMyk9TltDSDJdW0NIXTQ=

>  <s_glide_docking_method>  (1) 
confgen

>  <s_i_glide_gridfile>  (1) 
gpcr_5ht2c_6bqh_protein_autoprepared_prepared

>  <s_lp_Force_Field>  (1) 
S-OPLS

>  <s_lp_Variant>  (1) 
DiffSBDD_19_num_sample_50-3

>  <s_m_source_file>  (1) 
generated__ligand_DiffSBDD_2026-05-06_prepared.sdf

>  <GenAI_Model>  (1) 
DiffSBDD

>  <Protein>  (1) 
GPCR_5HT2C

$$$$
DiffSBDD_7_num_sample_50
     RDKit          3D

  0  0  0  0  0  0  0  0  0  0999 V3000
M  V30 BEGIN CTAB
M  V30 COUNTS 93 96 0 0 1
M  V30 BEGIN ATOM
M  V30 1 C 39.142312 25.975449 55.961050 0 CFG=1
M  V30 2 O 40.578659 30.337223 61.405135 0
M  V30 3 C 38.726868 29.445016 54.953830 0 CFG=1
M  V30 4 C 38.811203 33.312791 60.545325 0
M  V30 5 O 37.109739 25.546133 57.141302 0 CHG=-1
M  V30 6 N 41.590290 35.162442 64.343232 0
M  V30 7 S 40.779057 29.709962 65.839775 0
M  V30 8 N 41.467355 26.537571 67.236826 0
M  V30 9 N 38.548687 31.855645 60.503683 0 CFG=1 CHG=1
M  V30 10 S 42.032887 27.089973 64.757404 0
M  V30 11 C 41.339371 35.810557 63.194600 0
M  V30 12 C 39.610062 29.137251 52.417547 0
M  V30 13 C 40.739838 28.933068 61.225953 0
M  V30 14 C 39.679848 30.687656 62.459361 0 CFG=1
M  V30 15 C 42.138466 28.449591 65.973025 0 CFG=2
M  V30 16 N 41.067416 36.421543 62.253474 0
M  V30 17 O 40.058187 33.620471 62.513971 0
M  V30 18 C 38.828189 30.613392 55.907313 0
M  V30 19 O 44.314476 25.595677 67.853555 0
M  V30 20 C 37.050474 27.877084 53.562819 0
M  V30 21 C 40.391128 31.511075 63.586486 0 CFG=2
M  V30 22 C 44.531666 26.957850 67.549479 0 CFG=1
M  V30 23 O 37.319210 24.688336 55.096335 0
M  V30 24 C 42.051140 27.850660 67.408728 0 CFG=2
M  V30 25 O 40.875827 24.908495 65.698226 0
M  V30 26 C 41.042046 32.896869 63.233676 0 CFG=2
M  V30 27 C 39.222049 27.456406 56.319060 0
M  V30 28 C 37.734128 25.350999 56.073987 0
M  V30 29 C 39.221915 29.372578 57.990167 0
M  V30 30 C 38.261926 30.328067 57.291376 0 CFG=1
M  V30 31 C 38.102348 31.649183 58.063056 0
M  V30 32 C 38.359068 31.255085 61.855793 0
M  V30 33 C 39.077869 27.931383 57.576142 0
M  V30 34 C 43.405248 27.822486 68.161512 0
M  V30 35 C 39.861554 25.621390 54.653340 0
M  V30 36 C 37.523135 29.224628 54.055999 0 CFG=2
M  V30 37 C 40.196610 33.570092 61.103385 0
M  V30 38 C 41.467528 33.726331 64.492811 0
M  V30 39 C 37.515604 31.516896 59.489733 0
M  V30 40 O 40.973955 30.727132 66.965490 0
M  V30 41 C 41.355062 30.572427 64.323983 0
M  V30 42 C 45.916601 27.343736 68.087841 0
M  V30 43 C 38.779736 29.838928 53.480305 0 CFG=1
M  V30 44 C 41.361464 25.995231 65.987056 0
M  V30 45 O 42.498655 30.408273 63.898317 0
M  V30 46 O 41.701616 33.207466 65.579504 0
M  V30 47 O 39.520627 28.278746 55.237450 0
M  V30 48 H 39.713981 25.473196 56.743176 0
M  V30 49 H 38.042019 33.840020 61.112660 0
M  V30 50 H 38.776629 33.740566 59.543967 0
M  V30 51 H 41.867277 35.722698 65.137023 0
M  V30 52 H 41.112857 26.011803 68.023062 0
M  V30 53 H 39.855073 28.113380 52.693050 0
M  V30 54 H 39.062380 29.117196 51.475082 0
M  V30 55 H 40.541624 29.678255 52.253575 0
M  V30 56 H 41.367372 28.740856 60.355641 0
M  V30 57 H 41.223610 28.478243 62.090662 0
M  V30 58 H 39.783519 28.433396 61.065684 0
M  V30 59 H 39.357669 29.770876 62.958451 0
M  V30 60 H 43.093323 28.959380 65.846101 0
M  V30 61 H 38.274535 31.448445 55.474752 0
M  V30 62 H 39.867305 30.939644 55.960140 0
M  V30 63 H 44.374486 25.477642 68.789247 0
M  V30 64 H 37.834976 27.304842 53.083228 0
M  V30 65 H 36.667405 27.292426 54.392950 0
M  V30 66 H 36.267412 28.021238 52.822570 0
M  V30 67 H 39.626449 31.727850 64.323479 0
M  V30 68 H 44.545674 27.068273 66.465375 0
M  V30 69 H 41.356831 28.423941 68.024715 0
M  V30 70 H 41.950274 32.759055 62.642813 0
M  V30 71 H 40.262802 29.673856 57.869504 0
M  V30 72 H 39.036402 29.377431 59.060428 0
M  V30 73 H 37.274098 29.870814 57.199088 0
M  V30 74 H 37.467370 32.320507 57.487296 0
M  V30 75 H 39.067424 32.149913 58.075537 0
M  V30 76 H 37.870569 31.951287 62.538716 0
M  V30 77 H 37.666379 30.421446 61.761544 0
M  V30 78 H 38.868646 27.232383 58.373531 0
M  V30 79 H 43.237672 27.521892 69.196938 0
M  V30 80 H 43.755003 28.854333 68.220487 0
M  V30 81 H 39.373234 26.041376 53.781663 0
M  V30 82 H 40.890869 25.978472 54.662460 0
M  V30 83 H 39.867404 24.541393 54.529116 0
M  V30 84 H 36.697225 29.904789 54.257736 0
M  V30 85 H 40.569538 34.516286 60.721527 0
M  V30 86 H 40.890558 32.805023 60.754762 0
M  V30 87 H 37.127941 30.508114 59.635445 0
M  V30 88 H 36.656884 32.180306 59.608324 0
M  V30 89 H 46.151725 28.382593 67.853535 0
M  V30 90 H 45.976561 27.229848 69.170703 0
M  V30 91 H 46.699078 26.727865 67.641663 0
M  V30 92 H 38.710771 30.906846 53.285139 0
M  V30 93 H 39.390143 31.409386 60.161359 0
M  V30 END ATOM
M  V30 BEGIN BOND
M  V30 1 1 9 4
M  V30 2 1 11 6
M  V30 3 1 13 2
M  V30 4 1 14 2
M  V30 5 1 15 7
M  V30 6 1 15 10
M  V30 7 3 16 11
M  V30 8 1 18 3
M  V30 9 1 21 14
M  V30 10 1 22 19
M  V30 11 1 24 8
M  V30 12 1 24 15
M  V30 13 1 26 17
M  V30 14 1 26 21
M  V30 15 1 27 1
M  V30 16 1 28 1
M  V30 17 1 28 5
M  V30 18 2 28 23
M  V30 19 1 30 18
M  V30 20 1 30 29
M  V30 21 1 31 30
M  V30 22 1 32 9
M  V30 23 1 32 14
M  V30 24 2 33 27
M  V30 25 1 33 29
M  V30 26 1 34 22
M  V30 27 1 34 24
M  V30 28 1 35 1
M  V30 29 1 36 3
M  V30 30 1 36 20
M  V30 31 1 37 4
M  V30 32 1 37 17
M  V30 33 1 38 6
M  V30 34 1 38 26
M  V30 35 1 39 9
M  V30 36 1 39 31
M  V30 37 2 40 7
M  V30 38 1 7 41 CFG=3
M  V30 39 1 41 21
M  V30 40 1 42 22
M  V30 41 1 43 3
M  V30 42 1 43 12
M  V30 43 1 43 36
M  V30 44 1 44 8
M  V30 45 1 44 10
M  V30 46 2 44 25
M  V30 47 2 45 41
M  V30 48 2 46 38
M  V30 49 1 3 47 CFG=1
M  V30 50 1 47 27
M  V30 51 1 1 48 CFG=1
M  V30 52 1 49 4
M  V30 53 1 50 4
M  V30 54 1 51 6
M  V30 55 1 52 8
M  V30 56 1 53 12
M  V30 57 1 54 12
M  V30 58 1 55 12
M  V30 59 1 56 13
M  V30 60 1 57 13
M  V30 61 1 58 13
M  V30 62 1 14 59 CFG=1
M  V30 63 1 15 60 CFG=1
M  V30 64 1 61 18
M  V30 65 1 62 18
M  V30 66 1 63 19
M  V30 67 1 64 20
M  V30 68 1 65 20
M  V30 69 1 66 20
M  V30 70 1 21 67 CFG=1
M  V30 71 1 22 68 CFG=3
M  V30 72 1 24 69 CFG=1
M  V30 73 1 26 70 CFG=3
M  V30 74 1 71 29
M  V30 75 1 72 29
M  V30 76 1 30 73 CFG=3
M  V30 77 1 74 31
M  V30 78 1 75 31
M  V30 79 1 76 32
M  V30 80 1 77 32
M  V30 81 1 78 33
M  V30 82 1 79 34
M  V30 83 1 80 34
M  V30 84 1 81 35
M  V30 85 1 82 35
M  V30 86 1 83 35
M  V30 87 1 36 84 CFG=1
M  V30 88 1 85 37
M  V30 89 1 86 37
M  V30 90 1 87 39
M  V30 91 1 88 39
M  V30 92 1 89 42
M  V30 93 1 90 42
M  V30 94 1 91 42
M  V30 95 1 43 92 CFG=1
M  V30 96 1 9 93 CFG=3
M  V30 END BOND
M  V30 END CTAB
M  END
>  <i_epik_Tot_Q>  (1) 
0

>  <i_epik_Tot_abs_Q>  (1) 
2

>  <i_i_glide_confnum>  (1) 
2032

>  <i_i_glide_lignum>  (1) 
25

>  <i_i_glide_posenum>  (1) 
18

>  <i_i_glide_rotatable_bonds>  (1) 
14

>  <i_lp_mmshare_version>  (1) 
72125

>  <i_m_source_file_index>  (1) 
8

>  <i_f3d_flags>  (1) 
0

>  <num_sample>  (1) 
50

>  <b_lp_Chiralities_Consistent>  (1) 
1

>  <r_epik_Charging_Adjusted_Penalty>  (1) 
2.2678334573304797

>  <r_epik_Ionization_Penalty>  (1) 
1.1498882506810455

>  <r_epik_Ionization_Penalty_Charging>  (1) 
1.1031410554290029

>  <r_epik_Ionization_Penalty_Neutral>  (1) 
0.046747195252042517

>  <r_epik_State_Penalty>  (1) 
1.164692401901477

>  <r_glide_ring_energy>  (1) 
0

>  <r_i_docking_score>  (1) 
-7.0760187274606094

>  <r_i_glide_ecoul>  (1) 
-6.5561118938342666

>  <r_i_glide_eff_state_penalty>  (1) 
1.164692401901477

>  <r_i_glide_einternal>  (1) 
19.343398915205711

>  <r_i_glide_emodel>  (1) 
-91.582282596547984

>  <r_i_glide_emodel_strain>  (1) 
3.321028589353034

>  <r_i_glide_energy>  (1) 
-70.909892763881643

>  <r_i_glide_erotb>  (1) 
0.2643022598508753

>  <r_i_glide_esite>  (1) 
0

>  <r_i_glide_evdw>  (1) 
-64.353780870047373

>  <r_i_glide_gscore>  (1) 
-8.2407111293620865

>  <r_i_glide_gscore_strain>  (1) 
0

>  <r_i_glide_hbond>  (1) 
-0.23745685335612529

>  <r_i_glide_ligand_efficiency>  (1) 
-0.1505535899459704

>  <r_i_glide_ligand_efficiency_ln>  (1) 
-1.458928533425613

>  <r_i_glide_ligand_efficiency_sa>  (1) 
-0.54332172185552485

>  <r_i_glide_lipo>  (1) 
-3.3177380110860009

>  <r_i_glide_metal>  (1) 
-0

>  <r_i_glide_rewards>  (1) 
-0.74871269719332556

>  <r_lp_Energy>  (1) 
33.837415

>  <s_epik_Chemistry_Notes>  (1) 
This compound contains an acetal/aminal-like group ( X-CH(R)-Y where X, Y are N, S, or O) that may be acid/base labile, releasing an aldehyde.

>  <s_epik_cmdline>  (1) 
J2VwaWtfcHl0aG9uJywgJy1waHQnLCAnMS4wJywgJy1waCcsICc3LjQnLCAnLXRuJywgJzgnLCAnLW1hJywgJzUwMCcsICctaW1hZScsICc8aW5maWxlLm1hZT4nLCAnLW9tYWUnLCAnPG91dGZpbGUubWFlPic=

>  <s_epik_input>  (1) 
W09IXUMoPU8pW0NAQEhdKFtDSDNdKUMoTzEpPVtDSF1bQ0gyXVtDQEhdKFtDSDJdW0NAXTEyW0NASF0oW0NIM10pW0NAQEhdMltDSDNdKVtDSDJdW0NIMl1OM1tDSDJdW0NIMl1PW0NAQEhdKEMoPU8pW05IXUMjTilbQ0BASF0oW0NAQEhdKFtDSDJdMylPW0NIM10pQyg9TylTKD1PKVtDQEBIXTRTQyg9TylbTkhdW0NASF00W0NIMl1bQ0BIXShbT0hdKVtDSDNd

>  <s_glide_docking_method>  (1) 
confgen

>  <s_i_glide_gridfile>  (1) 
gpcr_5ht2c_6bqh_protein_autoprepared_prepared

>  <s_lp_Force_Field>  (1) 
S-OPLS

>  <s_lp_Variant>  (1) 
DiffSBDD_7_num_sample_50-3

>  <s_m_source_file>  (1) 
generated__ligand_DiffSBDD_2026-05-06_prepared.sdf

>  <GenAI_Model>  (1) 
DiffSBDD

>  <Protein>  (1) 
GPCR_5HT2C

$$$$
DiffSBDD_41_num_sample_50
     RDKit          3D

  0  0  0  0  0  0  0  0  0  0999 V3000
M  V30 BEGIN CTAB
M  V30 COUNTS 83 87 0 0 1
M  V30 BEGIN ATOM
M  V30 1 C 41.718942 32.778863 65.913623 0
M  V30 2 C 42.307486 32.057514 64.700804 0 CFG=2
M  V30 3 C 37.665769 32.259253 58.473584 0
M  V30 4 C 38.098113 39.125224 60.322967 0
M  V30 5 C 42.388480 29.897174 66.088989 0 CFG=1
M  V30 6 O 41.405247 29.125531 65.424373 0
M  V30 7 O 41.544700 29.990949 68.326631 0
M  V30 8 C 38.922641 28.385171 52.235696 0
M  V30 9 C 41.457924 33.109513 62.565526 0
M  V30 10 C 38.993604 31.346996 56.630850 0
M  V30 11 C 34.796520 32.824119 60.392426 0
M  V30 12 C 38.423543 32.278968 61.777859 0
M  V30 13 C 41.372644 31.923076 63.449033 0 CFG=2
M  V30 14 C 39.646336 30.768648 53.118412 0
M  V30 15 F 39.052146 27.632794 51.143208 0
M  V30 16 O 37.139806 30.821286 60.362821 0
M  V30 17 C 36.845318 33.408428 59.073348 0 CFG=2
M  V30 18 C 39.025210 31.135169 62.617978 0
M  V30 19 C 39.085577 30.109794 57.315904 0
M  V30 20 C 43.118355 30.813794 65.114350 0 CFG=1
M  V30 21 O 43.590927 30.031718 64.035444 0
M  V30 22 F 39.313112 27.658660 53.281377 0
M  V30 23 C 36.772839 35.679672 60.097082 0 CFG=1
M  V30 24 C 37.022148 31.952056 61.203853 0 CFG=2
M  V30 25 C 39.836903 30.369252 54.584772 0
M  V30 26 N 34.267407 32.187994 59.453502 0
M  V30 27 F 37.640578 28.703557 52.387272 0
M  V30 28 O 37.659366 37.919935 59.709942 0
M  V30 29 C 41.478365 32.087788 67.139752 0
M  V30 30 C 37.755848 31.011464 59.148896 0
M  V30 31 C 37.512711 34.783583 59.111537 0
M  V30 32 C 40.901210 34.847892 66.933390 0
M  V30 33 C 38.289638 32.420292 57.217205 0
M  V30 34 O 39.581302 31.517039 55.393141 0
M  V30 35 C 36.275837 33.104290 60.479794 0 CFG=2
M  V30 36 S 36.415000 34.599834 61.453496 0
M  V30 37 C 40.667109 34.168436 68.140645 0
M  V30 38 C 41.467410 34.114665 61.871067 0
M  V30 39 C 41.772674 30.619380 67.294125 0
M  V30 40 C 37.549444 36.878453 60.655036 0
M  V30 41 C 39.905249 31.616862 63.792486 0
M  V30 42 C 39.785435 29.650939 52.055012 0
M  V30 43 C 38.468465 29.948333 58.567041 0
M  V30 44 C 41.426965 34.159641 65.824748 0
M  V30 45 C 40.954648 32.795539 68.245730 0
M  V30 46 H 43.067405 32.759067 64.401558 0
M  V30 47 H 38.327607 39.858325 59.554154 0
M  V30 48 H 37.318124 39.541098 60.962608 0
M  V30 49 H 38.994543 38.981114 60.929344 0
M  V30 50 H 43.116474 29.188437 66.487569 0
M  V30 51 H 41.015218 28.535742 66.054229 0
M  V30 52 H 34.202979 33.221548 61.220156 0
M  V30 53 H 38.363408 33.149008 62.425810 0
M  V30 54 H 39.108664 32.557733 60.977747 0
M  V30 55 H 41.744641 31.122785 62.812704 0
M  V30 56 H 38.667422 31.229363 53.053625 0
M  V30 57 H 40.343210 31.564748 52.866380 0
M  V30 58 H 36.037587 33.570741 58.357945 0
M  V30 59 H 39.565493 30.435236 61.979342 0
M  V30 60 H 38.218725 30.548757 63.053356 0
M  V30 61 H 39.628282 29.284849 56.882362 0
M  V30 62 H 44.010871 31.176709 65.629082 0
M  V30 63 H 42.903204 29.411143 63.832035 0
M  V30 64 H 35.828181 36.002489 59.660709 0
M  V30 65 H 36.409649 31.643658 62.049313 0
M  V30 66 H 40.850111 30.021442 54.772628 0
M  V30 67 H 39.136176 29.563876 54.802088 0
M  V30 68 H 33.267467 32.104618 59.543916 0
M  V30 69 H 38.540782 34.657867 59.453517 0
M  V30 70 H 37.467401 35.229869 58.120358 0
M  V30 71 H 40.680042 35.902927 66.857472 0
M  V30 72 H 38.209780 33.360468 56.692343 0
M  V30 73 H 40.265456 34.701901 68.990156 0
M  V30 74 H 41.467631 35.005989 61.283274 0
M  V30 75 H 37.015359 37.257342 61.529926 0
M  V30 76 H 38.540008 36.572886 60.996308 0
M  V30 77 H 39.863789 30.853466 64.564402 0
M  V30 78 H 39.468082 32.504352 64.247218 0
M  V30 79 H 39.529745 30.094587 51.092455 0
M  V30 80 H 40.826240 29.353683 51.953257 0
M  V30 81 H 38.536076 29.001123 59.081882 0
M  V30 82 H 41.609086 34.692231 64.903383 0
M  V30 83 H 40.772884 32.281043 69.176691 0
M  V30 END ATOM
M  V30 BEGIN BOND
M  V30 1 1 2 1
M  V30 2 1 6 5
M  V30 3 1 13 2
M  V30 4 1 13 9
M  V30 5 1 15 8
M  V30 6 1 17 3
M  V30 7 1 18 12
M  V30 8 1 19 10
M  V30 9 1 20 2
M  V30 10 1 20 5
M  V30 11 1 21 20
M  V30 12 1 22 8
M  V30 13 1 24 12
M  V30 14 1 24 16
M  V30 15 1 25 14
M  V30 16 2 26 11
M  V30 17 1 27 8
M  V30 18 1 28 4
M  V30 19 1 29 1
M  V30 20 2 30 3
M  V30 21 1 30 16
M  V30 22 1 31 17
M  V30 23 1 31 23
M  V30 24 1 33 3
M  V30 25 2 33 10
M  V30 26 1 34 10
M  V30 27 1 34 25
M  V30 28 1 35 11 CFG=3
M  V30 29 1 35 17
M  V30 30 1 35 24
M  V30 31 1 36 23
M  V30 32 1 36 35
M  V30 33 2 37 32
M  V30 34 3 38 9
M  V30 35 1 39 5
M  V30 36 2 39 7
M  V30 37 1 39 29
M  V30 38 1 40 23
M  V30 39 1 40 28
M  V30 40 1 41 13
M  V30 41 1 41 18
M  V30 42 1 42 8
M  V30 43 1 42 14
M  V30 44 2 43 19
M  V30 45 1 43 30
M  V30 46 2 44 1
M  V30 47 1 44 32
M  V30 48 2 45 29
M  V30 49 1 45 37
M  V30 50 1 2 46 CFG=3
M  V30 51 1 47 4
M  V30 52 1 48 4
M  V30 53 1 49 4
M  V30 54 1 5 50 CFG=1
M  V30 55 1 51 6
M  V30 56 1 52 11
M  V30 57 1 53 12
M  V30 58 1 54 12
M  V30 59 1 13 55 CFG=3
M  V30 60 1 56 14
M  V30 61 1 57 14
M  V30 62 1 17 58 CFG=3
M  V30 63 1 59 18
M  V30 64 1 60 18
M  V30 65 1 61 19
M  V30 66 1 20 62 CFG=1
M  V30 67 1 63 21
M  V30 68 1 23 64 CFG=3
M  V30 69 1 24 65 CFG=1
M  V30 70 1 66 25
M  V30 71 1 67 25
M  V30 72 1 68 26
M  V30 73 1 69 31
M  V30 74 1 70 31
M  V30 75 1 71 32
M  V30 76 1 72 33
M  V30 77 1 73 37
M  V30 78 1 74 38
M  V30 79 1 75 40
M  V30 80 1 76 40
M  V30 81 1 77 41
M  V30 82 1 78 41
M  V30 83 1 79 42
M  V30 84 1 80 42
M  V30 85 1 81 43
M  V30 86 1 82 44
M  V30 87 1 83 45
M  V30 END BOND
M  V30 END CTAB
M  END
>  <i_epik_Tot_Q>  (1) 
0

>  <i_epik_Tot_abs_Q>  (1) 
0

>  <i_i_glide_confnum>  (1) 
1344

>  <i_i_glide_lignum>  (1) 
99

>  <i_i_glide_posenum>  (1) 
84

>  <i_i_glide_rotatable_bonds>  (1) 
16

>  <i_lp_mmshare_version>  (1) 
72125

>  <i_m_source_file_index>  (1) 
42

>  <i_f3d_flags>  (1) 
0

>  <num_sample>  (1) 
50

>  <b_lp_Chiralities_Consistent>  (1) 
1

>  <r_epik_Charging_Adjusted_Penalty>  (1) 
0.41067983895260396

>  <r_epik_Ionization_Penalty>  (1) 
0.0048607436090088536

>  <r_epik_Ionization_Penalty_Charging>  (1) 
0

>  <r_epik_Ionization_Penalty_Neutral>  (1) 
0.0048607436090088536

>  <r_epik_State_Penalty>  (1) 
0.41067983895260396

>  <r_glide_ring_energy>  (1) 
0.56107915077032222

>  <r_i_docking_score>  (1) 
-7.0534690392783315

>  <r_i_glide_ecoul>  (1) 
1.7026035858054729

>  <r_i_glide_eff_state_penalty>  (1) 
0.41067983895260396

>  <r_i_glide_einternal>  (1) 
11.099332927432673

>  <r_i_glide_emodel>  (1) 
-47.922466741802566

>  <r_i_glide_emodel_strain>  (1) 
1.8166929030038972

>  <r_i_glide_energy>  (1) 
-41.388767872876691

>  <r_i_glide_erotb>  (1) 
0.41134081239429626

>  <r_i_glide_esite>  (1) 
0

>  <r_i_glide_evdw>  (1) 
-43.091371458682161

>  <r_i_glide_gscore>  (1) 
-7.4641488782309358

>  <r_i_glide_gscore_strain>  (1) 
0

>  <r_i_glide_hbond>  (1) 
-0.0030684508324799239

>  <r_i_glide_ligand_efficiency>  (1) 
-0.15674375642840738

>  <r_i_glide_ligand_efficiency_ln>  (1) 
-1.4674358880594864

>  <r_i_glide_ligand_efficiency_sa>  (1) 
-0.55752081776082341

>  <r_i_glide_lipo>  (1) 
-4.0973168249128511

>  <r_i_glide_metal>  (1) 
-0

>  <r_i_glide_rewards>  (1) 
-1.8759263798166133

>  <r_lp_Energy>  (1) 
49.308972999999995

>  <r_lp_tautomer_probability>  (1) 
0.5

>  <s_epik_Chemistry_Notes>  (1) 
This compound has an imine and may undergo hydrolysis.

>  <s_epik_cmdline>  (1) 
J2VwaWtfcHl0aG9uJywgJy1waHQnLCAnMS4wJywgJy1waCcsICc3LjQnLCAnLXRuJywgJzgnLCAnLW1hJywgJzUwMCcsICctaW1hZScsICc8aW5maWxlLm1hZT4nLCAnLW9tYWUnLCAnPG91dGZpbGUubWFlPic=

>  <s_epik_input>  (1) 
W2NIXTFbY0hdW2NIXVtjSF1jKGMxMilDKD1PKVtDQEBIXShbT0hdKVtDQEBIXShbT0hdKVtDQEBIXTJbQ0BASF0oQyNbQ0hdKVtDSDJdW0NIMl1bQ0gyXVtDQEBIXTNPYyhjNFtDQEBIXShbQ0BAXTM1L1tDSF09Ti9bSF0pW0NIMl1bQ0BASF0oUzUpW0NIMl1PW0NIM10pW2NIXVtjSF1jKFtjSF00KU9bQ0gyXVtDSDJdW0NIMl1DKEYpKEYpRg==

>  <s_glide_docking_method>  (1) 
confgen

>  <s_i_glide_gridfile>  (1) 
gpcr_5ht2c_6bqh_protein_autoprepared_prepared

>  <s_lp_Force_Field>  (1) 
S-OPLS

>  <s_lp_Variant>  (1) 
DiffSBDD_41_num_sample_50-4

>  <s_m_source_file>  (1) 
generated__ligand_DiffSBDD_2026-05-06_prepared.sdf

>  <GenAI_Model>  (1) 
DiffSBDD

>  <Protein>  (1) 
GPCR_5HT2C

$$$$
DiffSBDD_23_num_sample_50
     RDKit          3D

  0  0  0  0  0  0  0  0  0  0999 V3000
M  V30 BEGIN CTAB
M  V30 COUNTS 60 64 0 0 1
M  V30 BEGIN ATOM
M  V30 1 C 44.211164 32.577137 67.478171 0
M  V30 2 C 38.434452 30.838717 57.835687 0 CFG=2
M  V30 3 C 40.817978 35.247387 65.347230 0
M  V30 4 C 40.369309 33.479843 62.477362 0 CFG=1
M  V30 5 S 39.402139 26.840161 58.237624 0
M  V30 6 C 41.761745 34.206227 65.323175 0
M  V30 7 C 43.130299 32.428584 66.442726 0
M  V30 8 N 38.266243 27.074628 55.920815 0
M  V30 9 C 39.002419 28.439310 57.641790 0
M  V30 10 C 37.931926 29.560179 55.606550 0
M  V30 11 S 38.633138 31.378411 61.756593 0
M  V30 12 O 39.077721 30.826721 63.043477 0
M  V30 13 C 40.639353 35.044490 67.761767 0
M  V30 14 C 39.308840 29.680122 58.407835 0 CFG=2
M  V30 15 N 39.180492 33.034494 61.698836 0
M  V30 16 C 40.268711 35.670625 66.562728 0
M  V30 17 C 42.139310 33.556562 66.519255 0
M  V30 18 C 38.918457 35.360077 60.932061 0
M  V30 19 C 43.762530 31.811951 68.699050 0
M  V30 20 O 44.327577 30.764152 69.005378 0
M  V30 21 Cl 41.773368 32.563954 61.861837 0
M  V30 22 C 41.890907 33.338978 69.119466 0
M  V30 23 S 40.282879 36.014702 63.836280 0
M  V30 24 N 39.478793 30.829176 60.498406 0 CHG=-1
M  V30 25 O 37.192004 31.402629 61.450236 0
M  V30 26 N 42.720557 32.394186 69.397936 0
M  V30 27 C 38.753676 33.883011 60.579643 0
M  V30 28 C 38.404458 28.382444 56.404163 0
M  V30 29 C 38.745038 26.171948 56.768590 0
M  V30 30 O 40.298753 35.582266 61.157748 0
M  V30 31 C 41.569509 33.975939 67.770579 0
M  V30 32 N 39.200700 29.579483 59.865455 0
M  V30 33 N 37.068082 30.705314 58.360250 0 CHG=1
M  V30 34 C 40.729255 35.003261 62.381211 0 CFG=2
M  V30 35 C 38.417430 30.870523 56.276816 0
M  V30 36 H 44.446218 33.616722 67.702153 0
M  V30 37 H 45.133761 32.120505 67.117484 0
M  V30 38 H 38.811084 31.802803 58.175540 0
M  V30 39 H 40.224594 33.162244 63.505817 0
M  V30 40 H 42.190134 33.889574 64.386386 0
M  V30 41 H 43.597179 32.434643 65.456649 0
M  V30 42 H 42.598764 31.475392 66.508759 0
M  V30 43 H 38.272663 29.505834 54.572363 0
M  V30 44 H 36.842221 29.591338 55.571181 0
M  V30 45 H 40.200894 35.378781 68.689697 0
M  V30 46 H 40.349394 29.915336 58.193040 0
M  V30 47 H 39.546134 36.473434 66.575940 0
M  V30 48 H 38.320576 35.642123 61.799889 0
M  V30 49 H 38.578506 35.990931 60.112332 0
M  V30 50 H 41.317410 33.761327 69.948412 0
M  V30 51 H 37.712844 33.670587 60.335391 0
M  V30 52 H 39.348808 33.634352 59.700314 0
M  V30 53 H 38.706512 25.119585 56.530551 0
M  V30 54 H 38.287140 29.250169 60.142063 0
M  V30 55 H 36.750179 29.758221 58.237498 0
M  V30 56 H 37.092234 30.931679 59.347670 0
M  V30 57 H 41.816444 35.091588 62.366770 0
M  V30 58 H 39.441976 31.054717 55.950163 0
M  V30 59 H 37.837209 31.717243 55.906481 0
M  V30 60 H 36.416754 31.318508 57.853497 0
M  V30 END ATOM
M  V30 BEGIN BOND
M  V30 1 2 6 3
M  V30 2 1 7 1
M  V30 3 1 9 5
M  V30 4 2 12 11
M  V30 5 1 14 2
M  V30 6 1 14 9
M  V30 7 1 15 4
M  V30 8 1 15 11
M  V30 9 1 16 3
M  V30 10 2 16 13
M  V30 11 1 17 6
M  V30 12 1 17 7
M  V30 13 1 19 1
M  V30 14 2 20 19
M  V30 15 1 21 4
M  V30 16 1 23 3
M  V30 17 1 24 11
M  V30 18 2 25 11
M  V30 19 1 26 19
M  V30 20 2 26 22
M  V30 21 1 27 15
M  V30 22 1 27 18
M  V30 23 1 28 8
M  V30 24 2 28 9
M  V30 25 1 28 10
M  V30 26 1 29 5
M  V30 27 2 29 8
M  V30 28 1 30 18
M  V30 29 1 31 13
M  V30 30 2 31 17
M  V30 31 1 31 22
M  V30 32 1 32 14
M  V30 33 1 32 24
M  V30 34 1 33 2
M  V30 35 1 34 4
M  V30 36 1 34 23
M  V30 37 1 34 30
M  V30 38 1 35 2
M  V30 39 1 35 10
M  V30 40 1 36 1
M  V30 41 1 37 1
M  V30 42 1 2 38 CFG=1
M  V30 43 1 4 39 CFG=1
M  V30 44 1 40 6
M  V30 45 1 41 7
M  V30 46 1 42 7
M  V30 47 1 43 10
M  V30 48 1 44 10
M  V30 49 1 45 13
M  V30 50 1 14 46 CFG=1
M  V30 51 1 47 16
M  V30 52 1 48 18
M  V30 53 1 49 18
M  V30 54 1 50 22
M  V30 55 1 51 27
M  V30 56 1 52 27
M  V30 57 1 53 29
M  V30 58 1 54 32
M  V30 59 1 55 33
M  V30 60 1 56 33
M  V30 61 1 34 57 CFG=3
M  V30 62 1 58 35
M  V30 63 1 59 35
M  V30 64 1 60 33
M  V30 END BOND
M  V30 END CTAB
M  END
>  <i_epik_Tot_Q>  (1) 
0

>  <i_epik_Tot_abs_Q>  (1) 
2

>  <i_i_glide_confnum>  (1) 
345

>  <i_i_glide_lignum>  (1) 
65

>  <i_i_glide_posenum>  (1) 
87

>  <i_i_glide_rotatable_bonds>  (1) 
6

>  <i_lp_mmshare_version>  (1) 
72125

>  <i_m_source_file_index>  (1) 
24

>  <i_f3d_flags>  (1) 
0

>  <num_sample>  (1) 
50

>  <b_lp_Chiralities_Consistent>  (1) 
1

>  <r_epik_Charging_Adjusted_Penalty>  (1) 
2.2272092532468064

>  <r_epik_Ionization_Penalty>  (1) 
1.0462412004884125

>  <r_epik_Ionization_Penalty_Charging>  (1) 
1.0439143913358477

>  <r_epik_Ionization_Penalty_Neutral>  (1) 
0.002326809152564684

>  <r_epik_State_Penalty>  (1) 
1.1832948619109587

>  <r_glide_ring_energy>  (1) 
1.4722824389510294

>  <r_i_docking_score>  (1) 
-7.0527503086825103

>  <r_i_glide_ecoul>  (1) 
-7.1183260437460438

>  <r_i_glide_eff_state_penalty>  (1) 
1.1832948619109587

>  <r_i_glide_einternal>  (1) 
2.2112267760500028

>  <r_i_glide_emodel>  (1) 
-88.226394874419384

>  <r_i_glide_emodel_strain>  (1) 
2.839411444663142

>  <r_i_glide_energy>  (1) 
-58.407056296372069

>  <r_i_glide_erotb>  (1) 
0.32509228849270932

>  <r_i_glide_esite>  (1) 
-0.13609144572348139

>  <r_i_glide_evdw>  (1) 
-51.288730252626024

>  <r_i_glide_gscore>  (1) 
-8.236045170593469

>  <r_i_glide_gscore_strain>  (1) 
0

>  <r_i_glide_hbond>  (1) 
-0.19495593585700016

>  <r_i_glide_ligand_efficiency>  (1) 
-0.20150715167664315

>  <r_i_glide_ligand_efficiency_ln>  (1) 
-1.5482352201154412

>  <r_i_glide_ligand_efficiency_sa>  (1) 
-0.65914325511152971

>  <r_i_glide_lipo>  (1) 
-3.2238787335812584

>  <r_i_glide_metal>  (1) 
-0

>  <r_i_glide_rewards>  (1) 
-1.3740259247312301

>  <r_lp_Energy>  (1) 
42.677467

>  <s_epik_Chemistry_Notes>  (1) 
This compound has an imine and may undergo hydrolysis. This compound contains an acetal/aminal-like group ( X-CH(R)-Y where X, Y are N, S, or O) that may be acid/base labile, releasing an aldehyde.

>  <s_epik_cmdline>  (1) 
J2VwaWtfcHl0aG9uJywgJy1waHQnLCAnMS4wJywgJy1waCcsICc3LjQnLCAnLXRuJywgJzgnLCAnLW1hJywgJzUwMCcsICctaW1hZScsICc8aW5maWxlLm1hZT4nLCAnLW9tYWUnLCAnPG91dGZpbGUubWFlPic=

>  <s_epik_input>  (1) 
W0NIMl0xW0NIMl1DKD1PKU49W0NIXWMoYzEyKVtjSF1bY0hdYyhbY0hdMilTW0NAQEhdM09bQ0gyXVtDSDJdTihbQ0BIXTNDbClTKD1PKSg9TylbTkhdW05IXVtDQEBIXTRbQ0BASF0oW05IMl0pW0NIMl1bQ0gyXWMoYzQ1KW5bY0hdczU=

>  <s_glide_docking_method>  (1) 
confgen

>  <s_i_glide_gridfile>  (1) 
gpcr_5ht2c_6bqh_protein_autoprepared_prepared

>  <s_lp_Force_Field>  (1) 
S-OPLS

>  <s_lp_Variant>  (1) 
DiffSBDD_23_num_sample_50-4

>  <s_m_source_file>  (1) 
generated__ligand_DiffSBDD_2026-05-06_prepared.sdf

>  <GenAI_Model>  (1) 
DiffSBDD

>  <Protein>  (1) 
GPCR_5HT2C

$$$$
DiffSBDD_48_num_sample_50
     RDKit          3D

  0  0  0  0  0  0  0  0  0  0999 V3000
M  V30 BEGIN CTAB
M  V30 COUNTS 84 87 0 0 1
M  V30 BEGIN ATOM
M  V30 1 N 38.362876 36.369174 62.353072 0
M  V30 2 C 39.379816 28.631920 55.848692 0
M  V30 3 O 38.868709 25.620851 57.926310 0
M  V30 4 C 37.711557 28.421101 52.316940 0
M  V30 5 S 36.992271 31.416486 60.354832 0
M  V30 6 C 37.882287 29.719973 58.461022 0 CFG=2
M  V30 7 C 42.315199 32.532677 66.773258 0
M  V30 8 C 39.240172 27.871514 57.195379 0 CFG=1
M  V30 9 C 36.600632 30.055860 59.240927 0
M  V30 10 C 41.895196 34.504447 65.481236 0
M  V30 11 C 39.709261 31.701728 60.981414 0
M  V30 12 C 37.894291 38.952071 60.751789 0
M  V30 13 C 42.009726 35.576652 64.413656 0
M  V30 14 C 38.376405 36.724221 63.686718 0
M  V30 15 C 37.971737 28.248976 58.013081 0
M  V30 16 C 40.494628 33.052427 68.443302 0
M  V30 17 C 38.329241 28.285537 54.774370 0
M  V30 18 C 39.650377 36.422057 64.412114 0
M  V30 19 C 38.562215 29.011154 53.445338 0
M  V30 20 N 40.655790 35.669846 62.411994 0
M  V30 21 C 40.078305 33.188706 61.010180 0
M  V30 22 C 36.732650 38.048764 61.189581 0
M  V30 23 C 38.726689 31.362498 59.851878 0 CFG=1
M  V30 24 O 37.396099 37.221425 64.218718 0
M  V30 25 C 39.430741 35.588637 61.688529 0 CFG=1
M  V30 26 C 39.985288 35.513891 66.849861 0
M  V30 27 C 39.719362 36.714732 65.915707 0
M  V30 28 N 38.964575 30.010517 59.387990 0
M  V30 29 C 37.144408 36.592066 61.539552 0
M  V30 30 C 41.067471 34.484822 66.481446 0
M  V30 31 C 39.374178 26.336108 57.032860 0
M  V30 32 N 41.237336 33.412646 67.251615 0
M  V30 33 C 35.785482 38.741289 62.191112 0
M  V30 34 C 42.833273 33.315712 65.430591 0
M  V30 35 C 39.016304 34.098705 61.642757 0
M  V30 36 C 40.697025 35.922402 63.741532 0
M  V30 37 O 39.981341 25.917947 56.021785 0 CHG=-1
M  V30 38 H 39.367479 29.706124 56.029458 0
M  V30 39 H 40.374946 28.431686 55.453497 0
M  V30 40 H 37.867515 28.977036 51.396261 0
M  V30 41 H 37.984322 27.383778 52.119876 0
M  V30 42 H 36.649462 28.444762 52.560482 0
M  V30 43 H 37.958217 30.386404 57.600645 0
M  V30 44 H 41.936527 31.537272 66.540550 0
M  V30 45 H 43.103642 32.450428 67.522174 0
M  V30 46 H 40.105931 28.148345 57.798163 0
M  V30 47 H 36.276930 29.221432 59.853104 0
M  V30 48 H 35.773176 30.316573 58.585319 0
M  V30 49 H 40.638403 31.153895 60.814929 0
M  V30 50 H 39.339054 31.362764 61.950192 0
M  V30 51 H 38.727080 38.939628 61.453438 0
M  V30 52 H 38.267383 38.631961 59.781317 0
M  V30 53 H 37.566622 39.986466 60.643288 0
M  V30 54 H 42.667394 35.178164 63.649058 0
M  V30 55 H 42.532234 36.421426 64.841725 0
M  V30 56 H 37.945616 27.641749 58.914683 0
M  V30 57 H 37.075616 27.983734 57.453538 0
M  V30 58 H 40.088049 32.061495 68.253532 0
M  V30 59 H 41.161472 32.994200 69.303591 0
M  V30 60 H 39.674255 33.724714 68.688236 0
M  V30 61 H 38.324996 27.211168 54.588654 0
M  V30 62 H 37.335022 28.537727 55.132145 0
M  V30 63 H 41.469001 35.267888 61.970947 0
M  V30 64 H 38.341177 30.073168 53.565223 0
M  V30 65 H 39.611073 28.944279 53.158563 0
M  V30 66 H 40.266973 33.533476 59.996736 0
M  V30 67 H 41.019892 33.280459 61.552309 0
M  V30 68 H 36.107781 37.936423 60.303427 0
M  V30 69 H 38.868308 32.032557 59.002144 0
M  V30 70 H 39.597057 35.975442 60.682043 0
M  V30 71 H 40.260548 35.922753 67.823061 0
M  V30 72 H 39.046068 34.992924 67.036692 0
M  V30 73 H 40.507528 37.439540 66.094042 0
M  V30 74 H 38.814866 37.220199 66.255367 0
M  V30 75 H 38.896419 29.377031 60.171422 0
M  V30 76 H 37.266108 36.071641 60.588663 0
M  V30 77 H 36.313853 36.076826 62.024489 0
M  V30 78 H 36.267399 39.078901 63.100615 0
M  V30 79 H 35.347917 39.631078 61.742803 0
M  V30 80 H 34.964508 38.088817 62.486137 0
M  V30 81 H 42.667430 32.732811 64.523685 0
M  V30 82 H 43.873328 33.621412 65.507244 0
M  V30 83 H 38.816197 33.742351 62.653590 0
M  V30 84 H 38.080739 33.993550 61.094668 0
M  V30 END ATOM
M  V30 BEGIN BOND
M  V30 1 1 8 2
M  V30 2 1 9 5
M  V30 3 1 9 6
M  V30 4 1 13 10
M  V30 5 1 14 1
M  V30 6 1 15 6
M  V30 7 1 15 8
M  V30 8 1 17 2
M  V30 9 1 18 14
M  V30 10 1 19 4
M  V30 11 1 19 17
M  V30 12 1 21 11
M  V30 13 1 22 12
M  V30 14 1 23 5
M  V30 15 1 23 11
M  V30 16 2 24 14
M  V30 17 1 25 1
M  V30 18 1 25 20
M  V30 19 1 27 18
M  V30 20 1 27 26
M  V30 21 1 28 6
M  V30 22 1 28 23
M  V30 23 1 29 1
M  V30 24 1 29 22
M  V30 25 2 30 10
M  V30 26 1 30 26
M  V30 27 2 31 3
M  V30 28 1 31 8
M  V30 29 1 32 7
M  V30 30 1 32 16
M  V30 31 1 32 30
M  V30 32 1 33 22
M  V30 33 1 34 7
M  V30 34 1 34 10
M  V30 35 1 35 21
M  V30 36 1 35 25
M  V30 37 1 36 13
M  V30 38 2 36 18
M  V30 39 1 36 20
M  V30 40 1 37 31
M  V30 41 1 38 2
M  V30 42 1 39 2
M  V30 43 1 40 4
M  V30 44 1 41 4
M  V30 45 1 42 4
M  V30 46 1 6 43 CFG=3
M  V30 47 1 44 7
M  V30 48 1 45 7
M  V30 49 1 8 46 CFG=1
M  V30 50 1 47 9
M  V30 51 1 48 9
M  V30 52 1 49 11
M  V30 53 1 50 11
M  V30 54 1 51 12
M  V30 55 1 52 12
M  V30 56 1 53 12
M  V30 57 1 54 13
M  V30 58 1 55 13
M  V30 59 1 56 15
M  V30 60 1 57 15
M  V30 61 1 58 16
M  V30 62 1 59 16
M  V30 63 1 60 16
M  V30 64 1 61 17
M  V30 65 1 62 17
M  V30 66 1 63 20
M  V30 67 1 64 19
M  V30 68 1 65 19
M  V30 69 1 66 21
M  V30 70 1 67 21
M  V30 71 1 68 22
M  V30 72 1 23 69 CFG=3
M  V30 73 1 25 70 CFG=3
M  V30 74 1 71 26
M  V30 75 1 72 26
M  V30 76 1 73 27
M  V30 77 1 74 27
M  V30 78 1 75 28
M  V30 79 1 76 29
M  V30 80 1 77 29
M  V30 81 1 78 33
M  V30 82 1 79 33
M  V30 83 1 80 33
M  V30 84 1 81 34
M  V30 85 1 82 34
M  V30 86 1 83 35
M  V30 87 1 84 35
M  V30 END BOND
M  V30 END CTAB
M  END
>  <i_epik_Tot_Q>  (1) 
-1

>  <i_epik_Tot_abs_Q>  (1) 
1

>  <i_i_glide_confnum>  (1) 
826

>  <i_i_glide_lignum>  (1) 
109

>  <i_i_glide_posenum>  (1) 
267

>  <i_i_glide_rotatable_bonds>  (1) 
12

>  <i_lp_mmshare_version>  (1) 
72125

>  <i_m_source_file_index>  (1) 
49

>  <i_f3d_flags>  (1) 
0

>  <num_sample>  (1) 
50

>  <b_lp_Chiralities_Consistent>  (1) 
1

>  <r_epik_Charging_Adjusted_Penalty>  (1) 
0.0013214273227819019

>  <r_epik_Ionization_Penalty>  (1) 
0.0045694995394012904

>  <r_epik_Ionization_Penalty_Charging>  (1) 
0.0013214273227819019

>  <r_epik_Ionization_Penalty_Neutral>  (1) 
0.0032480722166193885

>  <r_epik_State_Penalty>  (1) 
-0

>  <r_glide_ring_energy>  (1) 
1.2111851229297446

>  <r_i_docking_score>  (1) 
-7.0520760236228233

>  <r_i_glide_ecoul>  (1) 
-0.11349244503225828

>  <r_i_glide_eff_state_penalty>  (1) 
-0

>  <r_i_glide_einternal>  (1) 
13.100336894132367

>  <r_i_glide_emodel>  (1) 
-39.942696692273977

>  <r_i_glide_emodel_strain>  (1) 
1.4466325400083804

>  <r_i_glide_energy>  (1) 
-39.493316327998194

>  <r_i_glide_erotb>  (1) 
0.6562967932688043

>  <r_i_glide_esite>  (1) 
0

>  <r_i_glide_evdw>  (1) 
-39.379823882965937

>  <r_i_glide_gscore>  (1) 
-7.0520760236228233

>  <r_i_glide_gscore_strain>  (1) 
0

>  <r_i_glide_hbond>  (1) 
0

>  <r_i_glide_ligand_efficiency>  (1) 
-0.19059664928710332

>  <r_i_glide_ligand_efficiency_ln>  (1) 
-1.5294299654054495

>  <r_i_glide_ligand_efficiency_sa>  (1) 
-0.63511031960498587

>  <r_i_glide_lipo>  (1) 
-3.7492429017747586

>  <r_i_glide_metal>  (1) 
-0

>  <r_i_glide_rewards>  (1) 
-1.9731148542137338

>  <r_lp_Energy>  (1) 
18.394539999999999

>  <r_lp_tautomer_probability>  (1) 
1

>  <s_epik_Chemistry_Notes>  (1) 
This compound has an imine and may undergo hydrolysis. This compound contains an acetal/aminal-like group ( X-CH(R)-Y where X, Y are N, S, or O) that may be acid/base labile, releasing an aldehyde.

>  <s_epik_cmdline>  (1) 
J2VwaWtfcHl0aG9uJywgJy1waHQnLCAnMS4wJywgJy1waCcsICc3LjQnLCAnLXRuJywgJzgnLCAnLW1hJywgJzUwMCcsICctaW1hZScsICc8aW5maWxlLm1hZT4nLCAnLW9tYWUnLCAnPG91dGZpbGUubWFlPic=

>  <s_epik_input>  (1) 
W0NIMl0xW0NIMl1OKFtDSDNdKUMoPUMxMilbQ0gyXVtDSDJdW0NAQEhdM0MoW0NIMl0yKT1OW0NASF0oTihDMz1PKVtDSDJdW0NIXShbQ0gzXSlbQ0gzXSlbQ0gyXVtDSDJdW0NIMl1bQ0BASF0oW05IXTQpU1tDSDJdW0NAQEhdNFtDSDJdW0NAQEhdKEMoPU8pW09IXSlbQ0gyXVtDSDJdW0NIMl1bQ0gzXQ==

>  <s_glide_docking_method>  (1) 
confgen

>  <s_i_glide_gridfile>  (1) 
gpcr_5ht2c_6bqh_protein_autoprepared_prepared

>  <s_lp_Force_Field>  (1) 
S-OPLS

>  <s_lp_Variant>  (1) 
DiffSBDD_48_num_sample_50-1

>  <s_m_source_file>  (1) 
generated__ligand_DiffSBDD_2026-05-06_prepared.sdf

>  <GenAI_Model>  (1) 
DiffSBDD

>  <Protein>  (1) 
GPCR_5HT2C

$$$$
DiffSBDD_32_num_sample_50
     RDKit          3D

  0  0  0  0  0  0  0  0  0  0999 V3000
M  V30 BEGIN CTAB
M  V30 COUNTS 51 54 0 0 1
M  V30 BEGIN ATOM
M  V30 1 C 37.184033 32.821761 61.025321 0
M  V30 2 O 37.467416 27.195708 53.758138 0
M  V30 3 C 38.497202 29.628097 57.346371 0
M  V30 4 C 38.709672 29.544153 55.062765 0
M  V30 5 C 39.877363 29.679666 51.429160 0
M  V30 6 C 36.658074 36.804148 59.839858 0
M  V30 7 N 35.867391 34.499543 59.871467 0
M  V30 8 C 38.516597 27.694338 51.682334 0
M  V30 9 C 38.526785 28.685515 56.313111 0
M  V30 10 C 36.828896 35.362726 60.274958 0
M  V30 11 C 38.879606 29.165960 53.620967 0
M  V30 12 C 38.859154 33.044333 58.301062 0
M  V30 13 C 39.661381 30.005505 52.780718 0
M  V30 14 N 38.402672 29.286234 58.598476 0
M  V30 15 N 38.128887 33.692460 61.453502 0
M  V30 16 N 38.628985 30.868160 57.060083 0
M  V30 17 C 36.062679 33.221624 60.256201 0
M  V30 18 C 39.313289 28.522602 50.888513 0
M  V30 19 C 38.485528 27.171413 56.283114 0
M  V30 20 C 38.286802 28.001981 53.036423 0
M  V30 21 C 37.942397 34.973931 61.056992 0
M  V30 22 F 38.854526 35.907382 61.419026 0
M  V30 23 C 38.605551 30.717884 60.700998 0
M  V30 24 C 40.722966 30.583290 50.558529 0
M  V30 25 C 38.667260 31.570218 58.228153 0
M  V30 26 C 38.545306 30.574739 59.198455 0
M  V30 27 C 37.399327 31.363695 61.408621 0
M  V30 28 S 38.788534 31.360242 55.498152 0
M  V30 29 N 35.111670 32.291959 59.853505 0
M  V30 30 H 37.067336 26.520136 53.229820 0
M  V30 31 H 37.608923 37.219958 59.505745 0
M  V30 32 H 35.950139 36.879056 59.013518 0
M  V30 33 H 36.286320 37.409462 60.666597 0
M  V30 34 H 38.064803 26.821431 51.247136 0
M  V30 35 H 37.909400 33.571391 58.236545 0
M  V30 36 H 39.391608 33.334504 59.203521 0
M  V30 37 H 39.467403 33.372427 57.463033 0
M  V30 38 H 40.113713 30.897892 53.186147 0
M  V30 39 H 39.478144 28.275863 49.853503 0
M  V30 40 H 38.853515 26.794991 57.237556 0
M  V30 41 H 37.467407 26.800774 56.175501 0
M  V30 42 H 39.142019 26.760380 55.516761 0
M  V30 43 H 38.756276 29.731123 61.140298 0
M  V30 44 H 39.503228 31.278026 60.964075 0
M  V30 45 H 40.576736 31.620968 50.850109 0
M  V30 46 H 41.780976 30.338901 50.653491 0
M  V30 47 H 40.443862 30.490475 49.508662 0
M  V30 48 H 36.513165 30.756526 61.238226 0
M  V30 49 H 37.576136 31.337387 62.483728 0
M  V30 50 H 35.283149 31.304358 59.960078 0
M  V30 51 H 34.420642 32.546779 59.161763 0
M  V30 END ATOM
M  V30 BEGIN BOND
M  V30 1 1 9 3
M  V30 2 2 9 4
M  V30 3 1 10 6
M  V30 4 2 10 7
M  V30 5 1 11 4
M  V30 6 2 13 5
M  V30 7 1 13 11
M  V30 8 2 14 3
M  V30 9 1 15 1
M  V30 10 1 16 3
M  V30 11 2 17 1
M  V30 12 1 17 7
M  V30 13 1 18 5
M  V30 14 2 18 8
M  V30 15 1 19 9
M  V30 16 1 20 2
M  V30 17 1 20 8
M  V30 18 2 20 11
M  V30 19 1 21 10
M  V30 20 2 21 15
M  V30 21 1 22 21
M  V30 22 1 24 5
M  V30 23 1 25 12
M  V30 24 1 25 16
M  V30 25 1 26 14
M  V30 26 1 26 23
M  V30 27 2 26 25
M  V30 28 1 27 1
M  V30 29 1 27 23
M  V30 30 1 28 4
M  V30 31 1 28 16
M  V30 32 1 29 17
M  V30 33 1 30 2
M  V30 34 1 31 6
M  V30 35 1 32 6
M  V30 36 1 33 6
M  V30 37 1 34 8
M  V30 38 1 35 12
M  V30 39 1 36 12
M  V30 40 1 37 12
M  V30 41 1 38 13
M  V30 42 1 39 18
M  V30 43 1 40 19
M  V30 44 1 41 19
M  V30 45 1 42 19
M  V30 46 1 43 23
M  V30 47 1 44 23
M  V30 48 1 45 24
M  V30 49 1 46 24
M  V30 50 1 47 24
M  V30 51 1 48 27
M  V30 52 1 49 27
M  V30 53 1 50 29
M  V30 54 1 51 29
M  V30 END BOND
M  V30 END CTAB
M  END
>  <i_epik_Tot_Q>  (1) 
0

>  <i_epik_Tot_abs_Q>  (1) 
0

>  <i_i_glide_confnum>  (1) 
25

>  <i_i_glide_lignum>  (1) 
84

>  <i_i_glide_posenum>  (1) 
298

>  <i_i_glide_rotatable_bonds>  (1) 
5

>  <i_lp_mmshare_version>  (1) 
72125

>  <i_m_source_file_index>  (1) 
33

>  <i_f3d_flags>  (1) 
0

>  <num_sample>  (1) 
50

>  <b_lp_Chiralities_Consistent>  (1) 
1

>  <r_epik_Charging_Adjusted_Penalty>  (1) 
0.42689867469521958

>  <r_epik_Ionization_Penalty>  (1) 
0.21540292489436846

>  <r_epik_Ionization_Penalty_Charging>  (1) 
0.21344933734761001

>  <r_epik_Ionization_Penalty_Neutral>  (1) 
0.0019535875467584477

>  <r_epik_State_Penalty>  (1) 
0.2134493373476096

>  <r_glide_ring_energy>  (1) 
0

>  <r_i_docking_score>  (1) 
-7.0504663980484645

>  <r_i_glide_ecoul>  (1) 
-0.7874274328820513

>  <r_i_glide_eff_state_penalty>  (1) 
0.2134493373476096

>  <r_i_glide_einternal>  (1) 
11.18142295782993

>  <r_i_glide_emodel>  (1) 
-64.865386556268888

>  <r_i_glide_emodel_strain>  (1) 
1.780866320052553

>  <r_i_glide_energy>  (1) 
-51.027945643243697

>  <r_i_glide_erotb>  (1) 
0.46558767566886761

>  <r_i_glide_esite>  (1) 
-0.16720626631266594

>  <r_i_glide_evdw>  (1) 
-50.240518210361643

>  <r_i_glide_gscore>  (1) 
-7.2639157353960737

>  <r_i_glide_gscore_strain>  (1) 
0

>  <r_i_glide_hbond>  (1) 
0

>  <r_i_glide_ligand_efficiency>  (1) 
-0.24311953096718844

>  <r_i_glide_ligand_efficiency_ln>  (1) 
-1.614378020751184

>  <r_i_glide_ligand_efficiency_sa>  (1) 
-0.7469402256433445

>  <r_i_glide_lipo>  (1) 
-3.3392399003949995

>  <r_i_glide_metal>  (1) 
-0

>  <r_i_glide_rewards>  (1) 
-1.5929172189068868

>  <r_lp_Energy>  (1) 
28.239087999999999

>  <r_lp_tautomer_probability>  (1) 
0.99999990127737282

>  <s_epik_cmdline>  (1) 
J2VwaWtfcHl0aG9uJywgJy1waHQnLCAnMS4wJywgJy1waCcsICc3LjQnLCAnLXRuJywgJzgnLCAnLW1hJywgJzUwMCcsICctaW1hZScsICc8aW5maWxlLm1hZT4nLCAnLW9tYWUnLCAnPG91dGZpbGUubWFlPic=

>  <s_epik_input>  (1) 
W05IMl1jMW5jKFtDSDNdKWMoRiluYzFbQ0gyXVtDSDJdYyhuMiljKFtDSDNdKW4oYzIzKXNjKGMzW0NIM10pLWMoW2NIXWM0W0NIM10pYyhbT0hdKVtjSF1bY0hdNA==

>  <s_glide_docking_method>  (1) 
confgen

>  <s_i_glide_gridfile>  (1) 
gpcr_5ht2c_6bqh_protein_autoprepared_prepared

>  <s_lp_Force_Field>  (1) 
S-OPLS

>  <s_lp_Variant>  (1) 
DiffSBDD_32_num_sample_50-1

>  <s_m_source_file>  (1) 
generated__ligand_DiffSBDD_2026-05-06_prepared.sdf

>  <GenAI_Model>  (1) 
DiffSBDD

>  <Protein>  (1) 
GPCR_5HT2C

$$$$
DiffSBDD_39_num_sample_50
     RDKit          3D

  0  0  0  0  0  0  0  0  0  0999 V3000
M  V30 BEGIN CTAB
M  V30 COUNTS 88 94 0 0 1
M  V30 BEGIN ATOM
M  V30 1 C 38.967214 30.160147 60.985692 0 CFG=2
M  V30 2 C 37.955462 29.187868 57.397701 0
M  V30 3 C 40.296604 30.612697 65.788732 0
M  V30 4 C 40.569191 29.621347 66.900491 0
M  V30 5 C 36.564612 30.185835 59.229844 0
M  V30 6 O 39.743958 34.914405 67.395301 0
M  V30 7 N 39.027770 30.028780 59.519297 0
M  V30 8 C 40.092115 29.100140 50.817718 0
M  V30 9 C 41.550009 31.475756 65.460948 0 CFG=2
M  V30 10 C 40.844310 35.857256 64.894206 0
M  V30 11 C 41.718295 32.081685 62.889370 0 CFG=2
M  V30 12 S 39.310462 33.011636 61.096384 0
M  V30 13 C 38.889284 26.702816 57.698452 0
M  V30 14 C 40.407468 35.605103 68.429950 0
M  V30 15 C 41.108597 34.581701 69.339840 0
M  V30 16 O 41.880818 33.203839 62.019694 0
M  V30 17 O 38.088418 33.314380 61.853497 0
M  V30 18 C 38.266826 29.032263 54.563548 0
M  V30 19 O 42.025483 33.748859 64.630314 0
M  V30 20 C 40.313434 29.481111 59.068577 0
M  V30 21 O 39.362510 28.071219 51.181268 0
M  V30 22 C 39.467193 26.854466 53.251184 0
M  V30 23 C 41.061926 29.586621 62.500917 0
M  V30 24 C 39.761939 31.300090 61.488413 0
M  V30 25 C 39.727092 29.031325 61.832590 0
M  V30 26 C 40.585859 34.023374 66.668057 0 CFG=2
M  V30 27 C 42.634210 30.839535 67.683624 0
M  V30 28 C 40.705913 33.963233 61.779158 0
M  V30 29 N 40.617079 30.051363 50.418741 0
M  V30 30 C 37.475841 26.595433 57.191089 0
M  V30 31 O 41.961130 33.700768 68.596544 0
M  V30 32 O 39.327846 33.176990 59.636174 0
M  V30 33 C 42.177577 32.021659 66.793867 0 CFG=2
M  V30 34 C 39.214315 26.785193 54.635757 0
M  V30 35 C 40.789610 31.032540 62.255750 0
M  V30 36 C 41.252855 32.993431 67.584769 0 CFG=2
M  V30 37 C 38.526787 29.094754 53.192194 0
M  V30 38 C 39.121069 28.008205 52.528407 0
M  V30 39 C 38.308506 27.800776 56.807838 0
M  V30 40 C 41.301543 32.540394 64.330152 0 CFG=2
M  V30 41 C 37.846706 29.364816 58.940078 0 CFG=2
M  V30 42 C 41.514879 34.675177 65.614650 0 CFG=2
M  V30 43 C 41.608753 29.720624 67.743354 0
M  V30 44 C 38.606858 27.876935 55.310913 0
M  V30 45 H 37.962649 30.309227 61.367357 0
M  V30 46 H 36.994250 29.457183 56.960443 0
M  V30 47 H 38.641546 29.943273 57.015910 0
M  V30 48 H 39.467409 31.221429 66.120420 0
M  V30 49 H 39.904999 30.084299 64.926290 0
M  V30 50 H 39.872655 28.800300 67.001880 0
M  V30 51 H 35.704026 29.777100 58.698754 0
M  V30 52 H 36.267007 30.187385 60.274073 0
M  V30 53 H 36.678051 31.221961 58.907064 0
M  V30 54 H 42.302812 30.793735 65.063759 0
M  V30 55 H 40.667408 36.678932 65.587044 0
M  V30 56 H 41.482226 36.230953 64.092615 0
M  V30 57 H 39.873609 35.616775 64.467530 0
M  V30 58 H 42.712288 31.636880 62.941925 0
M  V30 59 H 39.644221 26.040323 57.285265 0
M  V30 60 H 38.976151 26.837701 58.772018 0
M  V30 61 H 39.669296 36.166173 69.003252 0
M  V30 62 H 41.067404 36.346686 67.994591 0
M  V30 63 H 40.337005 34.021427 69.853489 0
M  V30 64 H 41.689005 35.089055 70.110965 0
M  V30 65 H 37.800470 29.876886 55.042331 0
M  V30 66 H 40.472264 29.621348 58.001627 0
M  V30 67 H 41.147231 29.971971 59.568350 0
M  V30 68 H 40.403462 28.415530 59.265392 0
M  V30 69 H 39.926724 26.021448 52.744748 0
M  V30 70 H 41.197147 29.281919 63.533300 0
M  V30 71 H 41.907218 29.221570 61.932904 0
M  V30 72 H 39.876428 28.086937 61.310995 0
M  V30 73 H 39.067439 28.786632 62.653449 0
M  V30 74 H 39.867403 33.453137 66.128635 0
M  V30 75 H 42.854387 31.183394 68.693949 0
M  V30 76 H 43.559258 30.416214 67.290743 0
M  V30 77 H 40.352160 34.434005 62.688060 0
M  V30 78 H 40.924221 34.773674 61.084391 0
M  V30 79 H 36.643846 26.787178 57.853508 0
M  V30 80 H 37.283451 25.833214 56.438741 0
M  V30 81 H 43.083420 32.574136 66.540068 0
M  V30 82 H 39.479489 25.891927 55.177837 0
M  V30 83 H 40.471491 32.412514 68.077448 0
M  V30 84 H 38.267414 29.980322 52.653506 0
M  V30 85 H 40.240385 32.769477 64.250130 0
M  V30 86 H 37.742987 28.421431 59.443331 0
M  V30 87 H 42.386591 35.082054 66.128575 0
M  V30 88 H 41.746031 28.975349 68.513665 0
M  V30 END ATOM
M  V30 BEGIN BOND
M  V30 1 1 4 3
M  V30 2 1 7 1
M  V30 3 1 9 3
M  V30 4 1 14 6
M  V30 5 1 15 14
M  V30 6 1 16 11
M  V30 7 2 17 12
M  V30 8 1 20 7
M  V30 9 1 21 8
M  V30 10 1 24 1
M  V30 11 1 24 12
M  V30 12 1 25 1
M  V30 13 1 25 23
M  V30 14 1 26 6
M  V30 15 1 28 12
M  V30 16 1 28 16
M  V30 17 3 29 8
M  V30 18 1 30 13
M  V30 19 1 31 15
M  V30 20 2 32 12
M  V30 21 1 33 9
M  V30 22 1 33 27
M  V30 23 2 34 22
M  V30 24 1 35 11
M  V30 25 1 35 23
M  V30 26 2 35 24
M  V30 27 1 36 26
M  V30 28 1 36 31
M  V30 29 1 36 33
M  V30 30 1 37 18
M  V30 31 1 38 21
M  V30 32 1 38 22
M  V30 33 2 38 37
M  V30 34 1 39 2
M  V30 35 1 39 13
M  V30 36 1 39 30
M  V30 37 1 40 9
M  V30 38 1 40 11
M  V30 39 1 40 19
M  V30 40 1 41 2
M  V30 41 1 41 5
M  V30 42 1 41 7
M  V30 43 1 42 10
M  V30 44 1 42 19
M  V30 45 1 42 26
M  V30 46 2 43 4
M  V30 47 1 43 27
M  V30 48 2 44 18
M  V30 49 1 44 34
M  V30 50 1 44 39
M  V30 51 1 1 45 CFG=1
M  V30 52 1 46 2
M  V30 53 1 47 2
M  V30 54 1 48 3
M  V30 55 1 49 3
M  V30 56 1 50 4
M  V30 57 1 51 5
M  V30 58 1 52 5
M  V30 59 1 53 5
M  V30 60 1 9 54 CFG=3
M  V30 61 1 55 10
M  V30 62 1 56 10
M  V30 63 1 57 10
M  V30 64 1 11 58 CFG=1
M  V30 65 1 59 13
M  V30 66 1 60 13
M  V30 67 1 61 14
M  V30 68 1 62 14
M  V30 69 1 63 15
M  V30 70 1 64 15
M  V30 71 1 65 18
M  V30 72 1 66 20
M  V30 73 1 67 20
M  V30 74 1 68 20
M  V30 75 1 69 22
M  V30 76 1 70 23
M  V30 77 1 71 23
M  V30 78 1 72 25
M  V30 79 1 73 25
M  V30 80 1 26 74 CFG=3
M  V30 81 1 75 27
M  V30 82 1 76 27
M  V30 83 1 77 28
M  V30 84 1 78 28
M  V30 85 1 79 30
M  V30 86 1 80 30
M  V30 87 1 33 81 CFG=3
M  V30 88 1 82 34
M  V30 89 1 36 83 CFG=1
M  V30 90 1 84 37
M  V30 91 1 40 85 CFG=3
M  V30 92 1 41 86 CFG=1
M  V30 93 1 42 87 CFG=1
M  V30 94 1 88 43
M  V30 END BOND
M  V30 END CTAB
M  END
>  <i_epik_Tot_Q>  (1) 
0

>  <i_epik_Tot_abs_Q>  (1) 
0

>  <i_i_glide_confnum>  (1) 
362

>  <i_i_glide_lignum>  (1) 
93

>  <i_i_glide_posenum>  (1) 
278

>  <i_i_glide_rotatable_bonds>  (1) 
7

>  <i_lp_mmshare_version>  (1) 
72125

>  <i_m_source_file_index>  (1) 
40

>  <i_f3d_flags>  (1) 
0

>  <num_sample>  (1) 
50

>  <b_lp_Chiralities_Consistent>  (1) 
1

>  <r_epik_Charging_Adjusted_Penalty>  (1) 
0

>  <r_epik_Ionization_Penalty>  (1) 
0.0018775400200383807

>  <r_epik_Ionization_Penalty_Charging>  (1) 
0

>  <r_epik_Ionization_Penalty_Neutral>  (1) 
0.0018775400200383807

>  <r_epik_State_Penalty>  (1) 
-0

>  <r_glide_ring_energy>  (1) 
0

>  <r_i_docking_score>  (1) 
-7.046497215744763

>  <r_i_glide_ecoul>  (1) 
-1.1534701451135856

>  <r_i_glide_eff_state_penalty>  (1) 
-0

>  <r_i_glide_einternal>  (1) 
21.599828573865029

>  <r_i_glide_emodel>  (1) 
-41.261250245907313

>  <r_i_glide_emodel_strain>  (1) 
1.9226882675022097

>  <r_i_glide_energy>  (1) 
-51.731663559351247

>  <r_i_glide_erotb>  (1) 
0.2436664055198263

>  <r_i_glide_esite>  (1) 
0

>  <r_i_glide_evdw>  (1) 
-50.57819341423766

>  <r_i_glide_gscore>  (1) 
-7.046497215744763

>  <r_i_glide_gscore_strain>  (1) 
0

>  <r_i_glide_hbond>  (1) 
0

>  <r_i_glide_ligand_efficiency>  (1) 
-0.16014766399419916

>  <r_i_glide_ligand_efficiency_ln>  (1) 
-1.4728716365646373

>  <r_i_glide_ligand_efficiency_sa>  (1) 
-0.56537703898827874

>  <r_i_glide_lipo>  (1) 
-4.5738426322253245

>  <r_i_glide_metal>  (1) 
-0

>  <r_i_glide_rewards>  (1) 
-0.01439079656034381

>  <r_lp_Energy>  (1) 
39.908791999999998

>  <r_lp_tautomer_probability>  (1) 
1

>  <s_epik_cmdline>  (1) 
J2VwaWtfcHl0aG9uJywgJy1waHQnLCAnMS4wJywgJy1waCcsICc3LjQnLCAnLXRuJywgJzgnLCAnLW1hJywgJzUwMCcsICctaW1hZScsICc8aW5maWxlLm1hZT4nLCAnLW9tYWUnLCAnPG91dGZpbGUubWFlPic=

>  <s_epik_input>  (1) 
TiNDT2MxW2NIXVtjSF1jKFtjSF1bY0hdMSlDMihbQ0gyXVtDSDJdMilbQ0gyXVtDQEhdKFtDSDNdKU4oW0NIM10pW0NASF0zW0NIMl1bQ0gyXUMoPUMzNClbQ0BASF0oT1tDSDJdUzQoPU8pPU8pW0NAQEhdNU9bQ0BASF0oW0NIM10pW0NASF0oT1tDSDJdW0NIMl1PNilbQ0BIXTZbQ0BIXShbQ0BIXTU3KVtDSDJdW0NIXT1bQ0hdW0NIMl03

>  <s_glide_docking_method>  (1) 
confgen

>  <s_i_glide_gridfile>  (1) 
gpcr_5ht2c_6bqh_protein_autoprepared_prepared

>  <s_lp_Force_Field>  (1) 
S-OPLS

>  <s_lp_Variant>  (1) 
DiffSBDD_39_num_sample_50-1

>  <s_m_source_file>  (1) 
generated__ligand_DiffSBDD_2026-05-06_prepared.sdf

>  <GenAI_Model>  (1) 
DiffSBDD

>  <Protein>  (1) 
GPCR_5HT2C

$$$$
DiffSBDD_18_num_sample_50
     RDKit          3D

  0  0  0  0  0  0  0  0  0  0999 V3000
M  V30 BEGIN CTAB
M  V30 COUNTS 73 75 0 0 1
M  V30 BEGIN ATOM
M  V30 1 C 37.657411 34.378836 61.184728 0
M  V30 2 C 36.590128 34.006185 60.132843 0 CFG=1
M  V30 3 C 39.881854 36.397088 64.177726 0
M  V30 4 F 39.464961 27.221449 50.253530 0
M  V30 5 C 38.664345 28.632227 54.880478 0
M  V30 6 C 39.064705 28.417334 58.418048 0 CFG=2
M  V30 7 C 40.915099 35.290758 63.953867 0
M  V30 8 C 39.067463 28.929713 53.468949 0
M  V30 9 F 39.471400 31.233864 54.027747 0
M  V30 10 C 38.980160 34.940934 60.630485 0
M  V30 11 C 39.867470 30.515949 51.786241 0
M  V30 12 C 40.187474 27.621416 59.108270 0
M  V30 13 C 38.683962 27.148275 55.226669 0 CFG=2
M  V30 14 N 37.467425 26.417078 54.922310 0
M  V30 15 C 38.328980 29.362199 59.392135 0
M  V30 16 C 37.842533 30.662555 58.729331 0
M  V30 17 O 41.088199 28.504850 59.732321 0
M  V30 18 C 39.867287 29.494246 50.823260 0
M  V30 19 O 38.372647 29.531849 55.664491 0
M  V30 20 C 39.073332 27.906975 52.491291 0
M  V30 21 S 39.316192 36.937372 62.549872 0
M  V30 22 C 35.694402 31.072458 60.004749 0
M  V30 23 C 40.408524 34.467724 62.766892 0
M  V30 24 C 39.465523 30.242431 53.106892 0
M  V30 25 C 36.033788 35.207615 59.365560 0
M  V30 26 N 37.042127 32.960826 59.176958 0 CHG=1
M  V30 27 F 41.068300 35.840790 61.053515 0
M  V30 28 C 38.513174 26.678202 56.688910 0 CFG=2
M  V30 29 C 37.553978 25.623132 56.134465 0
M  V30 30 C 34.723372 34.823013 58.653522 0
M  V30 31 C 37.110562 31.588155 59.716983 0 CFG=2
M  V30 32 C 39.963217 35.475544 61.693848 0 CFG=1
M  V30 33 C 39.467317 28.194893 51.176581 0
M  V30 34 N 38.067615 27.531436 57.796956 0
M  V30 35 H 37.212270 35.114761 61.853570 0
M  V30 36 H 37.859438 33.511307 61.809755 0
M  V30 37 H 35.747776 33.627928 60.707830 0
M  V30 38 H 40.267387 37.221433 64.767783 0
M  V30 39 H 39.020133 36.021438 64.719358 0
M  V30 40 H 39.557519 29.028283 57.665013 0
M  V30 41 H 41.879151 35.738806 63.706567 0
M  V30 42 H 41.057856 34.680613 64.845964 0
M  V30 43 H 39.480499 34.183465 60.026953 0
M  V30 44 H 38.745644 35.766665 59.961243 0
M  V30 45 H 40.174712 31.514804 51.512627 0
M  V30 46 H 40.755801 27.028781 58.391778 0
M  V30 47 H 39.791861 26.940016 59.853361 0
M  V30 48 H 39.552769 26.639515 54.803730 0
M  V30 49 H 37.586097 25.830587 54.101515 0
M  V30 50 H 37.502915 28.827424 59.853421 0
M  V30 51 H 38.973417 29.648166 60.222434 0
M  V30 52 H 38.709662 31.177275 58.314305 0
M  V30 53 H 37.191619 30.436115 57.882812 0
M  V30 54 H 41.811365 28.005826 60.088253 0
M  V30 55 H 40.171772 29.707334 49.809530 0
M  V30 56 H 38.774457 26.903286 52.742741 0
M  V30 57 H 35.712552 30.021353 60.253408 0
M  V30 58 H 35.217427 31.567817 60.848528 0
M  V30 59 H 35.052454 31.190466 59.130254 0
M  V30 60 H 39.573616 33.858217 63.104781 0
M  V30 61 H 41.169592 33.782966 62.390979 0
M  V30 62 H 35.867387 36.039633 60.048119 0
M  V30 63 H 36.769650 35.574801 58.653500 0
M  V30 64 H 37.941071 33.224605 58.802716 0
M  V30 65 H 39.415077 26.147789 56.991635 0
M  V30 66 H 38.024092 24.651526 55.969114 0
M  V30 67 H 36.602551 25.541123 56.662993 0
M  V30 68 H 34.267822 35.665096 58.136953 0
M  V30 69 H 34.911192 34.072580 57.895578 0
M  V30 70 H 33.981622 34.420511 59.343163 0
M  V30 71 H 37.684522 31.606400 60.643590 0
M  V30 72 H 37.300673 28.106524 57.458130 0
M  V30 73 H 36.385406 32.915439 58.401782 0
M  V30 END ATOM
M  V30 BEGIN BOND
M  V30 1 1 2 1
M  V30 2 1 7 3
M  V30 3 1 8 5
M  V30 4 1 10 1
M  V30 5 1 12 6
M  V30 6 1 13 5
M  V30 7 1 14 13
M  V30 8 1 15 6
M  V30 9 1 16 15
M  V30 10 1 17 12
M  V30 11 2 18 11
M  V30 12 2 19 5
M  V30 13 1 20 8
M  V30 14 1 21 3
M  V30 15 1 23 7
M  V30 16 2 24 8
M  V30 17 1 24 9
M  V30 18 1 24 11
M  V30 19 1 25 2
M  V30 20 1 26 2
M  V30 21 1 28 13
M  V30 22 1 29 14
M  V30 23 1 29 28
M  V30 24 1 30 25
M  V30 25 1 31 16
M  V30 26 1 31 22
M  V30 27 1 31 26
M  V30 28 1 32 10
M  V30 29 1 32 21
M  V30 30 1 32 23
M  V30 31 1 32 27 CFG=3
M  V30 32 1 33 4
M  V30 33 1 33 18
M  V30 34 2 33 20
M  V30 35 1 34 6
M  V30 36 1 34 28
M  V30 37 1 35 1
M  V30 38 1 36 1
M  V30 39 1 2 37 CFG=1
M  V30 40 1 38 3
M  V30 41 1 39 3
M  V30 42 1 6 40 CFG=3
M  V30 43 1 41 7
M  V30 44 1 42 7
M  V30 45 1 43 10
M  V30 46 1 44 10
M  V30 47 1 45 11
M  V30 48 1 46 12
M  V30 49 1 47 12
M  V30 50 1 13 48 CFG=3
M  V30 51 1 49 14
M  V30 52 1 50 15
M  V30 53 1 51 15
M  V30 54 1 52 16
M  V30 55 1 53 16
M  V30 56 1 54 17
M  V30 57 1 55 18
M  V30 58 1 56 20
M  V30 59 1 57 22
M  V30 60 1 58 22
M  V30 61 1 59 22
M  V30 62 1 60 23
M  V30 63 1 61 23
M  V30 64 1 62 25
M  V30 65 1 63 25
M  V30 66 1 64 26
M  V30 67 1 28 65 CFG=1
M  V30 68 1 66 29
M  V30 69 1 67 29
M  V30 70 1 68 30
M  V30 71 1 69 30
M  V30 72 1 70 30
M  V30 73 1 31 71 CFG=1
M  V30 74 1 72 34
M  V30 75 1 73 26
M  V30 END BOND
M  V30 END CTAB
M  END
>  <i_epik_Tot_Q>  (1) 
1

>  <i_epik_Tot_abs_Q>  (1) 
1

>  <i_i_glide_confnum>  (1) 
8575

>  <i_i_glide_lignum>  (1) 
51

>  <i_i_glide_posenum>  (1) 
89

>  <i_i_glide_rotatable_bonds>  (1) 
15

>  <i_lp_mmshare_version>  (1) 
72125

>  <i_m_source_file_index>  (1) 
19

>  <i_f3d_flags>  (1) 
0

>  <num_sample>  (1) 
50

>  <b_lp_Chiralities_Consistent>  (1) 
1

>  <r_epik_Charging_Adjusted_Penalty>  (1) 
1.2230517339192002

>  <r_epik_Ionization_Penalty>  (1) 
1.2279427693353704

>  <r_epik_Ionization_Penalty_Charging>  (1) 
0.0005303694580283578

>  <r_epik_Ionization_Penalty_Neutral>  (1) 
1.2274123998773421

>  <r_epik_State_Penalty>  (1) 
1.2225213644611719

>  <r_glide_ring_energy>  (1) 
0

>  <r_i_docking_score>  (1) 
-7.0239678396739427

>  <r_i_glide_ecoul>  (1) 
-4.2724361223141809

>  <r_i_glide_eff_state_penalty>  (1) 
1.2225213644611719

>  <r_i_glide_einternal>  (1) 
25.215832027545996

>  <r_i_glide_emodel>  (1) 
-62.451787608326541

>  <r_i_glide_emodel_strain>  (1) 
0.12447978307520913

>  <r_i_glide_energy>  (1) 
-47.319470344742044

>  <r_i_glide_erotb>  (1) 
0.97048419377231765

>  <r_i_glide_esite>  (1) 
-0.07740012935434841

>  <r_i_glide_evdw>  (1) 
-43.047034222427861

>  <r_i_glide_gscore>  (1) 
-8.2464892041351145

>  <r_i_glide_gscore_strain>  (1) 
0

>  <r_i_glide_hbond>  (1) 
-0.26365132862915375

>  <r_i_glide_ligand_efficiency>  (1) 
-0.20658728940217477

>  <r_i_glide_ligand_efficiency_ln>  (1) 
-1.5517915114085128

>  <r_i_glide_ligand_efficiency_sa>  (1) 
-0.66926262074121223

>  <r_i_glide_lipo>  (1) 
-4.1675880165389572

>  <r_i_glide_metal>  (1) 
-0

>  <r_i_glide_rewards>  (1) 
-1.9151167939164524

>  <r_lp_Energy>  (1) 
36.781953999999999

>  <r_lp_tautomer_probability>  (1) 
0.99990000499974985

>  <s_epik_cmdline>  (1) 
J2VwaWtfcHl0aG9uJywgJy1waHQnLCAnMS4wJywgJy1waCcsICc3LjQnLCAnLXRuJywgJzgnLCAnLW1hJywgJzUwMCcsICctaW1hZScsICc8aW5maWxlLm1hZT4nLCAnLW9tYWUnLCAnPG91dGZpbGUubWFlPic=

>  <s_epik_input>  (1) 
W0NIMl0xW0NIMl1bQ0gyXVNbQ0BdMShGKVtDSDJdW0NIMl1bQ0BASF0oW0NIMl1bQ0gzXSlbTkhdW0NAQEhdKFtDSDNdKVtDSDJdW0NIMl1bQ0BASF0oW0NIMl1bT0hdKVtOSF1bQ0BIXTJbQ0gyXVtOSF1bQ0BIXTJDKD1PKWMzW2NIXWMoRilbY0hdW2NIXWMzRg==

>  <s_glide_docking_method>  (1) 
confgen

>  <s_i_glide_gridfile>  (1) 
gpcr_5ht2c_6bqh_protein_autoprepared_prepared

>  <s_lp_Force_Field>  (1) 
S-OPLS

>  <s_lp_Variant>  (1) 
DiffSBDD_18_num_sample_50-2

>  <s_m_source_file>  (1) 
generated__ligand_DiffSBDD_2026-05-06_prepared.sdf

>  <GenAI_Model>  (1) 
DiffSBDD

>  <Protein>  (1) 
GPCR_5HT2C

$$$$
DiffSBDD_19_num_sample_50
     RDKit          3D

  0  0  0  0  0  0  0  0  0  0999 V3000
M  V30 BEGIN CTAB
M  V30 COUNTS 46 49 0 0 1
M  V30 BEGIN ATOM
M  V30 1 N 38.096448 31.678272 60.591758 0
M  V30 2 C 39.329096 27.767894 59.100249 0
M  V30 3 C 36.874305 31.885980 59.791604 0
M  V30 4 C 39.168469 29.236827 56.953888 0
M  V30 5 N 39.072997 28.078301 56.241122 0
M  V30 6 C 39.962043 26.713452 58.224749 0
M  V30 7 C 39.524191 29.141815 58.457981 0 CFG=1
M  V30 8 F 37.867724 33.537355 58.442505 0
M  V30 9 O 40.113747 30.487266 60.857672 0
M  V30 10 O 38.974710 30.341078 56.444437 0
M  V30 11 N 37.000336 34.245665 60.457777 0
M  V30 12 N 36.909402 24.746891 54.965931 0
M  V30 13 C 37.969856 25.990356 56.784781 0 CFG=1
M  V30 14 O 38.678008 30.056480 59.144140 0
M  V30 15 C 37.867538 24.513023 57.169897 0
M  V30 16 O 37.068418 35.593638 59.935316 0
M  V30 17 C 38.242989 34.026580 61.201945 0
M  V30 18 C 39.319593 26.731777 56.836320 0 CFG=1
M  V30 19 C 38.642851 28.101045 54.817298 0
M  V30 20 C 36.864337 33.347892 59.304632 0 CFG=2
M  V30 21 C 37.561952 25.894549 55.344032 0
M  V30 22 C 37.866799 26.843973 54.449504 0
M  V30 23 C 38.292913 32.574499 61.727279 0
M  V30 24 C 39.062063 30.713064 60.254348 0
M  V30 25 C 37.067443 24.021427 55.982097 0
M  V30 26 H 39.781018 27.746709 60.092663 0
M  V30 27 H 38.268599 27.556471 59.236294 0
M  V30 28 H 36.724845 31.233440 58.931346 0
M  V30 29 H 36.011411 31.711778 60.435192 0
M  V30 30 H 39.867244 25.728001 58.679730 0
M  V30 31 H 41.032492 26.908338 58.138104 0
M  V30 32 H 40.571739 29.439147 58.539506 0
M  V30 33 H 37.341899 24.351511 58.110989 0
M  V30 34 H 36.201890 35.919242 60.123424 0
M  V30 35 H 39.102328 34.219287 60.556903 0
M  V30 36 H 38.302522 34.732552 62.030477 0
M  V30 37 H 40.016250 26.208531 56.177118 0
M  V30 38 H 37.995365 28.953437 54.603190 0
M  V30 39 H 39.509285 28.185602 54.166636 0
M  V30 40 H 35.941455 33.559972 58.762130 0
M  V30 41 H 37.575492 26.729459 53.414459 0
M  V30 42 H 39.235943 32.400773 62.246763 0
M  V30 43 H 37.498126 32.403945 62.453735 0
M  V30 44 H 36.647950 23.015615 56.064231 0
M  V30 45 H 37.200696 26.558069 57.312699 0
M  V30 46 H 38.840140 24.020998 57.194445 0
M  V30 END ATOM
M  V30 BEGIN BOND
M  V30 1 1 3 1
M  V30 2 1 5 4
M  V30 3 1 6 2
M  V30 4 1 7 2
M  V30 5 1 7 4
M  V30 6 2 10 4
M  V30 7 1 14 7
M  V30 8 1 15 13
M  V30 9 1 16 11
M  V30 10 1 17 11
M  V30 11 1 18 5
M  V30 12 1 18 6
M  V30 13 1 18 13
M  V30 14 1 19 5
M  V30 15 1 20 3
M  V30 16 1 20 8
M  V30 17 1 20 11
M  V30 18 1 21 12
M  V30 19 1 21 13
M  V30 20 1 22 19
M  V30 21 2 22 21
M  V30 22 1 23 1
M  V30 23 1 23 17
M  V30 24 1 24 1
M  V30 25 2 24 9
M  V30 26 1 24 14
M  V30 27 2 25 12
M  V30 28 1 25 15
M  V30 29 1 26 2
M  V30 30 1 27 2
M  V30 31 1 28 3
M  V30 32 1 29 3
M  V30 33 1 30 6
M  V30 34 1 31 6
M  V30 35 1 7 32 CFG=3
M  V30 36 1 33 15
M  V30 37 1 34 16
M  V30 38 1 35 17
M  V30 39 1 36 17
M  V30 40 1 18 37 CFG=3
M  V30 41 1 38 19
M  V30 42 1 39 19
M  V30 43 1 20 40 CFG=3
M  V30 44 1 41 22
M  V30 45 1 42 23
M  V30 46 1 43 23
M  V30 47 1 44 25
M  V30 48 1 13 45 CFG=1
M  V30 49 1 46 15
M  V30 END BOND
M  V30 END CTAB
M  END
>  <i_epik_Tot_Q>  (1) 
0

>  <i_epik_Tot_abs_Q>  (1) 
0

>  <i_i_glide_confnum>  (1) 
8

>  <i_i_glide_lignum>  (1) 
54

>  <i_i_glide_posenum>  (1) 
255

>  <i_i_glide_rotatable_bonds>  (1) 
4

>  <i_lp_mmshare_version>  (1) 
72125

>  <i_m_source_file_index>  (1) 
20

>  <i_f3d_flags>  (1) 
0

>  <num_sample>  (1) 
50

>  <b_lp_Chiralities_Consistent>  (1) 
1

>  <r_epik_Charging_Adjusted_Penalty>  (1) 
0

>  <r_epik_Ionization_Penalty>  (1) 
0.00023690808741792311

>  <r_epik_Ionization_Penalty_Charging>  (1) 
0

>  <r_epik_Ionization_Penalty_Neutral>  (1) 
0.00023690808741792311

>  <r_epik_State_Penalty>  (1) 
-0

>  <r_glide_ring_energy>  (1) 
0.27322882293605699

>  <r_i_docking_score>  (1) 
-7.023574022670144

>  <r_i_glide_ecoul>  (1) 
0.21750450123185872

>  <r_i_glide_eff_state_penalty>  (1) 
-0

>  <r_i_glide_einternal>  (1) 
3.0770205849994516

>  <r_i_glide_emodel>  (1) 
-59.566903501188762

>  <r_i_glide_emodel_strain>  (1) 
0.021636074824840534

>  <r_i_glide_energy>  (1) 
-42.940204879479907

>  <r_i_glide_erotb>  (1) 
0.46110279215177946

>  <r_i_glide_esite>  (1) 
-0.050333925856009903

>  <r_i_glide_evdw>  (1) 
-43.157709380711765

>  <r_i_glide_gscore>  (1) 
-7.023574022670144

>  <r_i_glide_gscore_strain>  (1) 
0

>  <r_i_glide_hbond>  (1) 
0

>  <r_i_glide_ligand_efficiency>  (1) 
-0.28094296090680576

>  <r_i_glide_ligand_efficiency_ln>  (1) 
-1.6647975229016281

>  <r_i_glide_ligand_efficiency_sa>  (1) 
-0.82148220111754389

>  <r_i_glide_lipo>  (1) 
-2.5692091867522007

>  <r_i_glide_metal>  (1) 
-0

>  <r_i_glide_rewards>  (1) 
-2.7398739083629033

>  <r_lp_Energy>  (1) 
38.905223999999997

>  <r_lp_tautomer_probability>  (1) 
1

>  <s_epik_Chemistry_Notes>  (1) 
This compound has an ester and may undergo hydrolysis at high or low pH. This compound has an imine and may undergo hydrolysis. This compound has a N-S or N-O group and may undergo hydrolysis at high or low pH.

>  <s_epik_cmdline>  (1) 
J2VwaWtfcHl0aG9uJywgJy1waHQnLCAnMS4wJywgJy1waCcsICc3LjQnLCAnLXRuJywgJzgnLCAnLW1hJywgJzUwMCcsICctaW1hZScsICc8aW5maWxlLm1hZT4nLCAnLW9tYWUnLCAnPG91dGZpbGUubWFlPic=

>  <s_epik_input>  (1) 
W0NIMl0xW0NIMl1OKFtPSF0pW0NAQEhdKEYpW0NIMl1OMUMoPU8pT1tDQEhdKEMyPU8pW0NIMl1bQ0gyXVtDQEBIXShOMjMpQz00QyhbQ0gyXVtDSDJdMyk9TltDSDJdW0NIXTQ=

>  <s_glide_docking_method>  (1) 
confgen

>  <s_i_glide_gridfile>  (1) 
gpcr_5ht2c_6bqh_protein_autoprepared_prepared

>  <s_lp_Force_Field>  (1) 
S-OPLS

>  <s_lp_Variant>  (1) 
DiffSBDD_19_num_sample_50-3

>  <s_m_source_file>  (1) 
generated__ligand_DiffSBDD_2026-05-06_prepared.sdf

>  <GenAI_Model>  (1) 
DiffSBDD

>  <Protein>  (1) 
GPCR_5HT2C

$$$$
DiffSBDD_47_num_sample_50
     RDKit          3D

  0  0  0  0  0  0  0  0  0  0999 V3000
M  V30 BEGIN CTAB
M  V30 COUNTS 47 49 0 0 1
M  V30 BEGIN ATOM
M  V30 1 C 39.126603 32.357742 60.777879 0
M  V30 2 C 39.438617 34.694647 61.745735 0
M  V30 3 C 37.309690 35.698898 60.206342 0
M  V30 4 C 39.232659 30.791968 53.569133 0
M  V30 5 C 38.557107 28.459217 53.563068 0
M  V30 6 N 40.667340 30.551207 61.400763 0
M  V30 7 C 38.769600 30.086848 59.971051 0
M  V30 8 C 39.919090 29.697710 60.675807 0
M  V30 9 C 37.867459 32.394280 54.941886 0
M  V30 10 C 39.197640 29.596075 52.959742 0
M  V30 11 O 39.231042 28.373501 57.277990 0
M  V30 12 N 37.506189 29.803593 56.899559 0
M  V30 13 C 37.675764 29.901088 55.437032 0 CFG=1
M  V30 14 C 38.627688 31.063942 54.951016 0
M  V30 15 C 37.666028 34.337599 60.105198 0
M  V30 16 O 36.284892 36.193760 59.453496 0
M  V30 17 C 39.069376 36.049647 61.841322 0
M  V30 18 C 38.293114 29.050723 57.697675 0
M  V30 19 C 38.366907 31.433225 60.014033 0
M  V30 20 C 37.965907 29.062081 59.189424 0
M  V30 21 C 37.867410 28.572642 54.702390 0
M  V30 22 C 38.740730 33.807988 60.875903 0
M  V30 23 C 38.007768 36.548833 61.074900 0
M  V30 24 C 40.271158 31.844716 61.453401 0
M  V30 25 C 39.812823 31.260036 55.891376 0
M  V30 26 H 40.254386 34.336442 62.347524 0
M  V30 27 H 39.724009 31.621377 53.083694 0
M  V30 28 H 38.634156 27.493343 53.085687 0
M  V30 29 H 40.247601 28.668282 60.660766 0
M  V30 30 H 37.468194 32.628895 55.929086 0
M  V30 31 H 38.510286 33.221412 54.653532 0
M  V30 32 H 37.031008 32.363812 54.253558 0
M  V30 33 H 39.666174 29.484006 51.992742 0
M  V30 34 H 36.753087 30.341697 57.315678 0
M  V30 35 H 36.672212 30.178604 55.109868 0
M  V30 36 H 37.116780 33.702705 59.431891 0
M  V30 37 H 36.019268 35.621890 58.746106 0
M  V30 38 H 39.607090 36.707721 62.508657 0
M  V30 39 H 37.485492 31.745291 59.480261 0
M  V30 40 H 38.220771 28.075641 59.581699 0
M  V30 41 H 36.898456 29.221409 59.349151 0
M  V30 42 H 37.399806 27.701830 55.133009 0
M  V30 43 H 37.730196 37.590174 61.150458 0
M  V30 44 H 40.893374 32.490199 62.047618 0
M  V30 45 H 39.508976 31.667574 56.856729 0
M  V30 46 H 40.267373 30.291829 56.060712 0
M  V30 47 H 40.559069 31.929551 55.462721 0
M  V30 END ATOM
M  V30 BEGIN BOND
M  V30 1 2 8 6
M  V30 2 1 8 7
M  V30 3 2 10 4
M  V30 4 1 10 5
M  V30 5 1 13 12
M  V30 6 1 14 4
M  V30 7 1 14 9
M  V30 8 1 14 13
M  V30 9 2 15 3
M  V30 10 1 16 3
M  V30 11 1 17 2
M  V30 12 2 18 11
M  V30 13 1 18 12
M  V30 14 1 19 1
M  V30 15 2 19 7
M  V30 16 1 20 7
M  V30 17 1 20 18
M  V30 18 2 21 5
M  V30 19 1 21 13
M  V30 20 1 22 1
M  V30 21 2 22 2
M  V30 22 1 22 15
M  V30 23 1 23 3
M  V30 24 2 23 17
M  V30 25 2 24 1
M  V30 26 1 24 6
M  V30 27 1 25 14
M  V30 28 1 26 2
M  V30 29 1 27 4
M  V30 30 1 28 5
M  V30 31 1 29 8
M  V30 32 1 30 9
M  V30 33 1 31 9
M  V30 34 1 32 9
M  V30 35 1 33 10
M  V30 36 1 34 12
M  V30 37 1 13 35 CFG=3
M  V30 38 1 36 15
M  V30 39 1 37 16
M  V30 40 1 38 17
M  V30 41 1 39 19
M  V30 42 1 40 20
M  V30 43 1 41 20
M  V30 44 1 42 21
M  V30 45 1 43 23
M  V30 46 1 44 24
M  V30 47 1 45 25
M  V30 48 1 46 25
M  V30 49 1 47 25
M  V30 END BOND
M  V30 END CTAB
M  END
>  <i_epik_Tot_Q>  (1) 
0

>  <i_epik_Tot_abs_Q>  (1) 
0

>  <i_i_glide_confnum>  (1) 
46

>  <i_i_glide_lignum>  (1) 
107

>  <i_i_glide_posenum>  (1) 
349

>  <i_i_glide_rotatable_bonds>  (1) 
6

>  <i_lp_mmshare_version>  (1) 
72125

>  <i_m_source_file_index>  (1) 
48

>  <i_f3d_flags>  (1) 
0

>  <num_sample>  (1) 
50

>  <b_lp_Chiralities_Consistent>  (1) 
1

>  <r_epik_Charging_Adjusted_Penalty>  (1) 
0.0032589894025149397

>  <r_epik_Ionization_Penalty>  (1) 
0.0038156857198904941

>  <r_epik_Ionization_Penalty_Charging>  (1) 
0

>  <r_epik_Ionization_Penalty_Neutral>  (1) 
0.0038156857198904941

>  <r_epik_State_Penalty>  (1) 
0.0032589894025149397

>  <r_glide_ring_energy>  (1) 
0.21997361475074056

>  <r_i_docking_score>  (1) 
-7.0164162796612271

>  <r_i_glide_ecoul>  (1) 
-6.098054879398517

>  <r_i_glide_eff_state_penalty>  (1) 
0.0032589894025149397

>  <r_i_glide_einternal>  (1) 
4.7142958896931955

>  <r_i_glide_emodel>  (1) 
-58.107842999953483

>  <r_i_glide_emodel_strain>  (1) 
0.041143409784737628

>  <r_i_glide_energy>  (1) 
-42.244862456530448

>  <r_i_glide_erotb>  (1) 
0.84319913175930694

>  <r_i_glide_esite>  (1) 
-0.092404626648882188

>  <r_i_glide_evdw>  (1) 
-36.146807577131931

>  <r_i_glide_gscore>  (1) 
-7.0196752690637423

>  <r_i_glide_gscore_strain>  (1) 
0

>  <r_i_glide_hbond>  (1) 
-0.44792057604168045

>  <r_i_glide_ligand_efficiency>  (1) 
-0.28065665118644906

>  <r_i_glide_ligand_efficiency_ln>  (1) 
-1.6631009233082659

>  <r_i_glide_ligand_efficiency_sa>  (1) 
-0.8206450264165982

>  <r_i_glide_lipo>  (1) 
-2.7611229531987824

>  <r_i_glide_metal>  (1) 
-0

>  <r_i_glide_rewards>  (1) 
-1.8393776341673287

>  <r_lp_Energy>  (1) 
34.006616000000001

>  <r_lp_tautomer_probability>  (1) 
0.99999999999736477

>  <s_epik_cmdline>  (1) 
J2VwaWtfcHl0aG9uJywgJy1waHQnLCAnMS4wJywgJy1waCcsICc3LjQnLCAnLXRuJywgJzgnLCAnLW1hJywgJzUwMCcsICctaW1hZScsICc8aW5maWxlLm1hZT4nLCAnLW9tYWUnLCAnPG91dGZpbGUubWFlPic=

>  <s_epik_input>  (1) 
W09IXWMxW2NIXWMoW2NIXVtjSF1bY0hdMSktYzJbY0hdYyhbY0hdbltjSF0yKVtDSDJdQyg9TylbTkhdW0NAQEhdM1tDSF09W0NIXVtDSF09W0NIXUMzKFtDSDNdKVtDSDNd

>  <s_glide_docking_method>  (1) 
confgen

>  <s_i_glide_gridfile>  (1) 
gpcr_5ht2c_6bqh_protein_autoprepared_prepared

>  <s_lp_Force_Field>  (1) 
S-OPLS

>  <s_lp_Variant>  (1) 
DiffSBDD_47_num_sample_50-1

>  <s_m_source_file>  (1) 
generated__ligand_DiffSBDD_2026-05-06_prepared.sdf

>  <GenAI_Model>  (1) 
DiffSBDD

>  <Protein>  (1) 
GPCR_5HT2C

$$$$
DiffSBDD_33_num_sample_50
     RDKit          3D

  0  0  0  0  0  0  0  0  0  0999 V3000
M  V30 BEGIN CTAB
M  V30 COUNTS 78 81 0 0 1
M  V30 BEGIN ATOM
M  V30 1 C 40.084733 32.556000 63.437892 0
M  V30 2 C 37.122139 33.035738 60.741084 0 CFG=1
M  V30 3 C 39.756828 30.281350 54.137982 0
M  V30 4 C 35.764278 33.186784 61.453481 0
M  V30 5 C 37.879860 26.277436 54.639610 0
M  V30 6 C 38.870096 31.183324 54.956522 0 CFG=2
M  V30 7 C 36.859535 32.502064 59.312418 0
M  V30 8 C 37.260689 27.370744 53.842842 0
M  V30 9 C 40.148135 32.086718 61.053561 0
M  V30 10 O 39.153082 38.801070 61.453501 0
M  V30 11 C 40.667415 30.807820 61.314563 0
M  V30 12 C 39.320222 26.486866 55.172998 0 CFG=2
M  V30 13 C 39.319857 28.798178 54.110929 0 CFG=2
M  V30 14 C 41.595332 28.679727 64.203042 0
M  V30 15 C 40.904752 30.395666 62.638217 0
M  V30 16 C 39.602396 25.643879 56.435686 0
M  V30 17 C 40.617119 31.280218 63.706120 0
M  V30 18 C 40.257474 36.726926 61.853228 0
M  V30 19 C 37.986915 36.941408 60.533971 0
M  V30 20 O 39.467423 32.389830 55.453441 0
M  V30 21 N 38.094323 32.077059 58.619135 0 CHG=1
M  V30 22 C 37.926219 28.518208 53.611672 0
M  V30 23 O 38.846893 28.464274 56.486019 0
M  V30 24 O 41.421809 29.137404 62.869113 0
M  V30 25 C 37.208917 35.647902 60.781949 0 CFG=2
M  V30 26 C 39.621763 27.987161 55.397094 0 CFG=1
M  V30 27 C 39.077768 31.416305 56.423521 0 CFG=1
M  V30 28 C 38.889579 37.428039 61.685542 0 CFG=2
M  V30 29 C 40.365597 35.277967 61.362320 0
M  V30 30 O 37.293109 25.222910 54.882056 0
M  V30 31 C 39.229506 34.332972 61.806009 0 CFG=2
M  V30 32 C 39.835655 32.955465 62.107152 0
M  V30 33 C 37.867408 31.736627 57.215058 0
M  V30 34 C 38.040037 34.328192 60.760051 0 CFG=1
M  V30 35 O 36.267418 35.629222 59.723446 0
M  V30 36 O 40.239254 26.021449 54.202776 0
M  V30 37 H 39.867350 33.221552 64.253123 0
M  V30 38 H 37.599441 32.223009 61.278942 0
M  V30 39 H 39.780096 30.675278 53.121052 0
M  V30 40 H 40.776791 30.362265 54.515170 0
M  V30 41 H 35.026100 33.690751 60.828647 0
M  V30 42 H 35.342239 32.213782 61.708933 0
M  V30 43 H 35.857164 33.769607 62.363765 0
M  V30 44 H 37.862558 31.321189 54.567472 0
M  V30 45 H 36.188493 31.643077 59.353349 0
M  V30 46 H 36.345770 33.252909 58.711772 0
M  V30 47 H 36.267424 27.224033 53.453104 0
M  V30 48 H 39.981971 32.402909 60.045132 0
M  V30 49 H 38.340100 39.219747 61.212463 0
M  V30 50 H 40.891956 30.140630 60.494521 0
M  V30 51 H 39.867396 28.369613 53.276799 0
M  V30 52 H 41.951449 27.650237 64.180467 0
M  V30 53 H 42.338361 29.273989 64.735627 0
M  V30 54 H 40.657249 28.687919 64.758625 0
M  V30 55 H 38.906391 25.877198 57.241209 0
M  V30 56 H 39.525515 24.574609 56.236305 0
M  V30 57 H 40.608423 25.832598 56.810357 0
M  V30 58 H 40.798722 30.984301 64.727623 0
M  V30 59 H 41.038439 37.269590 61.320756 0
M  V30 60 H 40.548197 36.782479 62.904098 0
M  V30 61 H 37.254295 37.729766 60.343828 0
M  V30 62 H 38.529490 36.821431 59.607250 0
M  V30 63 H 38.751767 32.842016 58.636885 0
M  V30 64 H 37.461549 29.293228 53.027712 0
M  V30 65 H 37.931890 28.326228 56.290053 0
M  V30 66 H 36.668801 35.745999 61.723351 0
M  V30 67 H 40.667624 28.111853 55.674955 0
M  V30 68 H 39.867445 30.856642 56.911989 0
M  V30 69 H 38.328435 37.351170 62.618281 0
M  V30 70 H 40.484412 35.255309 60.278604 0
M  V30 71 H 41.317454 34.909550 61.749481 0
M  V30 72 H 38.839189 34.709249 62.747165 0
M  V30 73 H 37.204113 30.868671 57.164189 0
M  V30 74 H 37.414748 32.597828 56.727165 0
M  V30 75 H 38.538962 34.330441 59.793310 0
M  V30 76 H 36.707533 35.702527 58.888294 0
M  V30 77 H 40.064576 26.465650 53.387535 0
M  V30 78 H 38.486631 31.278359 59.095668 0
M  V30 END ATOM
M  V30 BEGIN BOND
M  V30 1 1 4 2
M  V30 2 1 6 3
M  V30 3 1 7 2
M  V30 4 1 8 5
M  V30 5 2 11 9
M  V30 6 1 12 5
M  V30 7 1 13 3
M  V30 8 1 15 11
M  V30 9 1 16 12
M  V30 10 1 17 1
M  V30 11 2 17 15
M  V30 12 1 20 6
M  V30 13 1 21 7
M  V30 14 2 22 8
M  V30 15 1 22 13
M  V30 16 1 24 14
M  V30 17 1 24 15
M  V30 18 1 25 19
M  V30 19 1 26 12
M  V30 20 1 26 13
M  V30 21 1 26 23
M  V30 22 1 27 6
M  V30 23 1 27 20
M  V30 24 1 28 10
M  V30 25 1 28 18
M  V30 26 1 28 19
M  V30 27 1 29 18
M  V30 28 2 30 5
M  V30 29 1 31 29
M  V30 30 2 32 1
M  V30 31 1 32 9
M  V30 32 1 32 31
M  V30 33 1 33 21
M  V30 34 1 33 27
M  V30 35 1 34 2
M  V30 36 1 34 25
M  V30 37 1 34 31
M  V30 38 1 35 25
M  V30 39 1 12 36 CFG=3
M  V30 40 1 37 1
M  V30 41 1 2 38 CFG=1
M  V30 42 1 39 3
M  V30 43 1 40 3
M  V30 44 1 41 4
M  V30 45 1 42 4
M  V30 46 1 43 4
M  V30 47 1 6 44 CFG=1
M  V30 48 1 45 7
M  V30 49 1 46 7
M  V30 50 1 47 8
M  V30 51 1 48 9
M  V30 52 1 49 10
M  V30 53 1 50 11
M  V30 54 1 13 51 CFG=3
M  V30 55 1 52 14
M  V30 56 1 53 14
M  V30 57 1 54 14
M  V30 58 1 55 16
M  V30 59 1 56 16
M  V30 60 1 57 16
M  V30 61 1 58 17
M  V30 62 1 59 18
M  V30 63 1 60 18
M  V30 64 1 61 19
M  V30 65 1 62 19
M  V30 66 1 63 21
M  V30 67 1 64 22
M  V30 68 1 65 23
M  V30 69 1 25 66 CFG=1
M  V30 70 1 26 67 CFG=1
M  V30 71 1 27 68 CFG=1
M  V30 72 1 28 69 CFG=1
M  V30 73 1 70 29
M  V30 74 1 71 29
M  V30 75 1 31 72 CFG=1
M  V30 76 1 73 33
M  V30 77 1 74 33
M  V30 78 1 34 75 CFG=3
M  V30 79 1 76 35
M  V30 80 1 77 36
M  V30 81 1 78 21
M  V30 END BOND
M  V30 END CTAB
M  END
>  <i_epik_Tot_Q>  (1) 
1

>  <i_epik_Tot_abs_Q>  (1) 
1

>  <i_i_glide_confnum>  (1) 
655

>  <i_i_glide_lignum>  (1) 
86

>  <i_i_glide_posenum>  (1) 
193

>  <i_i_glide_rotatable_bonds>  (1) 
13

>  <i_lp_mmshare_version>  (1) 
72125

>  <i_m_source_file_index>  (1) 
34

>  <i_f3d_flags>  (1) 
0

>  <num_sample>  (1) 
50

>  <b_lp_Chiralities_Consistent>  (1) 
1

>  <r_epik_Charging_Adjusted_Penalty>  (1) 
0.0021184864287466625

>  <r_epik_Ionization_Penalty>  (1) 
0.0021212372829442611

>  <r_epik_Ionization_Penalty_Charging>  (1) 
0.0021184864287466625

>  <r_epik_Ionization_Penalty_Neutral>  (1) 
2.7508541975987684e-06

>  <r_epik_State_Penalty>  (1) 
-0

>  <r_glide_ring_energy>  (1) 
0

>  <r_i_docking_score>  (1) 
-7.01329165080561

>  <r_i_glide_ecoul>  (1) 
-3.9256065825694737

>  <r_i_glide_eff_state_penalty>  (1) 
-0

>  <r_i_glide_einternal>  (1) 
24.900947798242946

>  <r_i_glide_emodel>  (1) 
-47.691744481519486

>  <r_i_glide_emodel_strain>  (1) 
0.47946408170805199

>  <r_i_glide_energy>  (1) 
-40.683547728628724

>  <r_i_glide_erotb>  (1) 
0.64233652918665762

>  <r_i_glide_esite>  (1) 
-0.068453404504725687

>  <r_i_glide_evdw>  (1) 
-36.757941146059252

>  <r_i_glide_gscore>  (1) 
-7.01329165080561

>  <r_i_glide_gscore_strain>  (1) 
0

>  <r_i_glide_hbond>  (1) 
-0.096759250074620079

>  <r_i_glide_ligand_efficiency>  (1) 
-0.19481365696682251

>  <r_i_glide_ligand_efficiency_ln>  (1) 
-1.5301107609621731

>  <r_i_glide_ligand_efficiency_sa>  (1) 
-0.64326052239556186

>  <r_i_glide_lipo>  (1) 
-4.0421037577916312

>  <r_i_glide_metal>  (1) 
-0

>  <r_i_glide_rewards>  (1) 
-1.0215737229329063

>  <r_lp_Energy>  (1) 
54.687307999999994

>  <r_lp_tautomer_probability>  (1) 
1

>  <s_epik_cmdline>  (1) 
J2VwaWtfcHl0aG9uJywgJy1waHQnLCAnMS4wJywgJy1waCcsICc3LjQnLCAnLXRuJywgJzgnLCAnLW1hJywgJzUwMCcsICctaW1hZScsICc8aW5maWxlLm1hZT4nLCAnLW9tYWUnLCAnPG91dGZpbGUubWFlPic=

>  <s_epik_input>  (1) 
W0NIM11PYzFbY0hdW2NIXWMoW2NIXVtjSF0xKVtDQEBIXShbQ0gyXVtDSDJdW0NAQEhdKFtPSF0pW0NIMl1bQ0BIXTJbT0hdKVtDQEhdMltDQEBIXShbQ0gzXSlbQ0gyXVtOSF1bQ0gyXVtDQEBIXTNPW0NASF0zW0NIMl1bQ0BASF0oW0NASF00W09IXSlbQ0hdPVtDSF1DKD1PKVtDQEBdNChbQ0gzXSlbT0hd

>  <s_glide_docking_method>  (1) 
confgen

>  <s_i_glide_gridfile>  (1) 
gpcr_5ht2c_6bqh_protein_autoprepared_prepared

>  <s_lp_Force_Field>  (1) 
S-OPLS

>  <s_lp_Variant>  (1) 
DiffSBDD_33_num_sample_50-1

>  <s_m_source_file>  (1) 
generated__ligand_DiffSBDD_2026-05-06_prepared.sdf

>  <GenAI_Model>  (1) 
DiffSBDD

>  <Protein>  (1) 
GPCR_5HT2C

$$$$
DiffSBDD_20_num_sample_50
     RDKit          3D

  0  0  0  0  0  0  0  0  0  0999 V3000
M  V30 BEGIN CTAB
M  V30 COUNTS 77 81 0 0 1
M  V30 BEGIN ATOM
M  V30 1 C 37.235225 36.473682 61.883688 0
M  V30 2 C 38.649467 36.987469 63.801158 0
M  V30 3 C 37.370298 33.217511 60.565648 0 CFG=2
M  V30 4 C 39.939548 26.989080 55.875132 0
M  V30 5 C 39.565483 36.000742 63.404978 0
M  V30 6 C 37.117578 29.870258 58.738451 0
M  V30 7 C 41.403508 34.002486 62.644081 0
M  V30 8 C 38.436893 29.878676 57.926514 0 CFG=1
M  V30 9 C 37.634980 29.195090 55.530885 0
M  V30 10 C 38.507772 28.807825 56.777510 0 CFG=2
M  V30 11 C 38.666304 31.331127 57.494357 0
M  V30 12 F 35.953679 24.421434 55.853449 0
M  V30 13 C 38.654136 32.298583 58.685346 0
M  V30 14 C 40.719486 35.766369 64.178467 0
M  V30 15 O 38.143696 30.508773 60.838946 0
M  V30 16 C 38.078436 27.440866 57.368667 0
M  V30 17 C 36.926780 35.351406 59.179758 0
M  V30 18 C 37.132575 30.874002 59.908723 0 CFG=1
M  V30 19 C 37.848376 34.658033 60.207819 0 CFG=1
M  V30 20 C 40.254878 34.229376 61.862191 0
M  V30 21 C 39.883776 30.432714 52.564060 0
M  V30 22 F 37.792312 23.706919 55.066370 0
M  V30 23 C 38.854001 29.528134 53.253738 0
M  V30 24 O 37.740390 25.896865 55.583879 0
M  V30 25 C 37.486524 37.221403 63.044144 0
M  V30 26 C 38.142152 35.474963 61.469093 0
M  V30 27 C 38.235381 30.187454 54.499661 0
M  V30 28 C 37.738879 24.338797 57.336855 0
M  V30 29 C 39.061007 25.064326 57.340424 0
M  V30 30 C 37.267785 24.587817 55.904301 0
M  V30 31 N 37.402192 32.250931 59.451251 0
M  V30 32 C 38.721921 26.324030 56.534871 0 CFG=1
M  V30 33 C 41.635189 34.770333 63.799838 0
M  V30 34 C 39.956283 28.449533 56.366727 0
M  V30 35 O 36.022607 33.254550 61.003868 0
M  V30 36 C 39.322966 35.232778 62.239303 0
M  V30 37 H 36.343830 36.665270 61.312095 0
M  V30 38 H 38.836672 37.567445 64.693282 0
M  V30 39 H 37.982711 32.849063 61.387747 0
M  V30 40 H 39.852261 26.924001 54.792682 0
M  V30 41 H 40.873302 26.490114 56.137957 0
M  V30 42 H 36.921929 28.888368 59.153863 0
M  V30 43 H 36.268189 30.079770 58.090377 0
M  V30 44 H 42.108683 33.236575 62.355092 0
M  V30 45 H 39.234745 29.634750 58.629246 0
M  V30 46 H 37.347063 28.298698 54.983931 0
M  V30 47 H 36.697526 29.621476 55.889544 0
M  V30 48 H 37.888609 31.649376 56.799163 0
M  V30 49 H 39.618331 31.420898 56.973882 0
M  V30 50 H 38.817554 33.280315 58.247398 0
M  V30 51 H 39.467372 32.100383 59.374651 0
M  V30 52 H 40.900726 36.351994 65.068694 0
M  V30 53 H 38.056316 29.588857 61.033308 0
M  V30 54 H 38.467157 27.362615 58.385597 0
M  V30 55 H 36.998931 27.325655 57.453608 0
M  V30 56 H 37.303102 36.339935 58.914847 0
M  V30 57 H 36.880258 34.766458 58.260750 0
M  V30 58 H 35.902932 35.467097 59.535110 0
M  V30 59 H 36.167086 30.827472 60.412682 0
M  V30 60 H 38.816470 34.638546 59.727067 0
M  V30 61 H 40.091746 33.630515 60.983328 0
M  V30 62 H 40.347947 29.926865 51.716874 0
M  V30 63 H 39.467419 31.372672 52.205451 0
M  V30 64 H 40.667350 30.699462 53.270242 0
M  V30 65 H 39.364348 28.613158 53.536673 0
M  V30 66 H 38.073631 29.221777 52.555241 0
M  V30 67 H 36.784438 37.980292 63.356006 0
M  V30 68 H 37.457255 30.876311 54.170911 0
M  V30 69 H 38.984852 30.821272 54.961930 0
M  V30 70 H 37.057365 24.817295 58.041229 0
M  V30 71 H 37.803845 23.288759 57.616449 0
M  V30 72 H 39.809183 24.458964 56.826145 0
M  V30 73 H 39.434832 25.283735 58.338129 0
M  V30 74 H 42.518056 34.594703 64.397706 0
M  V30 75 H 40.396960 29.128086 55.637909 0
M  V30 76 H 40.605875 28.495555 57.241810 0
M  V30 77 H 35.491908 33.513618 60.265217 0
M  V30 END ATOM
M  V30 BEGIN BOND
M  V30 1 1 5 2
M  V30 2 1 8 6
M  V30 3 1 10 8
M  V30 4 1 10 9 CFG=3
M  V30 5 1 11 8
M  V30 6 1 13 11
M  V30 7 2 14 5
M  V30 8 1 16 10
M  V30 9 1 18 6
M  V30 10 1 18 15
M  V30 11 1 19 3
M  V30 12 1 19 17
M  V30 13 1 20 7
M  V30 14 1 23 21
M  V30 15 1 25 1
M  V30 16 2 25 2
M  V30 17 2 26 1
M  V30 18 1 26 19
M  V30 19 1 27 9
M  V30 20 1 27 23
M  V30 21 1 29 28
M  V30 22 1 30 12
M  V30 23 1 30 22
M  V30 24 1 30 24
M  V30 25 1 30 28
M  V30 26 1 31 3
M  V30 27 1 31 13
M  V30 28 1 31 18
M  V30 29 1 32 4
M  V30 30 1 32 16
M  V30 31 1 32 24 CFG=3
M  V30 32 1 32 29
M  V30 33 2 33 7
M  V30 34 1 33 14
M  V30 35 1 34 4
M  V30 36 1 34 10
M  V30 37 1 35 3
M  V30 38 1 36 5
M  V30 39 2 36 20
M  V30 40 1 36 26
M  V30 41 1 37 1
M  V30 42 1 38 2
M  V30 43 1 3 39 CFG=1
M  V30 44 1 40 4
M  V30 45 1 41 4
M  V30 46 1 42 6
M  V30 47 1 43 6
M  V30 48 1 44 7
M  V30 49 1 8 45 CFG=1
M  V30 50 1 46 9
M  V30 51 1 47 9
M  V30 52 1 48 11
M  V30 53 1 49 11
M  V30 54 1 50 13
M  V30 55 1 51 13
M  V30 56 1 52 14
M  V30 57 1 53 15
M  V30 58 1 54 16
M  V30 59 1 55 16
M  V30 60 1 56 17
M  V30 61 1 57 17
M  V30 62 1 58 17
M  V30 63 1 18 59 CFG=1
M  V30 64 1 19 60 CFG=3
M  V30 65 1 61 20
M  V30 66 1 62 21
M  V30 67 1 63 21
M  V30 68 1 64 21
M  V30 69 1 65 23
M  V30 70 1 66 23
M  V30 71 1 67 25
M  V30 72 1 68 27
M  V30 73 1 69 27
M  V30 74 1 70 28
M  V30 75 1 71 28
M  V30 76 1 72 29
M  V30 77 1 73 29
M  V30 78 1 74 33
M  V30 79 1 75 34
M  V30 80 1 76 34
M  V30 81 1 77 35
M  V30 END BOND
M  V30 END CTAB
M  END
>  <i_epik_Tot_Q>  (1) 
0

>  <i_epik_Tot_abs_Q>  (1) 
0

>  <i_i_glide_confnum>  (1) 
32

>  <i_i_glide_lignum>  (1) 
56

>  <i_i_glide_posenum>  (1) 
140

>  <i_i_glide_rotatable_bonds>  (1) 
9

>  <i_lp_mmshare_version>  (1) 
72125

>  <i_m_source_file_index>  (1) 
21

>  <i_f3d_flags>  (1) 
0

>  <num_sample>  (1) 
50

>  <b_lp_Chiralities_Consistent>  (1) 
1

>  <r_epik_Charging_Adjusted_Penalty>  (1) 
0.32925283897171748

>  <r_epik_Ionization_Penalty>  (1) 
0.0090765548759611635

>  <r_epik_Ionization_Penalty_Charging>  (1) 
0

>  <r_epik_Ionization_Penalty_Neutral>  (1) 
0.0090765548759611635

>  <r_epik_State_Penalty>  (1) 
0.32925283897171748

>  <r_glide_ring_energy>  (1) 
0

>  <r_i_docking_score>  (1) 
-7.006053765111222

>  <r_i_glide_ecoul>  (1) 
-0.2366174509512568

>  <r_i_glide_eff_state_penalty>  (1) 
0.32925283897171748

>  <r_i_glide_einternal>  (1) 
11.287718196571948

>  <r_i_glide_emodel>  (1) 
-33.350986459156132

>  <r_i_glide_emodel_strain>  (1) 
1.3445092368421427

>  <r_i_glide_energy>  (1) 
-39.752730078442532

>  <r_i_glide_erotb>  (1) 
0.48702584280874928

>  <r_i_glide_esite>  (1) 
-0.044767944809343985

>  <r_i_glide_evdw>  (1) 
-39.516112627491275

>  <r_i_glide_gscore>  (1) 
-7.3353066040829393

>  <r_i_glide_gscore_strain>  (1) 
0

>  <r_i_glide_hbond>  (1) 
0

>  <r_i_glide_ligand_efficiency>  (1) 
-0.19461260458642282

>  <r_i_glide_ligand_efficiency_ln>  (1) 
-1.5285316498487311

>  <r_i_glide_ligand_efficiency_sa>  (1) 
-0.64259666206226507

>  <r_i_glide_lipo>  (1) 
-4.5332514568040629

>  <r_i_glide_metal>  (1) 
-0

>  <r_i_glide_rewards>  (1) 
-1.2330147962610294

>  <r_lp_Energy>  (1) 
40.512656

>  <s_epik_Chemistry_Notes>  (1) 
This compound contains an acetal/aminal-like group ( X-CH(R)-Y where X, Y are N, S, or O) that may be acid/base labile, releasing an aldehyde.

>  <s_epik_cmdline>  (1) 
J2VwaWtfcHl0aG9uJywgJy1waHQnLCAnMS4wJywgJy1waCcsICc3LjQnLCAnLXRuJywgJzgnLCAnLW1hJywgJzUwMCcsICctaW1hZScsICc8aW5maWxlLm1hZT4nLCAnLW9tYWUnLCAnPG91dGZpbGUubWFlPic=

>  <s_epik_input>  (1) 
W2NIXTFbY0hdW2NIXVtjSF1jKGMxMiljKFtjSF1bY0hdW2NIXTIpW0NASF0oW0NIM10pW0NAQEhdKFtPSF0pTihbQ0gyXVtDSDJdMylbQ0BIXShbT0hdKVtDSDJdW0NASF0zW0NAQF0oW0NIMl00KShbQ0gyXVtDSDJdW0NIMl1bQ0gzXSlbQ0gyXVtDSDJdW0NAXTQ1T0MoRikoRilbQ0gyXVtDSDJdNQ==

>  <s_glide_docking_method>  (1) 
confgen

>  <s_i_glide_gridfile>  (1) 
gpcr_5ht2c_6bqh_protein_autoprepared_prepared

>  <s_lp_Force_Field>  (1) 
S-OPLS

>  <s_lp_Variant>  (1) 
DiffSBDD_20_num_sample_50-1

>  <s_m_source_file>  (1) 
generated__ligand_DiffSBDD_2026-05-06_prepared.sdf

>  <GenAI_Model>  (1) 
DiffSBDD

>  <Protein>  (1) 
GPCR_5HT2C

$$$$
DiffSBDD_20_num_sample_50
     RDKit          3D

  0  0  0  0  0  0  0  0  0  0999 V3000
M  V30 BEGIN CTAB
M  V30 COUNTS 77 81 0 0 1
M  V30 BEGIN ATOM
M  V30 1 C 37.195391 36.378434 61.879230 0
M  V30 2 C 38.724461 36.843350 63.719594 0
M  V30 3 C 37.427560 33.098455 60.375758 0 CFG=2
M  V30 4 C 37.660471 29.842582 53.853503 0
M  V30 5 C 39.617563 35.870694 63.238784 0
M  V30 6 C 37.671685 29.862562 58.365492 0
M  V30 7 C 41.409194 33.903936 62.307988 0
M  V30 8 C 38.685546 30.249666 57.255566 0 CFG=1
M  V30 9 C 39.073259 27.837575 56.556910 0
M  V30 10 C 38.734382 29.267238 56.027439 0 CFG=2
M  V30 11 C 38.422200 31.731671 56.909412 0
M  V30 12 F 41.067402 28.421430 51.453492 0
M  V30 13 C 38.464658 32.629708 58.151320 0
M  V30 14 C 40.816907 35.619635 63.933132 0
M  V30 15 O 38.978143 30.704624 60.222188 0
M  V30 16 C 39.792266 29.729587 54.993389 0
M  V30 17 C 36.600444 35.257607 59.245634 0
M  V30 18 C 37.717816 30.813497 59.574102 0 CFG=1
M  V30 19 C 37.710106 34.609698 60.107582 0 CFG=1
M  V30 20 C 40.218155 34.153079 61.601188 0
M  V30 21 C 38.652266 24.779337 57.122933 0
M  V30 22 F 39.118486 28.036223 50.653843 0
M  V30 23 C 39.696305 25.374741 56.168359 0
M  V30 24 O 39.343651 28.520880 52.896501 0
M  V30 25 C 37.517876 37.094812 63.042541 0
M  V30 26 C 38.077517 35.392096 61.379669 0
M  V30 27 C 39.304734 26.711853 55.523809 0
M  V30 28 C 39.754195 30.215639 51.272711 0
M  V30 29 C 39.707258 30.842428 52.656355 0
M  V30 30 C 39.798582 28.730202 51.564419 0
M  V30 31 N 37.509963 32.219915 59.192010 0
M  V30 32 C 39.155066 29.749946 53.587359 0 CFG=1
M  V30 33 C 41.706294 34.635041 63.472487 0
M  V30 34 C 37.415718 29.245068 55.226594 0
M  V30 35 O 36.120045 32.914701 60.882417 0
M  V30 36 C 39.305984 35.135808 62.067124 0
M  V30 37 H 36.268192 36.585937 61.371906 0
M  V30 38 H 38.962943 37.399466 64.615112 0
M  V30 39 H 38.107703 32.741932 61.145114 0
M  V30 40 H 37.098859 29.263997 53.112565 0
M  V30 41 H 37.334139 30.882892 53.854525 0
M  V30 42 H 37.854567 28.859613 58.745022 0
M  V30 43 H 36.657552 29.860156 57.966330 0
M  V30 44 H 42.097356 33.150298 61.954450 0
M  V30 45 H 39.676807 30.210042 57.707032 0
M  V30 46 H 39.948160 27.894945 57.206023 0
M  V30 47 H 38.252345 27.501063 57.184430 0
M  V30 48 H 37.467405 31.846990 56.403320 0
M  V30 49 H 39.155888 32.141796 56.221854 0
M  V30 50 H 38.240794 33.627975 57.785843 0
M  V30 51 H 39.467280 32.668800 58.564821 0
M  V30 52 H 41.050931 36.179684 64.827412 0
M  V30 53 H 38.900867 30.072267 60.920678 0
M  V30 54 H 40.189446 30.714383 55.213753 0
M  V30 55 H 40.667404 29.105504 55.053804 0
M  V30 56 H 36.861340 36.278996 58.966928 0
M  V30 57 H 36.442844 34.695991 58.326225 0
M  V30 58 H 35.636533 35.277474 59.752218 0
M  V30 59 H 36.941687 30.522507 60.281931 0
M  V30 60 H 38.620525 34.708997 59.529872 0
M  V30 61 H 40.006920 33.586303 60.710860 0
M  V30 62 H 38.962402 23.787446 57.453466 0
M  V30 63 H 38.528026 25.390239 58.016867 0
M  V30 64 H 37.679955 24.683744 56.638470 0
M  V30 65 H 39.867410 24.659630 55.365826 0
M  V30 66 H 40.643082 25.496495 56.694875 0
M  V30 67 H 36.835049 37.841879 63.418659 0
M  V30 68 H 38.422798 26.555588 54.905690 0
M  V30 69 H 40.106617 26.982637 54.839407 0
M  V30 70 H 40.616834 30.560794 50.700369 0
M  V30 71 H 38.891048 30.421446 50.653490 0
M  V30 72 H 39.124276 31.762926 52.684629 0
M  V30 73 H 40.712688 31.117122 52.958672 0
M  V30 74 H 42.621271 34.441528 64.012509 0
M  V30 75 H 37.067731 28.229275 55.053525 0
M  V30 76 H 36.602805 29.771016 55.723809 0
M  V30 77 H 35.516770 33.176391 60.202932 0
M  V30 END ATOM
M  V30 BEGIN BOND
M  V30 1 1 5 2
M  V30 2 1 8 6
M  V30 3 1 10 8
M  V30 4 1 10 9 CFG=1
M  V30 5 1 11 8
M  V30 6 1 13 11
M  V30 7 2 14 5
M  V30 8 1 16 10
M  V30 9 1 18 6
M  V30 10 1 18 15
M  V30 11 1 19 3
M  V30 12 1 19 17
M  V30 13 1 20 7
M  V30 14 1 23 21
M  V30 15 1 25 1
M  V30 16 2 25 2
M  V30 17 2 26 1
M  V30 18 1 26 19
M  V30 19 1 27 9
M  V30 20 1 27 23
M  V30 21 1 29 28
M  V30 22 1 30 12
M  V30 23 1 30 22
M  V30 24 1 30 24
M  V30 25 1 30 28
M  V30 26 1 31 3
M  V30 27 1 31 13
M  V30 28 1 31 18
M  V30 29 1 32 4
M  V30 30 1 32 16
M  V30 31 1 32 24 CFG=3
M  V30 32 1 32 29
M  V30 33 2 33 7
M  V30 34 1 33 14
M  V30 35 1 34 4
M  V30 36 1 34 10
M  V30 37 1 35 3
M  V30 38 1 36 5
M  V30 39 2 36 20
M  V30 40 1 36 26
M  V30 41 1 37 1
M  V30 42 1 38 2
M  V30 43 1 3 39 CFG=1
M  V30 44 1 40 4
M  V30 45 1 41 4
M  V30 46 1 42 6
M  V30 47 1 43 6
M  V30 48 1 44 7
M  V30 49 1 8 45 CFG=1
M  V30 50 1 46 9
M  V30 51 1 47 9
M  V30 52 1 48 11
M  V30 53 1 49 11
M  V30 54 1 50 13
M  V30 55 1 51 13
M  V30 56 1 52 14
M  V30 57 1 53 15
M  V30 58 1 54 16
M  V30 59 1 55 16
M  V30 60 1 56 17
M  V30 61 1 57 17
M  V30 62 1 58 17
M  V30 63 1 18 59 CFG=1
M  V30 64 1 19 60 CFG=3
M  V30 65 1 61 20
M  V30 66 1 62 21
M  V30 67 1 63 21
M  V30 68 1 64 21
M  V30 69 1 65 23
M  V30 70 1 66 23
M  V30 71 1 67 25
M  V30 72 1 68 27
M  V30 73 1 69 27
M  V30 74 1 70 28
M  V30 75 1 71 28
M  V30 76 1 72 29
M  V30 77 1 73 29
M  V30 78 1 74 33
M  V30 79 1 75 34
M  V30 80 1 76 34
M  V30 81 1 77 35
M  V30 END BOND
M  V30 END CTAB
M  END
>  <i_epik_Tot_Q>  (1) 
0

>  <i_epik_Tot_abs_Q>  (1) 
0

>  <i_i_glide_confnum>  (1) 
844

>  <i_i_glide_lignum>  (1) 
56

>  <i_i_glide_posenum>  (1) 
228

>  <i_i_glide_rotatable_bonds>  (1) 
9

>  <i_lp_mmshare_version>  (1) 
72125

>  <i_m_source_file_index>  (1) 
21

>  <i_f3d_flags>  (1) 
0

>  <num_sample>  (1) 
50

>  <b_lp_Chiralities_Consistent>  (1) 
1

>  <r_epik_Charging_Adjusted_Penalty>  (1) 
0.32925283897171748

>  <r_epik_Ionization_Penalty>  (1) 
0.0090765548759611635

>  <r_epik_Ionization_Penalty_Charging>  (1) 
0

>  <r_epik_Ionization_Penalty_Neutral>  (1) 
0.0090765548759611635

>  <r_epik_State_Penalty>  (1) 
0.32925283897171748

>  <r_glide_ring_energy>  (1) 
0.20613492024796795

>  <r_i_docking_score>  (1) 
-6.9789760867738444

>  <r_i_glide_ecoul>  (1) 
-0.91944649976472337

>  <r_i_glide_eff_state_penalty>  (1) 
0.32925283897171748

>  <r_i_glide_einternal>  (1) 
16.725234111204813

>  <r_i_glide_emodel>  (1) 
-26.393963761799483

>  <r_i_glide_emodel_strain>  (1) 
1.6629075227328229

>  <r_i_glide_energy>  (1) 
-35.835029100968704

>  <r_i_glide_erotb>  (1) 
0.48702584280874928

>  <r_i_glide_esite>  (1) 
-0.031934740393355268

>  <r_i_glide_evdw>  (1) 
-34.91558260120398

>  <r_i_glide_gscore>  (1) 
-7.3082289257455617

>  <r_i_glide_gscore_strain>  (1) 
0

>  <r_i_glide_hbond>  (1) 
0

>  <r_i_glide_ligand_efficiency>  (1) 
-0.193860446854829

>  <r_i_glide_ligand_efficiency_ln>  (1) 
-1.5226240319898423

>  <r_i_glide_ligand_efficiency_sa>  (1) 
-0.64011309195284871

>  <r_i_glide_lipo>  (1) 
-4.5089509350820904

>  <r_i_glide_metal>  (1) 
-0

>  <r_i_glide_rewards>  (1) 
-1.3706729880539577

>  <r_lp_Energy>  (1) 
40.512656

>  <s_epik_Chemistry_Notes>  (1) 
This compound contains an acetal/aminal-like group ( X-CH(R)-Y where X, Y are N, S, or O) that may be acid/base labile, releasing an aldehyde.

>  <s_epik_cmdline>  (1) 
J2VwaWtfcHl0aG9uJywgJy1waHQnLCAnMS4wJywgJy1waCcsICc3LjQnLCAnLXRuJywgJzgnLCAnLW1hJywgJzUwMCcsICctaW1hZScsICc8aW5maWxlLm1hZT4nLCAnLW9tYWUnLCAnPG91dGZpbGUubWFlPic=

>  <s_epik_input>  (1) 
W2NIXTFbY0hdW2NIXVtjSF1jKGMxMiljKFtjSF1bY0hdW2NIXTIpW0NASF0oW0NIM10pW0NAQEhdKFtPSF0pTihbQ0gyXVtDSDJdMylbQ0BIXShbT0hdKVtDSDJdW0NASF0zW0NAQF0oW0NIMl00KShbQ0gyXVtDSDJdW0NIMl1bQ0gzXSlbQ0gyXVtDSDJdW0NAXTQ1T0MoRikoRilbQ0gyXVtDSDJdNQ==

>  <s_glide_docking_method>  (1) 
confgen

>  <s_i_glide_gridfile>  (1) 
gpcr_5ht2c_6bqh_protein_autoprepared_prepared

>  <s_lp_Force_Field>  (1) 
S-OPLS

>  <s_lp_Variant>  (1) 
DiffSBDD_20_num_sample_50-1

>  <s_m_source_file>  (1) 
generated__ligand_DiffSBDD_2026-05-06_prepared.sdf

>  <GenAI_Model>  (1) 
DiffSBDD

>  <Protein>  (1) 
GPCR_5HT2C

$$$$
DiffSBDD_41_num_sample_50
     RDKit          3D

  0  0  0  0  0  0  0  0  0  0999 V3000
M  V30 BEGIN CTAB
M  V30 COUNTS 83 87 0 0 1
M  V30 BEGIN ATOM
M  V30 1 C 41.583309 33.447494 65.940308 0
M  V30 2 C 42.269821 32.579003 64.878872 0 CFG=2
M  V30 3 C 37.616720 32.570688 58.562200 0
M  V30 4 C 39.567322 37.418056 62.238704 0
M  V30 5 C 42.268864 30.630562 66.578092 0 CFG=1
M  V30 6 O 41.280758 29.777061 66.035099 0
M  V30 7 O 41.467449 31.090782 68.783381 0
M  V30 8 C 39.607621 29.089518 51.949149 0
M  V30 9 C 41.495745 33.369060 62.604834 0
M  V30 10 C 38.963735 31.749348 56.700415 0
M  V30 11 C 34.763445 32.969130 60.467552 0
M  V30 12 C 38.448948 32.541826 61.795322 0
M  V30 13 C 41.413396 32.270999 63.588901 0 CFG=2
M  V30 14 C 38.646499 30.184362 54.090488 0
M  V30 15 F 40.267407 28.012360 51.598516 0
M  V30 16 O 37.123852 31.074332 60.414325 0
M  V30 17 C 36.780976 33.684489 59.190567 0 CFG=2
M  V30 18 C 39.090792 31.426066 62.652385 0
M  V30 19 C 39.067397 30.485813 57.339690 0
M  V30 20 C 43.034588 31.388277 65.497898 0 CFG=1
M  V30 21 O 43.563576 30.474089 64.552842 0
M  V30 22 F 38.667399 29.221431 51.053549 0
M  V30 23 C 36.786185 35.920401 60.299077 0 CFG=1
M  V30 24 C 37.023770 32.193776 61.279805 0 CFG=2
M  V30 25 C 39.902692 30.887097 54.643298 0
M  V30 26 N 34.267403 32.421256 59.453504 0
M  V30 27 F 40.422218 30.132019 51.851785 0
M  V30 28 O 38.842682 36.493323 61.446299 0
M  V30 29 C 41.297442 32.940040 67.245632 0
M  V30 30 C 37.727729 31.305608 59.200783 0
M  V30 31 C 37.471577 35.031059 59.271944 0
M  V30 32 C 40.624978 35.607484 66.585425 0
M  V30 33 C 38.245356 32.785145 57.318616 0
M  V30 34 O 39.553450 31.980471 55.477370 0
M  V30 35 C 36.222630 33.332994 60.588240 0 CFG=2
M  V30 36 S 36.270223 34.818408 61.604426 0
M  V30 37 C 40.335739 35.105499 67.864697 0
M  V30 38 C 41.467366 34.308859 61.826964 0
M  V30 39 C 41.651163 31.532838 67.649644 0
M  V30 40 C 37.670034 37.046815 60.858400 0
M  V30 41 C 39.932290 31.933445 63.853472 0
M  V30 42 C 38.979705 28.888984 53.341254 0
M  V30 43 C 38.453531 30.272806 58.584885 0
M  V30 44 C 41.246244 34.786258 65.627552 0
M  V30 45 C 40.672791 33.781043 68.196596 0
M  V30 46 H 43.067403 33.247639 64.563740 0
M  V30 47 H 40.537368 36.999419 62.504034 0
M  V30 48 H 39.739381 38.354975 61.708506 0
M  V30 49 H 39.032989 37.621475 63.166175 0
M  V30 50 H 42.977446 29.982302 67.095581 0
M  V30 51 H 41.711621 29.076140 65.571078 0
M  V30 52 H 34.153998 33.221512 61.338093 0
M  V30 53 H 38.410799 33.445465 62.394048 0
M  V30 54 H 39.109383 32.791083 60.965839 0
M  V30 55 H 41.850804 31.431023 63.053414 0
M  V30 56 H 37.971054 29.931910 54.908209 0
M  V30 57 H 38.094584 30.870338 53.453503 0
M  V30 58 H 35.981895 33.875346 58.472226 0
M  V30 59 H 39.676491 30.753864 62.024953 0
M  V30 60 H 38.291850 30.803131 63.053529 0
M  V30 61 H 39.617987 29.682409 56.879897 0
M  V30 62 H 43.905704 31.813139 66.001203 0
M  V30 63 H 42.846532 30.109614 64.056841 0
M  V30 64 H 35.885701 36.341448 59.851164 0
M  V30 65 H 36.452198 31.872296 62.148114 0
M  V30 66 H 40.478937 31.311543 53.827256 0
M  V30 67 H 40.592154 30.196472 55.127077 0
M  V30 68 H 33.276423 32.252574 59.525079 0
M  V30 69 H 38.494715 34.821613 59.585161 0
M  V30 70 H 37.467400 35.515188 58.297020 0
M  V30 71 H 40.370949 36.627181 66.336380 0
M  V30 72 H 38.153877 33.741311 56.826648 0
M  V30 73 H 39.858931 35.739756 68.597686 0
M  V30 74 H 41.421476 35.136959 61.154449 0
M  V30 75 H 37.930382 37.749995 60.067691 0
M  V30 76 H 37.107967 37.606384 61.606952 0
M  V30 77 H 39.867389 31.183422 64.636034 0
M  V30 78 H 39.467461 32.821421 64.269078 0
M  V30 79 H 39.615174 28.276193 53.977403 0
M  V30 80 H 38.068616 28.301035 53.222350 0
M  V30 81 H 38.535853 29.310542 59.067537 0
M  V30 82 H 41.467838 35.184456 64.650067 0
M  V30 83 H 40.452762 33.406908 69.183343 0
M  V30 END ATOM
M  V30 BEGIN BOND
M  V30 1 1 2 1
M  V30 2 1 6 5
M  V30 3 1 13 2
M  V30 4 1 13 9
M  V30 5 1 15 8
M  V30 6 1 17 3
M  V30 7 1 18 12
M  V30 8 1 19 10
M  V30 9 1 20 2
M  V30 10 1 20 5
M  V30 11 1 21 20
M  V30 12 1 22 8
M  V30 13 1 24 12
M  V30 14 1 24 16
M  V30 15 1 25 14
M  V30 16 2 26 11
M  V30 17 1 27 8
M  V30 18 1 28 4
M  V30 19 1 29 1
M  V30 20 2 30 3
M  V30 21 1 30 16
M  V30 22 1 31 17
M  V30 23 1 31 23
M  V30 24 1 33 3
M  V30 25 2 33 10
M  V30 26 1 34 10
M  V30 27 1 34 25
M  V30 28 1 35 11 CFG=3
M  V30 29 1 35 17
M  V30 30 1 35 24
M  V30 31 1 36 23
M  V30 32 1 36 35
M  V30 33 2 37 32
M  V30 34 3 38 9
M  V30 35 1 39 5
M  V30 36 2 39 7
M  V30 37 1 39 29
M  V30 38 1 40 23
M  V30 39 1 40 28
M  V30 40 1 41 13
M  V30 41 1 41 18
M  V30 42 1 42 8
M  V30 43 1 42 14
M  V30 44 2 43 19
M  V30 45 1 43 30
M  V30 46 2 44 1
M  V30 47 1 44 32
M  V30 48 2 45 29
M  V30 49 1 45 37
M  V30 50 1 2 46 CFG=3
M  V30 51 1 47 4
M  V30 52 1 48 4
M  V30 53 1 49 4
M  V30 54 1 5 50 CFG=1
M  V30 55 1 51 6
M  V30 56 1 52 11
M  V30 57 1 53 12
M  V30 58 1 54 12
M  V30 59 1 13 55 CFG=3
M  V30 60 1 56 14
M  V30 61 1 57 14
M  V30 62 1 17 58 CFG=3
M  V30 63 1 59 18
M  V30 64 1 60 18
M  V30 65 1 61 19
M  V30 66 1 20 62 CFG=1
M  V30 67 1 63 21
M  V30 68 1 23 64 CFG=3
M  V30 69 1 24 65 CFG=1
M  V30 70 1 66 25
M  V30 71 1 67 25
M  V30 72 1 68 26
M  V30 73 1 69 31
M  V30 74 1 70 31
M  V30 75 1 71 32
M  V30 76 1 72 33
M  V30 77 1 73 37
M  V30 78 1 74 38
M  V30 79 1 75 40
M  V30 80 1 76 40
M  V30 81 1 77 41
M  V30 82 1 78 41
M  V30 83 1 79 42
M  V30 84 1 80 42
M  V30 85 1 81 43
M  V30 86 1 82 44
M  V30 87 1 83 45
M  V30 END BOND
M  V30 END CTAB
M  END
>  <i_epik_Tot_Q>  (1) 
0

>  <i_epik_Tot_abs_Q>  (1) 
0

>  <i_i_glide_confnum>  (1) 
474

>  <i_i_glide_lignum>  (1) 
99

>  <i_i_glide_posenum>  (1) 
377

>  <i_i_glide_rotatable_bonds>  (1) 
16

>  <i_lp_mmshare_version>  (1) 
72125

>  <i_m_source_file_index>  (1) 
42

>  <i_f3d_flags>  (1) 
0

>  <num_sample>  (1) 
50

>  <b_lp_Chiralities_Consistent>  (1) 
1

>  <r_epik_Charging_Adjusted_Penalty>  (1) 
0.41067983895260396

>  <r_epik_Ionization_Penalty>  (1) 
0.0048607436090088536

>  <r_epik_Ionization_Penalty_Charging>  (1) 
0

>  <r_epik_Ionization_Penalty_Neutral>  (1) 
0.0048607436090088536

>  <r_epik_State_Penalty>  (1) 
0.41067983895260396

>  <r_glide_ring_energy>  (1) 
0.56107915077032222

>  <r_i_docking_score>  (1) 
-6.9782065475460886

>  <r_i_glide_ecoul>  (1) 
2.4710110682844393

>  <r_i_glide_eff_state_penalty>  (1) 
0.41067983895260396

>  <r_i_glide_einternal>  (1) 
9.8888763822054777

>  <r_i_glide_emodel>  (1) 
-43.318937375086541

>  <r_i_glide_emodel_strain>  (1) 
2.6237142966829765

>  <r_i_glide_energy>  (1) 
-37.127188667915561

>  <r_i_glide_erotb>  (1) 
0.41134081239429626

>  <r_i_glide_esite>  (1) 
0

>  <r_i_glide_evdw>  (1) 
-39.598199736200002

>  <r_i_glide_gscore>  (1) 
-7.3888863864986929

>  <r_i_glide_gscore_strain>  (1) 
0

>  <r_i_glide_hbond>  (1) 
0

>  <r_i_glide_ligand_efficiency>  (1) 
-0.15507125661213531

>  <r_i_glide_ligand_efficiency_ln>  (1) 
-1.451777935812492

>  <r_i_glide_ligand_efficiency_sa>  (1) 
-0.55157191436256447

>  <r_i_glide_lipo>  (1) 
-4.1934291242950126

>  <r_i_glide_metal>  (1) 
-0

>  <r_i_glide_rewards>  (1) 
-1.9975397480306416

>  <r_lp_Energy>  (1) 
49.308972999999995

>  <r_lp_tautomer_probability>  (1) 
0.5

>  <s_epik_Chemistry_Notes>  (1) 
This compound has an imine and may undergo hydrolysis.

>  <s_epik_cmdline>  (1) 
J2VwaWtfcHl0aG9uJywgJy1waHQnLCAnMS4wJywgJy1waCcsICc3LjQnLCAnLXRuJywgJzgnLCAnLW1hJywgJzUwMCcsICctaW1hZScsICc8aW5maWxlLm1hZT4nLCAnLW9tYWUnLCAnPG91dGZpbGUubWFlPic=

>  <s_epik_input>  (1) 
W2NIXTFbY0hdW2NIXVtjSF1jKGMxMilDKD1PKVtDQEBIXShbT0hdKVtDQEBIXShbT0hdKVtDQEBIXTJbQ0BASF0oQyNbQ0hdKVtDSDJdW0NIMl1bQ0gyXVtDQEBIXTNPYyhjNFtDQEBIXShbQ0BAXTM1L1tDSF09Ti9bSF0pW0NIMl1bQ0BASF0oUzUpW0NIMl1PW0NIM10pW2NIXVtjSF1jKFtjSF00KU9bQ0gyXVtDSDJdW0NIMl1DKEYpKEYpRg==

>  <s_glide_docking_method>  (1) 
confgen

>  <s_i_glide_gridfile>  (1) 
gpcr_5ht2c_6bqh_protein_autoprepared_prepared

>  <s_lp_Force_Field>  (1) 
S-OPLS

>  <s_lp_Variant>  (1) 
DiffSBDD_41_num_sample_50-4

>  <s_m_source_file>  (1) 
generated__ligand_DiffSBDD_2026-05-06_prepared.sdf

>  <GenAI_Model>  (1) 
DiffSBDD

>  <Protein>  (1) 
GPCR_5HT2C

$$$$
DiffSBDD_23_num_sample_50
     RDKit          3D

  0  0  0  0  0  0  0  0  0  0999 V3000
M  V30 BEGIN CTAB
M  V30 COUNTS 60 64 0 0 1
M  V30 BEGIN ATOM
M  V30 1 C 37.070218 35.077549 61.062221 0
M  V30 2 C 38.906068 28.692189 51.389783 0 CFG=2
M  V30 3 C 38.132712 30.593441 59.532212 0
M  V30 4 C 38.379077 26.671946 57.753219 0 CFG=1
M  V30 5 S 37.285761 29.873340 55.038607 0
M  V30 6 C 37.549584 31.850506 59.342426 0
M  V30 7 C 37.334714 34.298487 59.812337 0
M  V30 8 N 39.096128 31.615721 54.479479 0
M  V30 9 C 38.268305 29.640277 53.608560 0
M  V30 10 C 40.112268 30.821361 52.311693 0
M  V30 11 S 37.855013 25.738086 55.308378 0
M  V30 12 O 38.972547 24.821548 55.053074 0
M  V30 13 C 39.634105 31.527563 61.199827 0
M  V30 14 C 38.082149 28.479464 52.689147 0 CFG=2
M  V30 15 N 38.483187 26.997424 56.336609 0
M  V30 16 C 39.167005 30.426639 60.461558 0
M  V30 17 C 38.001608 32.971559 60.068222 0
M  V30 18 C 40.268601 28.628299 57.043030 0
M  V30 19 C 38.288886 35.908047 61.363646 0
M  V30 20 O 38.264489 37.123013 61.174818 0
M  V30 21 Cl 39.526734 25.314628 57.853530 0
M  V30 22 C 39.671403 33.953509 61.846418 0
M  V30 23 S 37.559436 29.221570 58.583045 0
M  V30 24 N 37.467421 26.637529 54.042451 0 CHG=-1
M  V30 25 O 36.667548 25.190490 55.978351 0
M  V30 26 N 39.357056 35.200126 61.867330 0
M  V30 27 C 39.812860 27.588300 56.011638 0
M  V30 28 C 39.165972 30.661596 53.453294 0
M  V30 29 C 38.146880 31.338098 55.361064 0
M  V30 30 O 40.106578 28.205332 58.383528 0
M  V30 31 C 39.074906 32.819679 61.020263 0
M  V30 32 N 38.494706 27.220529 53.270039 0
M  V30 33 N 39.067522 27.430149 50.653454 0 CHG=1
M  V30 34 C 38.767791 27.847927 58.674706 0 CFG=2
M  V30 35 C 40.222214 29.518026 51.467978 0
M  V30 36 H 36.747864 34.445381 61.885702 0
M  V30 37 H 36.267383 35.779156 60.867276 0
M  V30 38 H 38.267660 29.292714 50.755125 0
M  V30 39 H 37.383739 26.305909 57.999635 0
M  V30 40 H 36.747442 31.962029 58.628750 0
M  V30 41 H 36.364248 34.095784 59.356127 0
M  V30 42 H 37.867428 34.864133 59.052803 0
M  V30 43 H 39.715216 31.600375 51.659808 0
M  V30 44 H 41.067091 31.218557 52.647639 0
M  V30 45 H 40.437513 31.386171 61.908661 0
M  V30 46 H 37.028439 28.397779 52.410861 0
M  V30 47 H 39.612239 29.454874 60.610037 0
M  V30 48 H 39.761661 29.579521 56.886465 0
M  V30 49 H 41.329008 28.821417 56.898669 0
M  V30 50 H 40.487997 33.634868 62.497372 0
M  V30 51 H 39.818151 28.095534 55.058972 0
M  V30 52 H 40.558076 26.796672 55.923431 0
M  V30 53 H 37.954019 31.995802 56.194658 0
M  V30 54 H 38.806557 26.552229 52.584791 0
M  V30 55 H 39.779394 26.855525 51.080890 0
M  V30 56 H 38.182162 26.940327 50.685417 0
M  V30 57 H 38.744227 27.494744 59.704946 0
M  V30 58 H 40.555714 29.780215 50.463593 0
M  V30 59 H 41.010384 28.878442 51.853462 0
M  V30 60 H 39.317478 27.619221 49.696050 0
M  V30 END ATOM
M  V30 BEGIN BOND
M  V30 1 2 6 3
M  V30 2 1 7 1
M  V30 3 1 9 5
M  V30 4 2 12 11
M  V30 5 1 14 2
M  V30 6 1 14 9
M  V30 7 1 15 4
M  V30 8 1 15 11
M  V30 9 1 16 3
M  V30 10 2 16 13
M  V30 11 1 17 6
M  V30 12 1 17 7
M  V30 13 1 19 1
M  V30 14 2 20 19
M  V30 15 1 21 4
M  V30 16 1 23 3
M  V30 17 1 24 11
M  V30 18 2 25 11
M  V30 19 1 26 19
M  V30 20 2 26 22
M  V30 21 1 27 15
M  V30 22 1 27 18
M  V30 23 1 28 8
M  V30 24 2 28 9
M  V30 25 1 28 10
M  V30 26 1 29 5
M  V30 27 2 29 8
M  V30 28 1 30 18
M  V30 29 1 31 13
M  V30 30 2 31 17
M  V30 31 1 31 22
M  V30 32 1 32 14
M  V30 33 1 32 24
M  V30 34 1 33 2
M  V30 35 1 34 4
M  V30 36 1 34 23
M  V30 37 1 34 30
M  V30 38 1 35 2
M  V30 39 1 35 10
M  V30 40 1 36 1
M  V30 41 1 37 1
M  V30 42 1 2 38 CFG=3
M  V30 43 1 4 39 CFG=1
M  V30 44 1 40 6
M  V30 45 1 41 7
M  V30 46 1 42 7
M  V30 47 1 43 10
M  V30 48 1 44 10
M  V30 49 1 45 13
M  V30 50 1 14 46 CFG=3
M  V30 51 1 47 16
M  V30 52 1 48 18
M  V30 53 1 49 18
M  V30 54 1 50 22
M  V30 55 1 51 27
M  V30 56 1 52 27
M  V30 57 1 53 29
M  V30 58 1 54 32
M  V30 59 1 55 33
M  V30 60 1 56 33
M  V30 61 1 34 57 CFG=1
M  V30 62 1 58 35
M  V30 63 1 59 35
M  V30 64 1 60 33
M  V30 END BOND
M  V30 END CTAB
M  END
>  <i_epik_Tot_Q>  (1) 
0

>  <i_epik_Tot_abs_Q>  (1) 
2

>  <i_i_glide_confnum>  (1) 
75

>  <i_i_glide_lignum>  (1) 
65

>  <i_i_glide_posenum>  (1) 
144

>  <i_i_glide_rotatable_bonds>  (1) 
6

>  <i_lp_mmshare_version>  (1) 
72125

>  <i_m_source_file_index>  (1) 
24

>  <i_f3d_flags>  (1) 
0

>  <num_sample>  (1) 
50

>  <b_lp_Chiralities_Consistent>  (1) 
1

>  <r_epik_Charging_Adjusted_Penalty>  (1) 
2.2272092532468064

>  <r_epik_Ionization_Penalty>  (1) 
1.0462412004884125

>  <r_epik_Ionization_Penalty_Charging>  (1) 
1.0439143913358477

>  <r_epik_Ionization_Penalty_Neutral>  (1) 
0.002326809152564684

>  <r_epik_State_Penalty>  (1) 
1.1832948619109587

>  <r_glide_ring_energy>  (1) 
0.3639150976043069

>  <r_i_docking_score>  (1) 
-6.9773247341659577

>  <r_i_glide_ecoul>  (1) 
-1.9422887304927896

>  <r_i_glide_eff_state_penalty>  (1) 
1.1832948619109587

>  <r_i_glide_einternal>  (1) 
25.227904885436978

>  <r_i_glide_emodel>  (1) 
-75.217113336542468

>  <r_i_glide_emodel_strain>  (1) 
0.90142965068919523

>  <r_i_glide_energy>  (1) 
-55.277345538044479

>  <r_i_glide_erotb>  (1) 
0.32509228849270932

>  <r_i_glide_esite>  (1) 
0

>  <r_i_glide_evdw>  (1) 
-53.335056807551688

>  <r_i_glide_gscore>  (1) 
-8.1606195960769163

>  <r_i_glide_gscore_strain>  (1) 
0

>  <r_i_glide_hbond>  (1) 
0

>  <r_i_glide_ligand_efficiency>  (1) 
-0.1993521352618845

>  <r_i_glide_ligand_efficiency_ln>  (1) 
-1.5316776325286232

>  <r_i_glide_ligand_efficiency_sa>  (1) 
-0.65209405351930927

>  <r_i_glide_lipo>  (1) 
-3.429472777947296

>  <r_i_glide_metal>  (1) 
-0

>  <r_i_glide_rewards>  (1) 
-2.0981429566708258

>  <r_lp_Energy>  (1) 
42.677467

>  <s_epik_Chemistry_Notes>  (1) 
This compound has an imine and may undergo hydrolysis. This compound contains an acetal/aminal-like group ( X-CH(R)-Y where X, Y are N, S, or O) that may be acid/base labile, releasing an aldehyde.

>  <s_epik_cmdline>  (1) 
J2VwaWtfcHl0aG9uJywgJy1waHQnLCAnMS4wJywgJy1waCcsICc3LjQnLCAnLXRuJywgJzgnLCAnLW1hJywgJzUwMCcsICctaW1hZScsICc8aW5maWxlLm1hZT4nLCAnLW9tYWUnLCAnPG91dGZpbGUubWFlPic=

>  <s_epik_input>  (1) 
W0NIMl0xW0NIMl1DKD1PKU49W0NIXWMoYzEyKVtjSF1bY0hdYyhbY0hdMilTW0NAQEhdM09bQ0gyXVtDSDJdTihbQ0BIXTNDbClTKD1PKSg9TylbTkhdW05IXVtDQEBIXTRbQ0BASF0oW05IMl0pW0NIMl1bQ0gyXWMoYzQ1KW5bY0hdczU=

>  <s_glide_docking_method>  (1) 
confgen

>  <s_i_glide_gridfile>  (1) 
gpcr_5ht2c_6bqh_protein_autoprepared_prepared

>  <s_lp_Force_Field>  (1) 
S-OPLS

>  <s_lp_Variant>  (1) 
DiffSBDD_23_num_sample_50-4

>  <s_m_source_file>  (1) 
generated__ligand_DiffSBDD_2026-05-06_prepared.sdf

>  <GenAI_Model>  (1) 
DiffSBDD

>  <Protein>  (1) 
GPCR_5HT2C

$$$$
DiffSBDD_2_num_sample_50
     RDKit          3D

  0  0  0  0  0  0  0  0  0  0999 V3000
M  V30 BEGIN CTAB
M  V30 COUNTS 69 73 0 0 1
M  V30 BEGIN ATOM
M  V30 1 C 37.711921 29.491848 57.962888 0
M  V30 2 C 40.170228 34.633466 62.693918 0
M  V30 3 C 38.063496 32.260028 56.472625 0
M  V30 4 C 36.782366 31.947232 61.853502 0
M  V30 5 F 41.786784 34.473643 64.430958 0
M  V30 6 C 41.053613 33.760645 63.574792 0
M  V30 7 C 37.664795 30.403992 58.900228 0
M  V30 8 C 39.101228 29.131938 59.468157 0
M  V30 9 C 34.813373 33.486353 60.066292 0
M  V30 10 C 37.459427 32.760346 57.818114 0 CFG=1
M  V30 11 C 39.585881 27.678691 57.395803 0
M  V30 12 C 40.173326 29.173590 62.465127 0 CFG=2
M  V30 13 C 36.267712 37.194286 60.469161 0
M  V30 14 C 38.527066 34.835852 60.885100 0
M  V30 15 C 39.140993 27.182625 56.034298 0
M  V30 16 C 39.542972 33.221427 58.809372 0
M  V30 17 C 37.643453 34.170477 59.796746 0 CFG=2
M  V30 18 C 40.837350 27.514365 57.852272 0
M  V30 19 O 40.117318 30.300147 63.304149 0
M  V30 20 O 33.964789 32.553952 59.453465 0
M  V30 21 C 39.395923 36.841223 61.998328 0
M  V30 22 F 40.304810 32.908526 64.270335 0
M  V30 23 O 41.468121 28.638230 62.209339 0
M  V30 24 C 40.195845 36.036803 62.828822 0
M  V30 25 C 40.899208 29.465275 61.182408 0 CFG=1
M  V30 26 C 39.331254 34.034685 61.732015 0
M  V30 27 P 36.543249 32.787143 60.250217 0 CFG=1 CHG=1
M  V30 28 C 41.254993 28.021448 59.155597 0
M  V30 29 C 36.873669 31.689991 58.809248 0 CFG=2
M  V30 30 C 37.743303 37.148280 60.100951 0
M  V30 31 C 38.523629 28.320237 58.253803 0 CFG=2
M  V30 32 N 38.422608 30.103216 59.994221 0
M  V30 33 N 38.265334 33.737618 58.556374 0
M  V30 34 C 38.566847 36.252987 61.021146 0
M  V30 35 F 41.873439 33.061479 62.790006 0
M  V30 36 C 40.452076 28.786821 59.937250 0
M  V30 37 H 37.174489 29.568454 57.028961 0
M  V30 38 H 37.330001 31.744971 55.853431 0
M  V30 39 H 38.423935 33.100367 55.879740 0
M  V30 40 H 38.892990 31.565487 56.602612 0
M  V30 41 H 37.739683 31.452405 61.982127 0
M  V30 42 H 36.685549 32.668664 62.653444 0
M  V30 43 H 35.992904 31.202932 61.853789 0
M  V30 44 H 34.800624 34.400478 59.472893 0
M  V30 45 H 34.405092 33.719073 61.048191 0
M  V30 46 H 36.660459 33.416079 57.502102 0
M  V30 47 H 39.342656 28.477473 62.478468 0
M  V30 48 H 35.686147 37.621369 59.660659 0
M  V30 49 H 35.870001 36.194285 60.606411 0
M  V30 50 H 36.103718 37.773575 61.379604 0
M  V30 51 H 38.754138 28.006857 55.436071 0
M  V30 52 H 39.963282 26.721694 55.486433 0
M  V30 53 H 38.349501 26.441021 56.143923 0
M  V30 54 H 39.867405 32.943869 57.824654 0
M  V30 55 H 40.215849 33.977171 59.207240 0
M  V30 56 H 39.483910 32.358566 59.465892 0
M  V30 57 H 36.958918 34.915234 59.417847 0
M  V30 58 H 41.564574 27.016060 57.226861 0
M  V30 59 H 40.019530 29.988639 64.193507 0
M  V30 60 H 34.285999 32.371835 58.572683 0
M  V30 61 H 39.428916 37.916076 62.099476 0
M  V30 62 H 40.836911 36.499304 63.565411 0
M  V30 63 H 41.306824 30.466254 61.061010 0
M  V30 64 H 39.322268 32.961559 61.629696 0
M  V30 65 H 42.266754 27.833148 59.478645 0
M  V30 66 H 35.892971 31.269186 58.653509 0
M  V30 67 H 38.135226 38.166979 60.129591 0
M  V30 68 H 37.867308 36.831397 59.066202 0
M  V30 69 H 37.867555 27.530710 58.615953 0
M  V30 END ATOM
M  V30 BEGIN BOND
M  V30 1 1 6 2
M  V30 2 1 6 5
M  V30 3 2 7 1
M  V30 4 1 10 3
M  V30 5 1 15 11
M  V30 6 1 17 14
M  V30 7 2 18 11
M  V30 8 1 19 12
M  V30 9 1 20 9
M  V30 10 1 22 6
M  V30 11 1 23 12
M  V30 12 1 24 2
M  V30 13 2 24 21
M  V30 14 1 25 12
M  V30 15 1 25 23
M  V30 16 2 26 2
M  V30 17 1 26 14
M  V30 18 1 27 4 CFG=1
M  V30 19 1 27 9
M  V30 20 1 27 17
M  V30 21 1 28 18
M  V30 22 1 29 7
M  V30 23 1 29 10
M  V30 24 1 29 27
M  V30 25 1 30 13
M  V30 26 1 31 1
M  V30 27 1 31 8
M  V30 28 1 31 11
M  V30 29 1 32 7
M  V30 30 2 32 8
M  V30 31 1 33 10
M  V30 32 1 33 16
M  V30 33 1 33 17
M  V30 34 2 34 14
M  V30 35 1 34 21
M  V30 36 1 34 30
M  V30 37 1 35 6
M  V30 38 1 36 8
M  V30 39 1 36 25
M  V30 40 2 36 28
M  V30 41 1 37 1
M  V30 42 1 38 3
M  V30 43 1 39 3
M  V30 44 1 40 3
M  V30 45 1 41 4
M  V30 46 1 42 4
M  V30 47 1 43 4
M  V30 48 1 44 9
M  V30 49 1 45 9
M  V30 50 1 10 46 CFG=3
M  V30 51 1 12 47 CFG=3
M  V30 52 1 48 13
M  V30 53 1 49 13
M  V30 54 1 50 13
M  V30 55 1 51 15
M  V30 56 1 52 15
M  V30 57 1 53 15
M  V30 58 1 54 16
M  V30 59 1 55 16
M  V30 60 1 56 16
M  V30 61 1 17 57 CFG=3
M  V30 62 1 58 18
M  V30 63 1 59 19
M  V30 64 1 60 20
M  V30 65 1 61 21
M  V30 66 1 62 24
M  V30 67 1 25 63 CFG=3
M  V30 68 1 64 26
M  V30 69 1 65 28
M  V30 70 1 29 66 CFG=3
M  V30 71 1 67 30
M  V30 72 1 68 30
M  V30 73 1 31 69 CFG=1
M  V30 END BOND
M  V30 END CTAB
M  END
>  <i_epik_Tot_Q>  (1) 
1

>  <i_epik_Tot_abs_Q>  (1) 
1

>  <i_i_glide_confnum>  (1) 
42

>  <i_i_glide_lignum>  (1) 
9

>  <i_i_glide_posenum>  (1) 
309

>  <i_i_glide_rotatable_bonds>  (1) 
8

>  <i_lp_mmshare_version>  (1) 
72125

>  <i_m_source_file_index>  (1) 
3

>  <i_f3d_flags>  (1) 
0

>  <num_sample>  (1) 
50

>  <b_lp_Chiralities_Consistent>  (1) 
1

>  <r_epik_Charging_Adjusted_Penalty>  (1) 
0.0033292626678827373

>  <r_epik_Ionization_Penalty>  (1) 
0.0034349233012131116

>  <r_epik_Ionization_Penalty_Charging>  (1) 
0

>  <r_epik_Ionization_Penalty_Neutral>  (1) 
0.0034349233012131116

>  <r_epik_State_Penalty>  (1) 
0.0033292626678827373

>  <r_glide_ring_energy>  (1) 
0

>  <r_i_docking_score>  (1) 
-6.9713220774144808

>  <r_i_glide_ecoul>  (1) 
-5.2794336170869878

>  <r_i_glide_eff_state_penalty>  (1) 
0.0033292626678827373

>  <r_i_glide_einternal>  (1) 
4.3389683600297477

>  <r_i_glide_emodel>  (1) 
-30.176964224817969

>  <r_i_glide_emodel_strain>  (1) 
1.7406621638579338

>  <r_i_glide_energy>  (1) 
-27.529036047961888

>  <r_i_glide_erotb>  (1) 
0.30231676593683265

>  <r_i_glide_esite>  (1) 
-0.054469956202043202

>  <r_i_glide_evdw>  (1) 
-22.249602430874901

>  <r_i_glide_gscore>  (1) 
-6.9746513400823638

>  <r_i_glide_gscore_strain>  (1) 
0

>  <r_i_glide_hbond>  (1) 
-0.37302631000343511

>  <r_i_glide_ligand_efficiency>  (1) 
-0.19364783548373557

>  <r_i_glide_ligand_efficiency_ln>  (1) 
-1.520954133935065

>  <r_i_glide_ligand_efficiency_sa>  (1) 
-0.63941106467321041

>  <r_i_glide_lipo>  (1) 
-3.1659797147563489

>  <r_i_glide_metal>  (1) 
-0

>  <r_i_glide_rewards>  (1) 
-1.7790969609505753

>  <r_lp_Energy>  (1) 
43.507885999999999

>  <s_epik_Chemistry_Notes>  (1) 
This compound has an imine and may undergo hydrolysis. This compound contains an acetal/aminal-like group ( X-CH(R)-Y where X, Y are N, S, or O) that may be acid/base labile, releasing an aldehyde.

>  <s_epik_cmdline>  (1) 
J2VwaWtfcHl0aG9uJywgJy1waHQnLCAnMS4wJywgJy1waCcsICc3LjQnLCAnLXRuJywgJzgnLCAnLW1hJywgJzUwMCcsICctaW1hZScsICc8aW5maWxlLm1hZT4nLCAnLW9tYWUnLCAnPG91dGZpbGUubWFlPic=

>  <s_epik_input>  (1) 
W09IXVtDSF0xT1tDQEhdMUMyPVtDSF1bQ0hdPUMoW0NIM10pW0NAQEhdKEMyPTMpW0NIXT1DKE4zKVtDQEBIXTRbQ0BIXShbQ0gzXSlOKFtDSDNdKVtDQEBIXShbUEArXTQoW0NIM10pW0NIMl1bT0hdKWMoW2NIXTUpYyhbQ0gyXVtDSDNdKVtjSF1bY0hdYzVDKEYpKEYpRg==

>  <s_glide_docking_method>  (1) 
confgen

>  <s_i_glide_gridfile>  (1) 
gpcr_5ht2c_6bqh_protein_autoprepared_prepared

>  <s_lp_Force_Field>  (1) 
S-OPLS

>  <s_lp_Variant>  (1) 
DiffSBDD_2_num_sample_50-2

>  <s_m_source_file>  (1) 
generated__ligand_DiffSBDD_2026-05-06_prepared.sdf

>  <GenAI_Model>  (1) 
DiffSBDD

>  <Protein>  (1) 
GPCR_5HT2C

$$$$
DiffSBDD_29_num_sample_50
     RDKit          3D

  0  0  0  0  0  0  0  0  0  0999 V3000
M  V30 BEGIN CTAB
M  V30 COUNTS 79 81 0 0 1
M  V30 BEGIN ATOM
M  V30 1 C 41.532471 33.660264 65.886998 0
M  V30 2 C 39.467190 29.927948 58.850790 0
M  V30 3 C 41.029858 33.211745 64.511203 0
M  V30 4 C 38.803630 29.122572 53.394642 0
M  V30 5 C 37.379881 36.285942 60.102964 0
M  V30 6 C 38.940277 27.621600 55.431865 0
M  V30 7 C 38.838944 36.169083 63.139062 0 CFG=2
M  V30 8 N 37.756948 31.745151 59.174939 0 CHG=1
M  V30 9 C 38.494636 35.446140 60.651691 0 CFG=1
M  V30 10 N 38.962395 28.635573 56.205277 0
M  V30 11 C 38.261379 35.177881 62.142925 0
M  V30 12 C 38.210276 32.729902 60.219116 0 CFG=2
M  V30 13 O 37.867400 32.153584 56.296169 0
M  V30 14 O 39.843175 37.082099 62.697519 0
M  V30 15 C 36.713662 35.786674 59.107923 0
M  V30 16 C 37.211161 27.168115 53.703186 0
M  V30 17 C 37.057359 37.629458 60.760527 0
M  V30 18 C 41.341978 35.230851 62.991441 0
M  V30 19 C 38.307400 34.171149 59.639555 0 CFG=1
M  V30 20 C 38.185301 30.137814 54.359354 0
M  V30 21 C 42.373859 32.659805 66.683830 0
M  V30 22 F 41.629344 31.598373 66.996473 0
M  V30 23 O 39.351997 28.021460 60.233391 0
M  V30 24 O 39.467431 26.830367 53.204745 0
M  V30 25 C 38.061049 38.762907 60.526385 0
M  V30 26 C 38.735150 31.144013 58.217162 0 CFG=2
M  V30 27 F 43.416502 32.261703 65.955150 0
M  V30 28 C 37.112571 34.457221 58.613123 0
M  V30 29 C 38.558457 28.822188 59.397168 0
M  V30 30 C 38.058117 30.861048 56.838826 0 CFG=2
M  V30 31 C 41.686196 33.984031 63.377224 0
M  V30 32 F 42.823375 33.218812 67.808497 0
M  V30 33 C 38.835819 30.027239 55.764257 0 CFG=1
M  V30 34 O 41.265658 34.775199 66.334897 0
M  V30 35 C 40.280828 36.070776 63.608514 0 CFG=2
M  V30 36 C 38.629355 27.694139 53.943044 0 CFG=1
M  V30 37 C 39.502201 32.271426 60.935990 0
M  V30 38 H 40.107957 30.226966 59.668731 0
M  V30 39 H 40.199400 29.517070 58.158491 0
M  V30 40 H 39.946236 33.262430 64.442272 0
M  V30 41 H 41.272217 32.156938 64.380517 0
M  V30 42 H 39.862809 29.357178 53.275454 0
M  V30 43 H 38.358982 29.218174 52.403177 0
M  V30 44 H 39.138955 26.614283 55.807587 0
M  V30 45 H 38.128934 36.591136 63.847270 0
M  V30 46 H 37.082159 32.230539 58.594204 0
M  V30 47 H 39.458520 35.924965 60.478391 0
M  V30 48 H 37.178312 35.134458 62.253512 0
M  V30 49 H 38.624341 34.219526 62.470156 0
M  V30 50 H 37.407315 32.742053 60.957281 0
M  V30 51 H 36.918967 32.296407 56.241780 0
M  V30 52 H 35.878843 36.298140 58.653464 0
M  V30 53 H 36.465870 27.735958 54.253466 0
M  V30 54 H 36.959413 27.246518 52.653533 0
M  V30 55 H 37.107208 26.120423 53.989248 0
M  V30 56 H 36.093550 37.956426 60.373145 0
M  V30 57 H 36.888220 37.496592 61.827027 0
M  V30 58 H 41.871590 35.680216 62.167211 0
M  V30 59 H 39.223123 34.115120 59.053491 0
M  V30 60 H 37.108163 29.982884 54.429598 0
M  V30 61 H 38.323316 31.141983 53.956252 0
M  V30 62 H 40.015404 27.595356 59.709759 0
M  V30 63 H 39.142140 26.783292 52.317930 0
M  V30 64 H 37.656235 39.704837 60.895668 0
M  V30 65 H 38.997815 38.599108 61.053504 0
M  V30 66 H 38.267432 38.893044 59.464962 0
M  V30 67 H 39.467396 31.917482 58.003760 0
M  V30 68 H 37.467363 34.488109 57.582830 0
M  V30 69 H 36.255467 33.787887 58.696515 0
M  V30 70 H 38.106457 28.216110 58.614227 0
M  V30 71 H 37.747868 29.227680 59.999161 0
M  V30 72 H 37.080687 30.400015 56.990989 0
M  V30 73 H 42.483010 33.474462 62.856687 0
M  V30 74 H 39.841611 30.443029 55.687857 0
M  V30 75 H 40.542612 36.467558 64.586000 0
M  V30 76 H 39.862768 32.912622 61.723866 0
M  V30 77 H 39.373720 31.291366 61.396039 0
M  V30 78 H 40.342802 32.254793 60.253530 0
M  V30 79 H 37.264604 30.991571 59.628734 0
M  V30 END ATOM
M  V30 BEGIN BOND
M  V30 1 1 3 1
M  V30 2 1 9 5
M  V30 3 2 10 6
M  V30 4 1 11 7
M  V30 5 1 11 9
M  V30 6 1 12 8
M  V30 7 1 14 7
M  V30 8 2 15 5
M  V30 9 1 17 5
M  V30 10 1 19 9
M  V30 11 1 19 12
M  V30 12 1 20 4
M  V30 13 1 21 1
M  V30 14 1 22 21
M  V30 15 1 25 17
M  V30 16 1 26 2
M  V30 17 1 26 8
M  V30 18 1 27 21
M  V30 19 1 28 15
M  V30 20 1 28 19
M  V30 21 1 29 2
M  V30 22 1 29 23
M  V30 23 1 30 13
M  V30 24 1 30 26
M  V30 25 1 31 3
M  V30 26 2 31 18
M  V30 27 1 32 21
M  V30 28 1 33 10
M  V30 29 1 33 20
M  V30 30 1 33 30
M  V30 31 2 34 1
M  V30 32 1 35 7
M  V30 33 1 35 14
M  V30 34 1 35 18
M  V30 35 1 36 4
M  V30 36 1 36 6
M  V30 37 1 36 16
M  V30 38 1 36 24 CFG=3
M  V30 39 1 37 12
M  V30 40 1 38 2
M  V30 41 1 39 2
M  V30 42 1 40 3
M  V30 43 1 41 3
M  V30 44 1 42 4
M  V30 45 1 43 4
M  V30 46 1 44 6
M  V30 47 1 7 45 CFG=1
M  V30 48 1 46 8
M  V30 49 1 9 47 CFG=1
M  V30 50 1 48 11
M  V30 51 1 49 11
M  V30 52 1 12 50 CFG=1
M  V30 53 1 51 13
M  V30 54 1 52 15
M  V30 55 1 53 16
M  V30 56 1 54 16
M  V30 57 1 55 16
M  V30 58 1 56 17
M  V30 59 1 57 17
M  V30 60 1 58 18
M  V30 61 1 19 59 CFG=3
M  V30 62 1 60 20
M  V30 63 1 61 20
M  V30 64 1 62 23
M  V30 65 1 63 24
M  V30 66 1 64 25
M  V30 67 1 65 25
M  V30 68 1 66 25
M  V30 69 1 26 67 CFG=3
M  V30 70 1 68 28
M  V30 71 1 69 28
M  V30 72 1 70 29
M  V30 73 1 71 29
M  V30 74 1 30 72 CFG=1
M  V30 75 1 73 31
M  V30 76 1 33 74 CFG=3
M  V30 77 1 35 75 CFG=1
M  V30 78 1 76 37
M  V30 79 1 77 37
M  V30 80 1 78 37
M  V30 81 1 79 8
M  V30 END BOND
M  V30 END CTAB
M  END
>  <i_epik_Tot_Q>  (1) 
1

>  <i_epik_Tot_abs_Q>  (1) 
1

>  <i_i_glide_confnum>  (1) 
508

>  <i_i_glide_lignum>  (1) 
74

>  <i_i_glide_posenum>  (1) 
240

>  <i_i_glide_rotatable_bonds>  (1) 
17

>  <i_lp_mmshare_version>  (1) 
72125

>  <i_m_source_file_index>  (1) 
30

>  <i_f3d_flags>  (1) 
0

>  <num_sample>  (1) 
50

>  <b_lp_Chiralities_Consistent>  (1) 
1

>  <r_epik_Charging_Adjusted_Penalty>  (1) 
0.073066720001252791

>  <r_epik_Ionization_Penalty>  (1) 
0.041882768558209021

>  <r_epik_Ionization_Penalty_Charging>  (1) 
0.011280877963412759

>  <r_epik_Ionization_Penalty_Neutral>  (1) 
0.030601890594796264

>  <r_epik_State_Penalty>  (1) 
0.061785842037840037

>  <r_glide_ring_energy>  (1) 
0

>  <r_i_docking_score>  (1) 
-6.971267181469428

>  <r_i_glide_ecoul>  (1) 
-5.309890095385601

>  <r_i_glide_eff_state_penalty>  (1) 
0.061785842037840037

>  <r_i_glide_einternal>  (1) 
8.5480746997811003

>  <r_i_glide_emodel>  (1) 
-56.800311180168634

>  <r_i_glide_emodel_strain>  (1) 
3.1115626644833299

>  <r_i_glide_energy>  (1) 
-41.580200382700724

>  <r_i_glide_erotb>  (1) 
0.87550365807384167

>  <r_i_glide_esite>  (1) 
-0.060182367125633678

>  <r_i_glide_evdw>  (1) 
-36.27031028731512

>  <r_i_glide_gscore>  (1) 
-7.0330530235072679

>  <r_i_glide_gscore_strain>  (1) 
0

>  <r_i_glide_hbond>  (1) 
-0.2454853729682015

>  <r_i_glide_ligand_efficiency>  (1) 
-0.18841262652620075

>  <r_i_glide_ligand_efficiency_ln>  (1) 
-1.5119044219704216

>  <r_i_glide_ligand_efficiency_sa>  (1) 
-0.62783267123661424

>  <r_i_glide_lipo>  (1) 
-3.0967581571349059

>  <r_i_glide_metal>  (1) 
-0

>  <r_i_glide_rewards>  (1) 
-1.8961317556787718

>  <r_lp_Energy>  (1) 
35.125267000000001

>  <s_epik_Chemistry_Notes>  (1) 
This compound has an imine and may undergo hydrolysis.

>  <s_epik_cmdline>  (1) 
J2VwaWtfcHl0aG9uJywgJy1waHQnLCAnMS4wJywgJy1waCcsICc3LjQnLCAnLXRuJywgJzgnLCAnLW1hJywgJzUwMCcsICctaW1hZScsICc8aW5maWxlLm1hZT4nLCAnLW9tYWUnLCAnPG91dGZpbGUubWFlPic=

>  <s_epik_input>  (1) 
RkMoRikoRilDKD1PKVtDSDJdL1tDSF09W0NIXVxbQ0BIXTFPW0NASF0xW0NIMl1bQ0BIXTJbQ0BIXShbQ0gyXVtDSF09QzJbQ0gyXVtDSDNdKVtDQEhdKFtDSDNdKVtOSF1bQ0BASF0oW0NIMl1bQ0gyXVtPSF0pW0NAQEhdKFtPSF0pW0NAQEhdKE49W0NIXTMpW0NIMl1bQ0gyXVtDQEBdMyhbQ0gzXSlbT0hd

>  <s_glide_docking_method>  (1) 
confgen

>  <s_i_glide_gridfile>  (1) 
gpcr_5ht2c_6bqh_protein_autoprepared_prepared

>  <s_lp_Force_Field>  (1) 
S-OPLS

>  <s_lp_Variant>  (1) 
DiffSBDD_29_num_sample_50-2

>  <s_m_source_file>  (1) 
generated__ligand_DiffSBDD_2026-05-06_prepared.sdf

>  <GenAI_Model>  (1) 
DiffSBDD

>  <Protein>  (1) 
GPCR_5HT2C

$$$$
DiffSBDD_34_num_sample_50
     RDKit          3D

  0  0  0  0  0  0  0  0  0  0999 V3000
M  V30 BEGIN CTAB
M  V30 COUNTS 50 51 0 0 1
M  V30 BEGIN ATOM
M  V30 1 C 39.062772 33.191256 61.431776 0 CFG=2
M  V30 2 C 38.226842 28.042575 54.176557 0
M  V30 3 C 40.568411 35.205844 61.851784 0
M  V30 4 C 40.711822 28.859247 59.689533 0
M  V30 5 C 38.253741 30.094688 57.289090 0
M  V30 6 C 38.355313 27.869926 51.594878 0
M  V30 7 C 40.343724 33.749488 61.853357 0
M  V30 8 C 39.754379 31.772237 61.455739 0
M  V30 9 C 41.236314 32.897588 62.253497 0
M  V30 10 C 38.227082 31.013903 59.631658 0
M  V30 11 C 38.264725 33.419393 60.190453 0
M  V30 12 C 39.867393 27.989465 51.367443 0
M  V30 13 C 40.373497 29.402989 51.031115 0
M  V30 14 C 37.851648 32.419151 59.401495 0
M  V30 15 C 37.816173 28.622460 52.819029 0
M  V30 16 O 39.969942 29.775011 49.731874 0
M  V30 17 O 38.084644 29.078791 55.132632 0
M  V30 18 O 38.440475 27.708557 56.920390 0
M  V30 19 O 39.722753 36.021066 61.487521 0
M  V30 20 C 39.143214 30.690874 60.610492 0
M  V30 21 N 40.845203 31.582178 62.161466 0
M  V30 22 C 39.724464 29.276858 60.790025 0
M  V30 23 C 37.662993 29.933542 58.706999 0 CFG=1
M  V30 24 O 36.249192 30.021407 58.653503 0
M  V30 25 C 38.267395 28.826750 56.432936 0
M  V30 26 H 38.373954 33.264782 62.272409 0
M  V30 27 H 37.608375 27.180127 54.430410 0
M  V30 28 H 39.266910 27.717165 54.169128 0
M  V30 29 H 41.553023 35.517490 62.202073 0
M  V30 30 H 41.230120 27.942107 59.968199 0
M  V30 31 H 40.215499 28.669653 58.741290 0
M  V30 32 H 41.467361 29.621470 59.515244 0
M  V30 33 H 39.292930 30.413568 57.369204 0
M  V30 34 H 37.735038 30.891556 56.753492 0
M  V30 35 H 37.867412 28.242415 50.702199 0
M  V30 36 H 38.080331 26.821428 51.675162 0
M  V30 37 H 42.228070 33.135576 62.613048 0
M  V30 38 H 37.974842 34.436967 59.971558 0
M  V30 39 H 40.151255 27.316400 50.557540 0
M  V30 40 H 40.374726 27.621471 52.253490 0
M  V30 41 H 41.463177 29.417257 51.053481 0
M  V30 42 H 40.042909 30.148385 51.753264 0
M  V30 43 H 37.238006 32.657381 58.543231 0
M  V30 44 H 38.152998 29.651090 52.767880 0
M  V30 45 H 36.727530 28.657369 52.773583 0
M  V30 46 H 39.022134 29.763899 49.665813 0
M  V30 47 H 40.227189 29.186513 61.752924 0
M  V30 48 H 38.921444 28.546247 60.871278 0
M  V30 49 H 37.862579 28.936317 59.087475 0
M  V30 50 H 35.979955 30.706142 58.034837 0
M  V30 END ATOM
M  V30 BEGIN BOND
M  V30 1 1 7 1
M  V30 2 1 7 3
M  V30 3 1 8 1
M  V30 4 2 9 7
M  V30 5 1 11 1
M  V30 6 1 12 6
M  V30 7 1 13 12
M  V30 8 1 14 10
M  V30 9 2 14 11
M  V30 10 1 15 2
M  V30 11 1 15 6
M  V30 12 1 16 13
M  V30 13 1 17 2
M  V30 14 2 19 3
M  V30 15 1 20 8
M  V30 16 2 20 10
M  V30 17 2 21 8
M  V30 18 1 21 9
M  V30 19 1 22 4
M  V30 20 1 22 20
M  V30 21 1 23 5
M  V30 22 1 23 10
M  V30 23 1 24 23
M  V30 24 1 25 5
M  V30 25 1 25 17
M  V30 26 2 25 18
M  V30 27 1 1 26 CFG=1
M  V30 28 1 27 2
M  V30 29 1 28 2
M  V30 30 1 29 3
M  V30 31 1 30 4
M  V30 32 1 31 4
M  V30 33 1 32 4
M  V30 34 1 33 5
M  V30 35 1 34 5
M  V30 36 1 35 6
M  V30 37 1 36 6
M  V30 38 1 37 9
M  V30 39 1 38 11
M  V30 40 1 39 12
M  V30 41 1 40 12
M  V30 42 1 41 13
M  V30 43 1 42 13
M  V30 44 1 43 14
M  V30 45 1 44 15
M  V30 46 1 45 15
M  V30 47 1 46 16
M  V30 48 1 47 22
M  V30 49 1 48 22
M  V30 50 1 23 49 CFG=1
M  V30 51 1 50 24
M  V30 END BOND
M  V30 END CTAB
M  END
>  <i_epik_Tot_Q>  (1) 
0

>  <i_epik_Tot_abs_Q>  (1) 
0

>  <i_i_glide_confnum>  (1) 
1092

>  <i_i_glide_lignum>  (1) 
88

>  <i_i_glide_posenum>  (1) 
357

>  <i_i_glide_rotatable_bonds>  (1) 
13

>  <i_lp_mmshare_version>  (1) 
72125

>  <i_m_source_file_index>  (1) 
35

>  <i_f3d_flags>  (1) 
0

>  <num_sample>  (1) 
50

>  <b_lp_Chiralities_Consistent>  (1) 
1

>  <r_epik_Charging_Adjusted_Penalty>  (1) 
0.012701380709717016

>  <r_epik_Ionization_Penalty>  (1) 
0.012701608846652416

>  <r_epik_Ionization_Penalty_Charging>  (1) 
0

>  <r_epik_Ionization_Penalty_Neutral>  (1) 
0.012701608846652416

>  <r_epik_State_Penalty>  (1) 
0.012701380709717016

>  <r_glide_ring_energy>  (1) 
0

>  <r_i_docking_score>  (1) 
-6.9703278923304248

>  <r_i_glide_ecoul>  (1) 
-7.7511800168119871

>  <r_i_glide_eff_state_penalty>  (1) 
0.012701380709717016

>  <r_i_glide_einternal>  (1) 
7.3254366009049816

>  <r_i_glide_emodel>  (1) 
-62.614362413377755

>  <r_i_glide_emodel_strain>  (1) 
0.67550346392187066

>  <r_i_glide_energy>  (1) 
-46.762027964775022

>  <r_i_glide_erotb>  (1) 
1.4185672597553849

>  <r_i_glide_esite>  (1) 
0

>  <r_i_glide_evdw>  (1) 
-39.010847947963036

>  <r_i_glide_gscore>  (1) 
-6.9830292730401418

>  <r_i_glide_gscore_strain>  (1) 
0

>  <r_i_glide_hbond>  (1) 
-0.45599999999999996

>  <r_i_glide_ligand_efficiency>  (1) 
-0.27881311569321698

>  <r_i_glide_ligand_efficiency_ln>  (1) 
-1.65217659435335

>  <r_i_glide_ligand_efficiency_sa>  (1) 
-0.81525449593336252

>  <r_i_glide_lipo>  (1) 
-2.8368910287133504

>  <r_i_glide_metal>  (1) 
-0

>  <r_i_glide_rewards>  (1) 
-1.9954861041622256

>  <r_lp_Energy>  (1) 
18.317083999999998

>  <s_epik_Chemistry_Notes>  (1) 
This compound has an ester and may undergo hydrolysis at high or low pH. This compound has an imine and may undergo hydrolysis.

>  <s_epik_cmdline>  (1) 
J2VwaWtfcHl0aG9uJywgJy1waHQnLCAnMS4wJywgJy1waCcsICc3LjQnLCAnLXRuJywgJzgnLCAnLW1hJywgJzUwMCcsICctaW1hZScsICc8aW5maWxlLm1hZT4nLCAnLW9tYWUnLCAnPG91dGZpbGUubWFlPic=

>  <s_epik_input>  (1) 
Tz1bQ0hdQzE9W0NIXU49QyhbQ0BIXTEyKUMoW0NIMl1bQ0gzXSk9QyhbQ0hdPVtDSF0yKVtDQEBIXShbT0hdKVtDSDJdQyg9TylPW0NIMl1bQ0gyXVtDSDJdW0NIMl1bQ0gyXVtPSF0=

>  <s_glide_docking_method>  (1) 
confgen

>  <s_i_glide_gridfile>  (1) 
gpcr_5ht2c_6bqh_protein_autoprepared_prepared

>  <s_lp_Force_Field>  (1) 
S-OPLS

>  <s_lp_Variant>  (1) 
DiffSBDD_34_num_sample_50-2

>  <s_m_source_file>  (1) 
generated__ligand_DiffSBDD_2026-05-06_prepared.sdf

>  <GenAI_Model>  (1) 
DiffSBDD

>  <Protein>  (1) 
GPCR_5HT2C

$$$$
DiffSBDD_32_num_sample_50
     RDKit          3D

  0  0  0  0  0  0  0  0  0  0999 V3000
M  V30 BEGIN CTAB
M  V30 COUNTS 52 55 0 0 1
M  V30 BEGIN ATOM
M  V30 1 C 39.927571 31.785513 62.119290 0
M  V30 2 O 37.531324 27.290407 53.728010 0
M  V30 3 C 38.366896 29.848203 57.251116 0
M  V30 4 C 38.703622 29.691801 54.979495 0
M  V30 5 C 40.006034 29.698962 51.385642 0
M  V30 6 C 41.675673 34.954507 64.238467 0
M  V30 7 N 40.917385 32.637793 64.169156 0
M  V30 8 C 38.651558 27.713549 51.669572 0
M  V30 9 C 38.515802 28.877271 56.241159 0
M  V30 10 C 41.061468 33.794395 63.479103 0
M  V30 11 C 38.939030 29.262877 53.561180 0
M  V30 12 C 38.298663 33.320542 58.129895 0
M  V30 13 C 39.745190 30.074051 52.717825 0
M  V30 14 N 38.200043 29.624251 58.501277 0 CHG=1
M  V30 15 N 40.103978 32.934893 61.424861 0
M  V30 16 N 38.424924 31.054903 56.931029 0
M  V30 17 C 40.338532 31.635373 63.473334 0
M  V30 18 C 39.467387 28.517710 50.871420 0
M  V30 19 C 38.562603 27.362033 56.256512 0
M  V30 20 C 38.373815 28.072337 53.002194 0
M  V30 21 C 40.666718 33.947054 62.127894 0
M  V30 22 F 40.853578 35.140695 61.515132 0
M  V30 23 C 37.974338 31.025001 60.608480 0
M  V30 24 C 40.867270 30.577228 50.506189 0
M  V30 25 C 38.279989 31.836458 58.068472 0
M  V30 26 C 38.135761 30.867447 59.129866 0
M  V30 27 C 39.277274 30.632795 61.350547 0
M  V30 28 S 38.667771 31.505546 55.352617 0
M  V30 29 N 40.162786 30.426817 64.145683 0
M  V30 30 H 37.145855 26.596769 53.211524 0
M  V30 31 H 41.059809 35.848367 64.133331 0
M  V30 32 H 41.767150 34.733162 65.302406 0
M  V30 33 H 42.667394 35.180147 63.853542 0
M  V30 34 H 38.219489 26.821423 51.253417 0
M  V30 35 H 37.579780 33.680950 58.865389 0
M  V30 36 H 39.297260 33.634908 58.427334 0
M  V30 37 H 38.052851 33.759455 57.162484 0
M  V30 38 H 40.175998 30.986180 53.103806 0
M  V30 39 H 39.667176 28.233552 49.853502 0
M  V30 40 H 38.954150 27.029392 57.217616 0
M  V30 41 H 37.566436 26.930563 56.158362 0
M  V30 42 H 39.237170 26.966266 55.497484 0
M  V30 43 H 37.686319 32.054455 60.823469 0
M  V30 44 H 37.133834 30.421330 60.943316 0
M  V30 45 H 40.667411 31.621388 50.731402 0
M  V30 46 H 41.928169 30.377421 50.653517 0
M  V30 47 H 40.635382 30.417162 49.453567 0
M  V30 48 H 39.045872 29.793033 62.003608 0
M  V30 49 H 40.024786 30.249646 60.654475 0
M  V30 50 H 39.669190 29.649891 63.725615 0
M  V30 51 H 40.409581 30.332180 65.120281 0
M  V30 52 H 38.137445 28.720679 58.950345 0
M  V30 END ATOM
M  V30 BEGIN BOND
M  V30 1 1 9 3
M  V30 2 2 9 4
M  V30 3 1 10 6
M  V30 4 2 10 7
M  V30 5 1 11 4
M  V30 6 2 13 5
M  V30 7 1 13 11
M  V30 8 2 14 3
M  V30 9 1 15 1
M  V30 10 1 16 3
M  V30 11 2 17 1
M  V30 12 1 17 7
M  V30 13 1 18 5
M  V30 14 2 18 8
M  V30 15 1 19 9
M  V30 16 1 20 2
M  V30 17 1 20 8
M  V30 18 2 20 11
M  V30 19 1 21 10
M  V30 20 2 21 15
M  V30 21 1 22 21
M  V30 22 1 24 5
M  V30 23 1 25 12
M  V30 24 1 25 16
M  V30 25 1 26 14
M  V30 26 1 26 23
M  V30 27 2 26 25
M  V30 28 1 27 1
M  V30 29 1 27 23
M  V30 30 1 28 4
M  V30 31 1 28 16
M  V30 32 1 29 17
M  V30 33 1 30 2
M  V30 34 1 31 6
M  V30 35 1 32 6
M  V30 36 1 33 6
M  V30 37 1 34 8
M  V30 38 1 35 12
M  V30 39 1 36 12
M  V30 40 1 37 12
M  V30 41 1 38 13
M  V30 42 1 39 18
M  V30 43 1 40 19
M  V30 44 1 41 19
M  V30 45 1 42 19
M  V30 46 1 43 23
M  V30 47 1 44 23
M  V30 48 1 45 24
M  V30 49 1 46 24
M  V30 50 1 47 24
M  V30 51 1 48 27
M  V30 52 1 49 27
M  V30 53 1 50 29
M  V30 54 1 51 29
M  V30 55 1 52 14
M  V30 END BOND
M  V30 END CTAB
M  END
>  <i_epik_Tot_Q>  (1) 
1

>  <i_epik_Tot_abs_Q>  (1) 
1

>  <i_i_glide_confnum>  (1) 
49

>  <i_i_glide_lignum>  (1) 
85

>  <i_i_glide_posenum>  (1) 
257

>  <i_i_glide_rotatable_bonds>  (1) 
5

>  <i_lp_mmshare_version>  (1) 
72125

>  <i_m_source_file_index>  (1) 
33

>  <i_f3d_flags>  (1) 
0

>  <num_sample>  (1) 
50

>  <b_lp_Chiralities_Consistent>  (1) 
1

>  <r_epik_Charging_Adjusted_Penalty>  (1) 
0.70840898770903482

>  <r_epik_Ionization_Penalty>  (1) 
0.71036238548422381

>  <r_epik_Ionization_Penalty_Charging>  (1) 
0

>  <r_epik_Ionization_Penalty_Neutral>  (1) 
0.71036238548422381

>  <r_epik_State_Penalty>  (1) 
0.70840898770903482

>  <r_glide_ring_energy>  (1) 
0

>  <r_i_docking_score>  (1) 
-6.9664072964467039

>  <r_i_glide_ecoul>  (1) 
-2.9492429677238281

>  <r_i_glide_eff_state_penalty>  (1) 
0.70840898770903482

>  <r_i_glide_einternal>  (1) 
14.898229396722929

>  <r_i_glide_emodel>  (1) 
-68.143296080847676

>  <r_i_glide_emodel_strain>  (1) 
0.89632823275258033

>  <r_i_glide_energy>  (1) 
-51.264270202835874

>  <r_i_glide_erotb>  (1) 
0.46353657378789748

>  <r_i_glide_esite>  (1) 
-0.15068299997578791

>  <r_i_glide_evdw>  (1) 
-48.315027235112048

>  <r_i_glide_gscore>  (1) 
-7.6748162841557388

>  <r_i_glide_gscore_strain>  (1) 
0

>  <r_i_glide_hbond>  (1) 
0

>  <r_i_glide_ligand_efficiency>  (1) 
-0.24022094125678289

>  <r_i_glide_ligand_efficiency_ln>  (1) 
-1.5951306180392819

>  <r_i_glide_ligand_efficiency_sa>  (1) 
-0.7380348397053057

>  <r_i_glide_lipo>  (1) 
-3.7177419587682832

>  <r_i_glide_metal>  (1) 
-0

>  <r_i_glide_rewards>  (1) 
-1.4117900922853894

>  <r_lp_Energy>  (1) 
27.758326

>  <r_lp_tautomer_probability>  (1) 
0.99999990127737282

>  <s_epik_cmdline>  (1) 
J2VwaWtfcHl0aG9uJywgJy1waHQnLCAnMS4wJywgJy1waCcsICc3LjQnLCAnLXRuJywgJzgnLCAnLW1hJywgJzUwMCcsICctaW1hZScsICc8aW5maWxlLm1hZT4nLCAnLW9tYWUnLCAnPG91dGZpbGUubWFlPic=

>  <s_epik_input>  (1) 
W05IMl1jMW5jKFtDSDNdKWMoRiluYzFbQ0gyXVtDSDJdYyhuMiljKFtDSDNdKW4oYzIzKXNjKGMzW0NIM10pLWMoW2NIXWM0W0NIM10pYyhbT0hdKVtjSF1bY0hdNA==

>  <s_glide_docking_method>  (1) 
confgen

>  <s_i_glide_gridfile>  (1) 
gpcr_5ht2c_6bqh_protein_autoprepared_prepared

>  <s_lp_Force_Field>  (1) 
S-OPLS

>  <s_lp_Variant>  (1) 
DiffSBDD_32_num_sample_50-2

>  <s_m_source_file>  (1) 
generated__ligand_DiffSBDD_2026-05-06_prepared.sdf

>  <GenAI_Model>  (1) 
DiffSBDD

>  <Protein>  (1) 
GPCR_5HT2C

$$$$
DiffSBDD_3_num_sample_50
     RDKit          3D

  0  0  0  0  0  0  0  0  0  0999 V3000
M  V30 BEGIN CTAB
M  V30 COUNTS 73 76 0 0 1
M  V30 BEGIN ATOM
M  V30 1 C 39.785359 30.770415 56.525477 0
M  V30 2 N 38.267418 24.021430 57.453495 0
M  V30 3 C 40.308946 28.238982 56.399519 0
M  V30 4 C 38.437229 32.128856 61.575876 0 CFG=2
M  V30 5 C 35.363973 32.356886 60.347658 0
M  V30 6 S 39.067397 29.221447 51.883195 0
M  V30 7 C 38.713764 28.009888 58.205520 0
M  V30 8 C 37.730105 24.973456 57.109380 0
M  V30 9 C 40.692061 30.536684 63.901637 0
M  V30 10 C 40.109280 27.843686 51.493116 0 CFG=1
M  V30 11 C 39.847220 31.810210 61.810153 0 CFG=2
M  V30 12 C 40.028352 29.562427 55.648361 0
M  V30 13 C 37.930370 30.517324 58.239245 0 CFG=2
M  V30 14 C 36.572270 31.548542 59.991653 0
M  V30 15 C 37.518779 31.047042 61.050022 0
M  V30 16 C 39.740716 26.656994 52.392260 0
M  V30 17 N 39.131190 27.521535 56.887450 0
M  V30 18 C 37.067416 26.192884 56.668154 0
M  V30 19 O 39.541132 32.607406 60.689399 0
M  V30 20 C 38.549060 26.343136 54.680771 0
M  V30 21 C 38.034324 28.243768 52.972989 0
M  V30 22 C 38.062052 27.109797 55.943345 0 CFG=2
M  V30 23 C 41.208619 33.836739 62.279392 0
M  V30 24 C 35.714850 33.844332 60.442022 0
M  V30 25 N 36.787779 31.280180 58.742148 0 CHG=1
M  V30 26 C 40.984591 31.509973 62.779888 0 CFG=1
M  V30 27 C 38.353517 31.122440 56.888364 0 CFG=2
M  V30 28 C 37.556156 29.026978 58.216902 0
M  V30 29 C 39.040169 27.266482 53.573812 0 CFG=2
M  V30 30 O 37.467401 30.840630 55.830007 0
M  V30 31 N 40.352779 32.778688 62.818175 0
M  V30 32 F 39.870908 27.494112 50.253503 0
M  V30 33 O 40.667449 29.227763 63.372979 0
M  V30 34 H 40.267405 30.539170 57.453492 0
M  V30 35 H 40.262601 31.641530 56.072062 0
M  V30 36 H 41.007613 28.413767 57.219283 0
M  V30 37 H 40.858885 27.549912 55.761243 0
M  V30 38 H 37.967757 32.911425 62.170381 0
M  V30 39 H 34.604124 32.221712 59.574458 0
M  V30 40 H 39.562066 28.387037 58.778694 0
M  V30 41 H 38.391274 27.131228 58.765117 0
M  V30 42 H 39.728303 30.763502 64.357773 0
M  V30 43 H 41.457269 30.613208 64.674884 0
M  V30 44 H 41.141066 28.172584 51.576489 0
M  V30 45 H 40.912319 29.784807 55.053504 0
M  V30 46 H 39.229257 29.497937 54.929008 0
M  V30 47 H 38.759753 30.689112 58.920683 0
M  V30 48 H 34.933629 31.991981 61.280259 0
M  V30 49 H 38.097256 30.172496 60.758776 0
M  V30 50 H 40.577795 26.041298 52.718097 0
M  V30 51 H 39.068887 26.025115 51.832267 0
M  V30 52 H 36.605789 26.648099 57.539304 0
M  V30 53 H 36.262237 25.900426 55.997601 0
M  V30 54 H 39.332595 25.633866 54.952868 0
M  V30 55 H 37.734876 25.746327 54.267361 0
M  V30 56 H 37.275032 27.721081 52.391188 0
M  V30 57 H 37.521838 28.887586 53.685167 0
M  V30 58 H 37.522919 27.998027 55.625796 0
M  V30 59 H 40.603371 34.666819 61.915734 0
M  V30 60 H 41.864582 34.224603 63.058804 0
M  V30 61 H 41.831827 33.491201 61.453508 0
M  V30 62 H 34.797079 34.421396 60.396063 0
M  V30 63 H 36.213108 34.095256 61.377959 0
M  V30 64 H 36.345286 34.179829 59.616294 0
M  V30 65 H 36.904333 30.683116 61.853510 0
M  V30 66 H 42.004730 31.534741 62.401583 0
M  V30 67 H 38.338486 32.208282 57.009660 0
M  V30 68 H 37.030072 28.821555 59.145211 0
M  V30 69 H 36.806171 28.849273 57.453523 0
M  V30 70 H 39.862890 27.803693 53.990258 0
M  V30 71 H 36.611678 31.221459 56.051210 0
M  V30 72 H 40.082900 28.702493 63.907116 0
M  V30 73 H 36.095359 31.621431 58.019426 0
M  V30 END ATOM
M  V30 BEGIN BOND
M  V30 1 3 8 2
M  V30 2 1 10 6
M  V30 3 1 11 4
M  V30 4 1 12 1
M  V30 5 1 12 3
M  V30 6 1 14 5
M  V30 7 1 15 4
M  V30 8 1 15 14
M  V30 9 1 16 10
M  V30 10 1 17 3
M  V30 11 1 17 7
M  V30 12 1 18 8
M  V30 13 1 19 4
M  V30 14 1 11 19 CFG=1
M  V30 15 1 21 6
M  V30 16 1 22 17
M  V30 17 1 22 18
M  V30 18 1 22 20
M  V30 19 1 24 5
M  V30 20 1 25 13
M  V30 21 2 25 14
M  V30 22 1 26 9
M  V30 23 1 26 11
M  V30 24 1 27 1
M  V30 25 1 27 13
M  V30 26 1 28 7
M  V30 27 1 28 13
M  V30 28 1 29 16
M  V30 29 1 29 20
M  V30 30 1 29 21
M  V30 31 1 30 27
M  V30 32 1 31 11
M  V30 33 1 31 23
M  V30 34 1 31 26
M  V30 35 1 32 10
M  V30 36 1 33 9
M  V30 37 1 34 1
M  V30 38 1 35 1
M  V30 39 1 36 3
M  V30 40 1 37 3
M  V30 41 1 4 38 CFG=1
M  V30 42 1 39 5
M  V30 43 1 40 7
M  V30 44 1 41 7
M  V30 45 1 42 9
M  V30 46 1 43 9
M  V30 47 1 10 44 CFG=3
M  V30 48 1 45 12
M  V30 49 1 46 12
M  V30 50 1 13 47 CFG=1
M  V30 51 1 48 5
M  V30 52 1 49 15
M  V30 53 1 50 16
M  V30 54 1 51 16
M  V30 55 1 52 18
M  V30 56 1 53 18
M  V30 57 1 54 20
M  V30 58 1 55 20
M  V30 59 1 56 21
M  V30 60 1 57 21
M  V30 61 1 22 58 CFG=3
M  V30 62 1 59 23
M  V30 63 1 60 23
M  V30 64 1 61 23
M  V30 65 1 62 24
M  V30 66 1 63 24
M  V30 67 1 64 24
M  V30 68 1 65 15
M  V30 69 1 26 66 CFG=3
M  V30 70 1 27 67 CFG=1
M  V30 71 1 68 28
M  V30 72 1 69 28
M  V30 73 1 29 70 CFG=1
M  V30 74 1 71 30
M  V30 75 1 72 33
M  V30 76 1 73 25
M  V30 END BOND
M  V30 END CTAB
M  END
>  <i_epik_Tot_Q>  (1) 
1

>  <i_epik_Tot_abs_Q>  (1) 
1

>  <i_i_glide_confnum>  (1) 
854

>  <i_i_glide_lignum>  (1) 
10

>  <i_i_glide_posenum>  (1) 
222

>  <i_i_glide_rotatable_bonds>  (1) 
11

>  <i_lp_mmshare_version>  (1) 
72125

>  <i_m_source_file_index>  (1) 
4

>  <i_f3d_flags>  (1) 
0

>  <num_sample>  (1) 
50

>  <b_lp_Chiralities_Consistent>  (1) 
1

>  <r_epik_Charging_Adjusted_Penalty>  (1) 
0.69158801815778781

>  <r_epik_Ionization_Penalty>  (1) 
0.18004840766126984

>  <r_epik_Ionization_Penalty_Charging>  (1) 
0.063917621844604325

>  <r_epik_Ionization_Penalty_Neutral>  (1) 
0.11613078581666553

>  <r_epik_State_Penalty>  (1) 
0.62767039631318344

>  <r_glide_ring_energy>  (1) 
0

>  <r_i_docking_score>  (1) 
-6.9591704907110525

>  <r_i_glide_ecoul>  (1) 
-14.258153607263441

>  <r_i_glide_eff_state_penalty>  (1) 
0.62767039631318344

>  <r_i_glide_einternal>  (1) 
15.127625978925927

>  <r_i_glide_emodel>  (1) 
-34.249059179158138

>  <r_i_glide_emodel_strain>  (1) 
3.7059082337143963

>  <r_i_glide_energy>  (1) 
-35.611830820043792

>  <r_i_glide_erotb>  (1) 
0.69427784923131142

>  <r_i_glide_esite>  (1) 
-0.16760350487096637

>  <r_i_glide_evdw>  (1) 
-21.353677212780354

>  <r_i_glide_gscore>  (1) 
-7.5868408870242359

>  <r_i_glide_gscore_strain>  (1) 
0

>  <r_i_glide_hbond>  (1) 
-0.54296433129325927

>  <r_i_glide_ligand_efficiency>  (1) 
-0.2108839542639713

>  <r_i_glide_ligand_efficiency_ln>  (1) 
-1.5476834844777634

>  <r_i_glide_ligand_efficiency_sa>  (1) 
-0.67641752294695767

>  <r_i_glide_lipo>  (1) 
-3.1511834978087951

>  <r_i_glide_metal>  (1) 
-0

>  <r_i_glide_rewards>  (1) 
-1.2129605005539938

>  <r_lp_Energy>  (1) 
28.262066999999998

>  <s_epik_Chemistry_Notes>  (1) 
This compound has an imine and may undergo hydrolysis.

>  <s_epik_cmdline>  (1) 
J2VwaWtfcHl0aG9uJywgJy1waHQnLCAnMS4wJywgJy1waCcsICc3LjQnLCAnLXRuJywgJzgnLCAnLW1hJywgJzUwMCcsICctaW1hZScsICc8aW5maWxlLm1hZT4nLCAnLW9tYWUnLCAnPG91dGZpbGUubWFlPic=

>  <s_epik_input>  (1) 
RltDQEhdMVNbQ0gyXVtDQEhdKFtDSDJdMSlbQ0gyXVtDQEBIXShbQ0gyXUMjTilOKFtDSDJdW0NIMl0yKVtDSDJdW0NIMl1bQ0gyXVtDQEBIXShbT0hdKVtDQEhdMltOSF1DKD1bQ0hdXFtDSDNdKVxbQ0gyXVtDQEhdKE8zKVtDQF0zNFtDQEhdKFtDSDJdW09IXSlONFtDSDNd

>  <s_glide_docking_method>  (1) 
confgen

>  <s_i_glide_gridfile>  (1) 
gpcr_5ht2c_6bqh_protein_autoprepared_prepared

>  <s_lp_Force_Field>  (1) 
S-OPLS

>  <s_lp_Variant>  (1) 
DiffSBDD_3_num_sample_50-1

>  <s_m_source_file>  (1) 
generated__ligand_DiffSBDD_2026-05-06_prepared.sdf

>  <GenAI_Model>  (1) 
DiffSBDD

>  <Protein>  (1) 
GPCR_5HT2C

$$$$
DiffSBDD_12_num_sample_50
     RDKit          3D

  0  0  0  0  0  0  0  0  0  0999 V3000
M  V30 BEGIN CTAB
M  V30 COUNTS 69 71 0 0 1
M  V30 BEGIN ATOM
M  V30 1 C 38.942786 35.333517 60.973493 0
M  V30 2 C 39.067416 28.926776 53.580166 0
M  V30 3 C 38.728003 31.993097 55.401263 0
M  V30 4 O 38.606890 31.121909 57.644250 0
M  V30 5 N 39.307277 29.619201 54.779648 0
M  V30 6 F 37.467448 23.946026 57.853171 0
M  V30 7 N 37.867472 32.517955 54.653334 0
M  V30 8 C 36.670649 34.379204 60.306573 0
M  V30 9 C 40.119985 29.874163 50.120546 0
M  V30 10 C 37.475962 35.592312 60.747805 0
M  V30 11 C 38.945999 33.828428 60.670882 0
M  V30 12 C 37.428392 32.123004 59.657993 0
M  V30 13 C 37.998755 24.791025 56.960184 0
M  V30 14 C 39.411638 26.878060 57.121431 0
M  V30 15 N 39.309925 29.643140 52.421299 0
M  V30 16 N 39.426992 28.915102 55.972364 0
M  V30 17 C 38.803143 32.303579 56.890211 0
M  V30 18 C 35.662998 34.682988 59.188855 0
M  V30 19 N 38.695209 27.682020 53.568186 0
M  V30 20 O 37.004838 29.433233 59.524015 0
M  V30 21 C 37.773634 25.829339 54.703498 0
M  V30 22 C 39.770021 31.012015 54.871448 0
M  V30 23 O 39.467824 31.097498 49.853496 0
M  V30 24 C 38.528354 31.222177 59.063189 0 CFG=1
M  V30 25 C 35.930525 33.814492 61.544167 0
M  V30 26 C 38.539390 26.964073 54.769459 0
M  V30 27 C 37.363888 24.947916 55.799777 0
M  V30 28 C 39.133249 27.569386 56.005339 0
M  V30 29 C 39.284450 25.420234 57.297330 0
M  V30 30 C 36.506464 29.081153 58.253383 0
M  V30 31 C 39.293200 29.030195 51.102917 0
M  V30 32 C 38.368203 29.789980 59.564593 0
M  V30 33 O 36.971925 36.702596 60.910853 0
M  V30 34 N 37.772486 33.535629 59.828946 0
M  V30 35 H 39.257976 35.566382 61.990640 0
M  V30 36 H 39.536596 35.898462 60.255770 0
M  V30 37 H 37.916414 32.229754 53.687142 0
M  V30 38 H 40.122780 31.384552 53.911910 0
M  V30 39 H 41.118541 30.067131 50.514818 0
M  V30 40 H 40.244437 29.339083 49.178440 0
M  V30 41 H 38.909266 33.260347 61.602086 0
M  V30 42 H 39.868940 33.559549 60.161282 0
M  V30 43 H 36.526463 32.022790 59.053578 0
M  V30 44 H 37.171884 31.716350 60.636109 0
M  V30 45 H 39.847072 27.403246 57.956686 0
M  V30 46 H 39.592501 30.612501 52.434470 0
M  V30 47 H 39.753854 29.406120 56.792393 0
M  V30 48 H 39.763144 32.764674 57.118359 0
M  V30 49 H 35.072232 35.575450 59.382569 0
M  V30 50 H 36.194414 34.821450 58.253487 0
M  V30 51 H 34.971255 33.854772 59.030793 0
M  V30 52 H 37.367650 25.590547 53.731156 0
M  V30 53 H 38.029472 33.033247 57.134442 0
M  V30 54 H 40.657477 31.053327 55.496821 0
M  V30 55 H 38.678522 30.892469 49.362887 0
M  V30 56 H 39.467407 31.557189 59.453242 0
M  V30 57 H 35.379260 34.580933 62.086007 0
M  V30 58 H 35.213324 33.043068 61.261756 0
M  V30 59 H 36.621937 33.360842 62.252282 0
M  V30 60 H 36.464366 24.368316 55.650802 0
M  V30 61 H 39.502403 25.221455 58.342811 0
M  V30 62 H 40.076156 24.930961 56.728068 0
M  V30 63 H 35.467392 28.814758 58.409529 0
M  V30 64 H 36.538569 29.893183 57.530109 0
M  V30 65 H 37.027606 28.213734 57.852083 0
M  V30 66 H 39.738516 28.035380 51.162406 0
M  V30 67 H 38.267824 28.890164 50.763469 0
M  V30 68 H 39.000517 29.089345 59.024127 0
M  V30 69 H 38.676636 29.740408 60.609281 0
M  V30 END ATOM
M  V30 BEGIN BOND
M  V30 1 1 5 2
M  V30 2 2 7 3
M  V30 3 1 10 1
M  V30 4 1 10 8
M  V30 5 1 11 1
M  V30 6 1 13 6
M  V30 7 1 15 2
M  V30 8 1 16 5
M  V30 9 1 17 3
M  V30 10 1 17 4
M  V30 11 1 18 8
M  V30 12 2 19 2
M  V30 13 1 22 3
M  V30 14 1 22 5
M  V30 15 1 23 9
M  V30 16 1 24 4
M  V30 17 1 24 12
M  V30 18 1 25 8
M  V30 19 1 26 19
M  V30 20 2 26 21
M  V30 21 2 27 13
M  V30 22 1 27 21
M  V30 23 2 28 14
M  V30 24 1 28 16
M  V30 25 1 28 26
M  V30 26 1 29 13
M  V30 27 1 29 14
M  V30 28 1 30 20
M  V30 29 1 31 9
M  V30 30 1 31 15
M  V30 31 1 32 20
M  V30 32 1 32 24
M  V30 33 2 33 10
M  V30 34 1 34 8
M  V30 35 1 34 11
M  V30 36 1 34 12
M  V30 37 1 35 1
M  V30 38 1 36 1
M  V30 39 1 37 7
M  V30 40 1 38 22
M  V30 41 1 39 9
M  V30 42 1 40 9
M  V30 43 1 41 11
M  V30 44 1 42 11
M  V30 45 1 43 12
M  V30 46 1 44 12
M  V30 47 1 45 14
M  V30 48 1 46 15
M  V30 49 1 47 16
M  V30 50 1 48 17
M  V30 51 1 49 18
M  V30 52 1 50 18
M  V30 53 1 51 18
M  V30 54 1 52 21
M  V30 55 1 53 17
M  V30 56 1 54 22
M  V30 57 1 55 23
M  V30 58 1 24 56 CFG=1
M  V30 59 1 57 25
M  V30 60 1 58 25
M  V30 61 1 59 25
M  V30 62 1 60 27
M  V30 63 1 61 29
M  V30 64 1 62 29
M  V30 65 1 63 30
M  V30 66 1 64 30
M  V30 67 1 65 30
M  V30 68 1 66 31
M  V30 69 1 67 31
M  V30 70 1 68 32
M  V30 71 1 69 32
M  V30 END BOND
M  V30 END CTAB
M  END
>  <i_epik_Tot_Q>  (1) 
0

>  <i_epik_Tot_abs_Q>  (1) 
0

>  <i_i_glide_confnum>  (1) 
2961

>  <i_i_glide_lignum>  (1) 
39

>  <i_i_glide_posenum>  (1) 
285

>  <i_i_glide_rotatable_bonds>  (1) 
13

>  <i_lp_mmshare_version>  (1) 
72125

>  <i_m_source_file_index>  (1) 
13

>  <i_f3d_flags>  (1) 
0

>  <num_sample>  (1) 
50

>  <b_lp_Chiralities_Consistent>  (1) 
1

>  <r_epik_Charging_Adjusted_Penalty>  (1) 
0.55554580925232466

>  <r_epik_Ionization_Penalty>  (1) 
0.16124304309229381

>  <r_epik_Ionization_Penalty_Charging>  (1) 
0

>  <r_epik_Ionization_Penalty_Neutral>  (1) 
0.16124304309229381

>  <r_epik_State_Penalty>  (1) 
0.55554580925232466

>  <r_glide_ring_energy>  (1) 
0.004571206772424714

>  <r_i_docking_score>  (1) 
-6.9561682395960354

>  <r_i_glide_ecoul>  (1) 
-3.5812722431474171

>  <r_i_glide_eff_state_penalty>  (1) 
0.55554580925232466

>  <r_i_glide_einternal>  (1) 
13.125033642503379

>  <r_i_glide_emodel>  (1) 
-66.522069164201568

>  <r_i_glide_emodel_strain>  (1) 
2.0874139246143955

>  <r_i_glide_energy>  (1) 
-51.964699412511465

>  <r_i_glide_erotb>  (1) 
0.97331795518224939

>  <r_i_glide_esite>  (1) 
-0.0092959070304418755

>  <r_i_glide_evdw>  (1) 
-48.383427169364047

>  <r_i_glide_gscore>  (1) 
-7.5117140488483605

>  <r_i_glide_gscore_strain>  (1) 
0

>  <r_i_glide_hbond>  (1) 
-0.35799243842845635

>  <r_i_glide_ligand_efficiency>  (1) 
-0.20459318351753045

>  <r_i_glide_ligand_efficiency_ln>  (1) 
-1.5368126780369364

>  <r_i_glide_ligand_efficiency_sa>  (1) 
-0.6628024917843216

>  <r_i_glide_lipo>  (1) 
-3.9630455562328519

>  <r_i_glide_metal>  (1) 
-0

>  <r_i_glide_rewards>  (1) 
-1.1983359073985438

>  <r_lp_Energy>  (1) 
34.747627000000001

>  <r_lp_tautomer_probability>  (1) 
0.49996700039999997

>  <s_epik_Chemistry_Notes>  (1) 
This compound has an imine and may undergo hydrolysis.

>  <s_epik_cmdline>  (1) 
J2VwaWtfcHl0aG9uJywgJy1waHQnLCAnMS4wJywgJy1waCcsICc3LjQnLCAnLXRuJywgJzgnLCAnLW1hJywgJzUwMCcsICctaW1hZScsICc8aW5maWxlLm1hZT4nLCAnLW9tYWUnLCAnPG91dGZpbGUubWFlPic=

>  <s_epik_input>  (1) 
W0NIM11DMShbQ0gzXSlDKD1PKVtDSDJdW0NIMl1OMVtDSDJdW0NAQEhdKFtDSDJdT1tDSDNdKU8vW0NIXT1DKFxbTkgyXSlbQ0gyXU4oQyg9TjIpW05IXVtDSDJdW0NIMl1bT0hdKVtOSF1DKEMyMyk9W0NIXVtDSDJdQyhGKT1bQ0hdW0NIXT0z

>  <s_glide_docking_method>  (1) 
confgen

>  <s_i_glide_gridfile>  (1) 
gpcr_5ht2c_6bqh_protein_autoprepared_prepared

>  <s_lp_Force_Field>  (1) 
S-OPLS

>  <s_lp_Variant>  (1) 
DiffSBDD_12_num_sample_50-1

>  <s_m_source_file>  (1) 
generated__ligand_DiffSBDD_2026-05-06_prepared.sdf

>  <GenAI_Model>  (1) 
DiffSBDD

>  <Protein>  (1) 
GPCR_5HT2C

$$$$
DiffSBDD_26_num_sample_50
     RDKit          3D

  0  0  0  0  0  0  0  0  0  0999 V3000
M  V30 BEGIN CTAB
M  V30 COUNTS 96 102 0 0 1
M  V30 BEGIN ATOM
M  V30 1 C 41.974803 28.182238 68.053153 0
M  V30 2 N 42.779024 26.875724 66.031960 0
M  V30 3 C 38.993317 28.508757 55.465215 0
M  V30 4 C 38.444693 34.078227 60.657517 0
M  V30 5 N 41.411563 25.221486 65.929978 0 CHG=1
M  V30 6 N 40.900899 30.595336 63.539911 0
M  V30 7 C 42.979671 32.080603 65.158288 0
M  V30 8 C 42.382085 30.428374 66.838090 0
M  V30 9 C 40.507236 27.418807 57.035017 0
M  V30 10 C 41.911171 27.030388 67.098584 0
M  V30 11 C 40.613229 28.664065 61.841038 0
M  V30 12 C 40.103668 29.164655 66.537098 0
M  V30 13 O 36.732451 37.417625 61.201038 0
M  V30 14 C 40.918487 31.704324 62.578517 0
M  V30 15 N 40.185391 29.104238 60.476783 0 CFG=1 CHG=1
M  V30 16 C 42.450917 25.784791 65.345709 0
M  V30 17 S 40.718184 34.904816 61.859098 0
M  V30 18 C 39.365521 36.096411 61.785101 0
M  V30 19 C 40.792211 31.012690 64.973813 0 CFG=1
M  V30 20 N 43.058510 25.334800 64.252379 0
M  V30 21 C 39.972610 27.538192 55.741409 0
M  V30 22 C 38.543053 30.103823 58.940314 0
M  V30 23 C 41.046433 25.951270 67.027965 0
M  V30 24 C 37.467837 30.409866 56.195265 0
M  V30 25 C 39.055594 29.226383 57.807368 0
M  V30 26 C 43.070749 28.216335 69.115223 0
M  V30 27 C 39.580195 32.459333 62.366457 0
M  V30 28 C 37.157641 36.276230 60.485586 0
M  V30 29 C 38.069396 35.391911 61.358096 0 CFG=1
M  V30 30 C 41.669066 27.874723 69.511930 0
M  V30 31 C 40.116037 29.451127 63.078831 0
M  V30 32 C 38.530292 29.360744 56.495021 0
M  V30 33 O 43.477654 30.533958 67.389142 0
M  V30 34 C 40.630395 28.102638 59.470787 0
M  V30 35 C 42.662121 33.565772 65.114116 0
M  V30 36 O 38.489410 28.619362 54.201188 0
M  V30 37 C 39.666655 30.413885 65.817135 0
M  V30 38 C 43.719328 33.061250 66.061287 0
M  V30 39 C 39.741109 33.510484 61.252646 0 CFG=1
M  V30 40 C 43.902461 27.745224 65.648041 0
M  V30 41 C 41.329883 29.451331 67.424923 0 CFG=1
M  V30 42 N 42.059975 31.160850 65.724961 0
M  V30 43 C 38.744041 29.391433 60.282354 0
M  V30 44 C 40.054605 28.258970 58.068753 0
M  V30 45 H 38.627366 34.288324 59.602026 0
M  V30 46 H 37.627544 33.356934 60.680845 0
M  V30 47 H 43.467462 31.659626 64.285399 0
M  V30 48 H 41.264467 26.675071 57.236636 0
M  V30 49 H 40.254266 27.642913 61.972456 0
M  V30 50 H 41.700912 28.590181 61.874557 0
M  V30 51 H 40.282109 28.374848 65.819790 0
M  V30 52 H 39.273205 28.821473 67.149010 0
M  V30 53 H 37.471841 37.989097 61.335668 0
M  V30 54 H 41.683456 32.417083 62.877192 0
M  V30 55 H 41.263721 31.318725 61.621465 0
M  V30 56 H 39.249381 36.612129 62.739774 0
M  V30 57 H 39.659166 36.834925 61.053539 0
M  V30 58 H 40.445292 32.043314 64.916844 0
M  V30 59 H 43.853629 25.807405 63.841976 0
M  V30 60 H 42.762606 24.496163 63.772491 0
M  V30 61 H 40.320257 26.885858 54.953708 0
M  V30 62 H 39.062209 31.063472 58.924146 0
M  V30 63 H 37.477985 30.307254 58.818708 0
M  V30 64 H 40.213945 25.671051 67.657131 0
M  V30 65 H 37.635665 31.326687 56.759560 0
M  V30 66 H 37.447005 30.703164 55.146869 0
M  V30 67 H 36.485082 30.015896 56.451098 0
M  V30 68 H 43.797062 27.407341 69.123531 0
M  V30 69 H 43.445068 29.169009 69.481985 0
M  V30 70 H 38.785569 31.769887 62.103083 0
M  V30 71 H 39.249446 32.946113 63.282492 0
M  V30 72 H 37.670675 36.596236 59.577562 0
M  V30 73 H 36.275677 35.717185 60.171276 0
M  V30 74 H 37.513924 35.137296 62.252654 0
M  V30 75 H 41.111048 28.614341 70.083651 0
M  V30 76 H 41.468976 26.840845 69.785089 0
M  V30 77 H 39.054692 29.677170 63.048593 0
M  V30 78 H 40.267401 28.716499 63.859283 0
M  V30 79 H 40.267234 27.130857 59.797525 0
M  V30 80 H 41.720536 28.057651 59.429980 0
M  V30 81 H 42.992805 34.138928 64.250338 0
M  V30 82 H 41.726474 33.905074 65.555087 0
M  V30 83 H 37.841377 29.302820 54.129298 0
M  V30 84 H 39.467466 31.135790 66.600433 0
M  V30 85 H 38.736500 30.283351 65.272199 0
M  V30 86 H 43.460827 33.117217 67.117104 0
M  V30 87 H 44.774376 33.221707 65.853947 0
M  V30 88 H 40.272993 33.040535 60.428015 0
M  V30 89 H 43.542350 28.513222 64.962801 0
M  V30 90 H 44.330458 28.206812 66.535690 0
M  V30 91 H 44.689841 27.167629 65.163891 0
M  V30 92 H 40.944543 30.032924 68.262743 0
M  V30 93 H 38.316556 29.994720 61.073791 0
M  V30 94 H 38.195187 28.449340 60.253481 0
M  V30 95 H 40.957351 24.376056 65.613228 0
M  V30 96 H 40.664655 29.968281 60.274601 0
M  V30 END ATOM
M  V30 BEGIN BOND
M  V30 1 1 10 1
M  V30 2 1 10 2
M  V30 3 1 14 6
M  V30 4 1 15 11
M  V30 5 1 16 2
M  V30 6 2 16 5
M  V30 7 1 18 17
M  V30 8 1 19 6
M  V30 9 1 20 16
M  V30 10 1 21 3
M  V30 11 2 21 9
M  V30 12 1 23 5
M  V30 13 2 23 10
M  V30 14 1 25 22
M  V30 15 1 26 1
M  V30 16 1 27 14
M  V30 17 1 28 13
M  V30 18 1 29 4
M  V30 19 1 29 18
M  V30 20 1 29 28
M  V30 21 1 30 1
M  V30 22 1 30 26
M  V30 23 1 31 6
M  V30 24 1 31 11
M  V30 25 2 32 3
M  V30 26 1 32 24
M  V30 27 1 32 25
M  V30 28 2 33 8
M  V30 29 1 34 15
M  V30 30 1 35 7
M  V30 31 1 36 3
M  V30 32 1 37 12
M  V30 33 1 37 19
M  V30 34 1 38 7
M  V30 35 1 38 35
M  V30 36 1 39 4
M  V30 37 1 39 17
M  V30 38 1 39 27
M  V30 39 1 40 2
M  V30 40 1 41 1
M  V30 41 1 41 8
M  V30 42 1 41 12
M  V30 43 1 42 7
M  V30 44 1 42 8
M  V30 45 1 42 19
M  V30 46 1 43 15
M  V30 47 1 43 22
M  V30 48 1 44 9
M  V30 49 2 44 25
M  V30 50 1 44 34
M  V30 51 1 45 4
M  V30 52 1 46 4
M  V30 53 1 47 7
M  V30 54 1 48 9
M  V30 55 1 49 11
M  V30 56 1 50 11
M  V30 57 1 51 12
M  V30 58 1 52 12
M  V30 59 1 53 13
M  V30 60 1 54 14
M  V30 61 1 55 14
M  V30 62 1 56 18
M  V30 63 1 57 18
M  V30 64 1 19 58 CFG=3
M  V30 65 1 59 20
M  V30 66 1 60 20
M  V30 67 1 61 21
M  V30 68 1 62 22
M  V30 69 1 63 22
M  V30 70 1 64 23
M  V30 71 1 65 24
M  V30 72 1 66 24
M  V30 73 1 67 24
M  V30 74 1 68 26
M  V30 75 1 69 26
M  V30 76 1 70 27
M  V30 77 1 71 27
M  V30 78 1 72 28
M  V30 79 1 73 28
M  V30 80 1 29 74 CFG=1
M  V30 81 1 75 30
M  V30 82 1 76 30
M  V30 83 1 77 31
M  V30 84 1 78 31
M  V30 85 1 79 34
M  V30 86 1 80 34
M  V30 87 1 81 35
M  V30 88 1 82 35
M  V30 89 1 83 36
M  V30 90 1 84 37
M  V30 91 1 85 37
M  V30 92 1 86 38
M  V30 93 1 87 38
M  V30 94 1 39 88 CFG=3
M  V30 95 1 89 40
M  V30 96 1 90 40
M  V30 97 1 91 40
M  V30 98 1 41 92 CFG=1
M  V30 99 1 93 43
M  V30 100 1 94 43
M  V30 101 1 95 5
M  V30 102 1 15 96 CFG=3
M  V30 END BOND
M  V30 END CTAB
M  END
>  <i_epik_Tot_Q>  (1) 
2

>  <i_epik_Tot_abs_Q>  (1) 
2

>  <i_i_glide_confnum>  (1) 
5888

>  <i_i_glide_lignum>  (1) 
69

>  <i_i_glide_posenum>  (1) 
351

>  <i_i_glide_rotatable_bonds>  (1) 
13

>  <i_lp_mmshare_version>  (1) 
72125

>  <i_m_source_file_index>  (1) 
27

>  <i_f3d_flags>  (1) 
0

>  <num_sample>  (1) 
50

>  <b_lp_Chiralities_Consistent>  (1) 
1

>  <r_epik_Charging_Adjusted_Penalty>  (1) 
0.023035094209541071

>  <r_epik_Ionization_Penalty>  (1) 
0.04084289902745275

>  <r_epik_Ionization_Penalty_Charging>  (1) 
0.023035094209541071

>  <r_epik_Ionization_Penalty_Neutral>  (1) 
0.017807804817911676

>  <r_epik_State_Penalty>  (1) 
-0

>  <r_glide_ring_energy>  (1) 
0

>  <r_i_docking_score>  (1) 
-6.9557088732973531

>  <r_i_glide_ecoul>  (1) 
-1.8001443221729359

>  <r_i_glide_eff_state_penalty>  (1) 
-0

>  <r_i_glide_einternal>  (1) 
20.086088093747627

>  <r_i_glide_emodel>  (1) 
-54.226553660522924

>  <r_i_glide_emodel_strain>  (1) 
1.3736347065711954

>  <r_i_glide_energy>  (1) 
-46.571581666391474

>  <r_i_glide_erotb>  (1) 
0.45984128746928787

>  <r_i_glide_esite>  (1) 
0

>  <r_i_glide_evdw>  (1) 
-44.77143734421854

>  <r_i_glide_gscore>  (1) 
-6.9557088732973531

>  <r_i_glide_gscore_strain>  (1) 
0

>  <r_i_glide_hbond>  (1) 
0

>  <r_i_glide_ligand_efficiency>  (1) 
-0.15808429257493983

>  <r_i_glide_ligand_efficiency_ln>  (1) 
-1.4538948924565545

>  <r_i_glide_ligand_efficiency_sa>  (1) 
-0.55809261913313724

>  <r_i_glide_lipo>  (1) 
-3.6613933800374019

>  <r_i_glide_metal>  (1) 
-0

>  <r_i_glide_rewards>  (1) 
-1.2455632651923729

>  <r_lp_Energy>  (1) 
46.785410999999996

>  <r_lp_tautomer_probability>  (1) 
1

>  <s_epik_Chemistry_Notes>  (1) 
This compound contains an acetal/aminal-like group ( X-CH(R)-Y where X, Y are N, S, or O) that may be acid/base labile, releasing an aldehyde.

>  <s_epik_cmdline>  (1) 
J2VwaWtfcHl0aG9uJywgJy1waHQnLCAnMS4wJywgJy1waCcsICc3LjQnLCAnLXRuJywgJzgnLCAnLW1hJywgJzUwMCcsICctaW1hZScsICc8aW5maWxlLm1hZT4nLCAnLW9tYWUnLCAnPG91dGZpbGUubWFlPic=

>  <s_epik_input>  (1) 
W05IMl1jMW5bY0hdYyhuMVtDSDNdKUMyKFtDSDJdW0NIMl0yKVtDQEBIXShDMz1PKVtDSDJdW0NIMl1bQ0BASF0oTjNbQ0hdNFtDSDJdW0NIMl00KU4oW0NIMl1bQ0gyXVtDQEhdKFNbQ0gyXTUpW0NIMl1bQ0BASF01W0NIMl1bT0hdKVtDSDJdW0NIMl1OKFtDSDJdW0NIMl02KVtDSDJdYyhjNjcpW2NIXVtjSF1jKFtPSF0pYzdbQ0gzXQ==

>  <s_glide_docking_method>  (1) 
confgen

>  <s_i_glide_gridfile>  (1) 
gpcr_5ht2c_6bqh_protein_autoprepared_prepared

>  <s_lp_Force_Field>  (1) 
S-OPLS

>  <s_lp_Variant>  (1) 
DiffSBDD_26_num_sample_50-2

>  <s_m_source_file>  (1) 
generated__ligand_DiffSBDD_2026-05-06_prepared.sdf

>  <GenAI_Model>  (1) 
DiffSBDD

>  <Protein>  (1) 
GPCR_5HT2C

$$$$
DiffSBDD_41_num_sample_50
     RDKit          3D

  0  0  0  0  0  0  0  0  0  0999 V3000
M  V30 BEGIN CTAB
M  V30 COUNTS 83 87 0 0 1
M  V30 BEGIN ATOM
M  V30 1 C 42.242162 30.599328 66.708838 0
M  V30 2 C 41.983642 29.106093 66.504206 0 CFG=1
M  V30 3 C 38.574740 31.595415 58.931165 0
M  V30 4 C 39.987591 37.252016 62.491173 0
M  V30 5 C 44.307787 28.854387 65.575119 0 CFG=1
M  V30 6 O 45.467390 28.045587 65.616008 0
M  V30 7 O 45.697919 30.821455 65.453784 0
M  V30 8 C 38.075002 26.410353 54.778170 0
M  V30 9 C 41.059630 27.414788 64.855425 0
M  V30 10 C 38.791904 30.571643 56.717592 0
M  V30 11 C 36.681181 32.768092 61.453303 0
M  V30 12 C 40.212399 30.915312 61.964260 0
M  V30 13 C 41.098107 28.842844 65.232206 0 CFG=2
M  V30 14 C 37.659338 28.942513 54.282787 0
M  V30 15 F 39.394202 26.421192 54.963690 0
M  V30 16 O 38.267433 30.147102 60.863530 0
M  V30 17 C 38.533396 32.849272 59.805495 0 CFG=2
M  V30 18 C 40.464159 29.624380 62.777396 0
M  V30 19 C 38.693649 29.288551 57.312378 0
M  V30 20 C 43.302858 28.304178 66.582780 0 CFG=1
M  V30 21 O 43.850140 28.350244 67.890283 0
M  V30 22 F 37.467331 26.555422 55.952314 0
M  V30 23 C 39.743053 34.725879 60.892656 0 CFG=1
M  V30 24 C 38.689145 31.166615 61.744498 0 CFG=2
M  V30 25 C 39.051000 29.562126 54.513134 0
M  V30 26 N 35.846813 31.819635 61.451989 0
M  V30 27 F 37.722402 25.221354 54.305924 0
M  V30 28 O 40.871992 36.142646 62.578740 0
M  V30 29 C 43.495424 31.183121 66.356445 0
M  V30 30 C 38.454461 30.303902 59.512029 0
M  V30 31 C 39.867381 33.622018 59.847408 0
M  V30 32 C 41.438640 32.787913 67.440447 0
M  V30 33 C 38.725464 31.721507 57.531037 0
M  V30 34 O 38.958984 30.715395 55.349653 0
M  V30 35 C 38.190867 32.569778 61.280482 0 CFG=2
M  V30 36 S 39.067432 33.820478 62.253506 0
M  V30 37 C 42.673945 33.363373 67.094662 0
M  V30 38 C 41.067394 26.210705 64.653485 0
M  V30 39 C 44.604138 30.356189 65.775080 0
M  V30 40 C 41.043740 35.417881 61.364720 0
M  V30 41 C 41.314792 29.841399 64.049033 0
M  V30 42 C 37.650747 27.491672 53.762342 0
M  V30 43 C 38.516056 29.162949 58.697626 0
M  V30 44 C 41.222288 31.410599 67.248426 0
M  V30 45 C 43.700407 32.566027 66.555619 0
M  V30 46 H 41.388898 28.772471 67.358260 0
M  V30 47 H 40.019946 37.817129 63.422183 0
M  V30 48 H 40.267162 37.925198 61.680941 0
M  V30 49 H 38.953631 36.935621 62.344722 0
M  V30 50 H 43.907168 28.737802 64.570479 0
M  V30 51 H 45.233132 27.166779 65.359515 0
M  V30 52 H 36.365279 33.807213 61.575127 0
M  V30 53 H 40.682516 31.747458 62.481218 0
M  V30 54 H 40.731954 30.843351 61.010109 0
M  V30 55 H 40.074033 29.036591 65.555219 0
M  V30 56 H 37.067469 28.993127 55.192529 0
M  V30 57 H 37.126391 29.575144 53.577444 0
M  V30 58 H 37.799796 33.523818 59.356145 0
M  V30 59 H 40.917699 28.861061 62.143596 0
M  V30 60 H 39.497816 29.218765 63.053497 0
M  V30 61 H 38.747943 28.401464 56.709770 0
M  V30 62 H 43.143055 27.242910 66.398177 0
M  V30 63 H 44.757011 28.080827 67.825048 0
M  V30 64 H 39.011111 35.461705 60.558060 0
M  V30 65 H 38.207218 30.980307 62.704635 0
M  V30 66 H 39.460043 29.876990 53.552604 0
M  V30 67 H 39.778171 28.854292 54.908434 0
M  V30 68 H 34.891507 32.134938 61.550308 0
M  V30 69 H 40.632997 32.934511 60.219521 0
M  V30 70 H 40.128697 34.019148 58.866965 0
M  V30 71 H 40.653216 33.405138 67.854051 0
M  V30 72 H 38.805511 32.701515 57.082903 0
M  V30 73 H 42.835313 34.419978 67.241968 0
M  V30 74 H 41.073984 25.160872 64.462836 0
M  V30 75 H 41.811615 34.664785 61.540836 0
M  V30 76 H 41.451396 36.108696 60.640357 0
M  V30 77 H 41.080620 30.837408 64.425344 0
M  V30 78 H 42.358679 29.882296 63.746799 0
M  V30 79 H 36.636099 27.266854 53.438239 0
M  V30 80 H 38.265085 27.411792 52.865348 0
M  V30 81 H 38.429512 28.182005 59.140864 0
M  V30 82 H 40.270688 30.973640 67.512007 0
M  V30 83 H 44.646253 33.016877 66.290669 0
M  V30 END ATOM
M  V30 BEGIN BOND
M  V30 1 1 2 1
M  V30 2 1 6 5
M  V30 3 1 13 2
M  V30 4 1 13 9
M  V30 5 1 15 8
M  V30 6 1 17 3
M  V30 7 1 18 12
M  V30 8 1 19 10
M  V30 9 1 20 2
M  V30 10 1 20 5
M  V30 11 1 21 20
M  V30 12 1 22 8
M  V30 13 1 24 12
M  V30 14 1 24 16
M  V30 15 1 25 14
M  V30 16 2 26 11
M  V30 17 1 27 8
M  V30 18 1 28 4
M  V30 19 1 29 1
M  V30 20 2 30 3
M  V30 21 1 30 16
M  V30 22 1 31 17
M  V30 23 1 31 23
M  V30 24 1 33 3
M  V30 25 2 33 10
M  V30 26 1 34 10
M  V30 27 1 34 25
M  V30 28 1 35 11 CFG=3
M  V30 29 1 35 17
M  V30 30 1 35 24
M  V30 31 1 36 23
M  V30 32 1 36 35
M  V30 33 2 37 32
M  V30 34 3 38 9
M  V30 35 1 39 5
M  V30 36 2 39 7
M  V30 37 1 39 29
M  V30 38 1 40 23
M  V30 39 1 40 28
M  V30 40 1 41 13
M  V30 41 1 41 18
M  V30 42 1 42 8
M  V30 43 1 42 14
M  V30 44 2 43 19
M  V30 45 1 43 30
M  V30 46 2 44 1
M  V30 47 1 44 32
M  V30 48 2 45 29
M  V30 49 1 45 37
M  V30 50 1 2 46 CFG=1
M  V30 51 1 47 4
M  V30 52 1 48 4
M  V30 53 1 49 4
M  V30 54 1 5 50 CFG=3
M  V30 55 1 51 6
M  V30 56 1 52 11
M  V30 57 1 53 12
M  V30 58 1 54 12
M  V30 59 1 13 55 CFG=1
M  V30 60 1 56 14
M  V30 61 1 57 14
M  V30 62 1 17 58 CFG=3
M  V30 63 1 59 18
M  V30 64 1 60 18
M  V30 65 1 61 19
M  V30 66 1 20 62 CFG=3
M  V30 67 1 63 21
M  V30 68 1 23 64 CFG=3
M  V30 69 1 24 65 CFG=1
M  V30 70 1 66 25
M  V30 71 1 67 25
M  V30 72 1 68 26
M  V30 73 1 69 31
M  V30 74 1 70 31
M  V30 75 1 71 32
M  V30 76 1 72 33
M  V30 77 1 73 37
M  V30 78 1 74 38
M  V30 79 1 75 40
M  V30 80 1 76 40
M  V30 81 1 77 41
M  V30 82 1 78 41
M  V30 83 1 79 42
M  V30 84 1 80 42
M  V30 85 1 81 43
M  V30 86 1 82 44
M  V30 87 1 83 45
M  V30 END BOND
M  V30 END CTAB
M  END
>  <i_epik_Tot_Q>  (1) 
0

>  <i_epik_Tot_abs_Q>  (1) 
0

>  <i_i_glide_confnum>  (1) 
2338

>  <i_i_glide_lignum>  (1) 
98

>  <i_i_glide_posenum>  (1) 
48

>  <i_i_glide_rotatable_bonds>  (1) 
16

>  <i_lp_mmshare_version>  (1) 
72125

>  <i_m_source_file_index>  (1) 
42

>  <i_f3d_flags>  (1) 
0

>  <num_sample>  (1) 
50

>  <b_lp_Chiralities_Consistent>  (1) 
1

>  <r_epik_Charging_Adjusted_Penalty>  (1) 
0.41067983895260396

>  <r_epik_Ionization_Penalty>  (1) 
0.0048607436090088536

>  <r_epik_Ionization_Penalty_Charging>  (1) 
0

>  <r_epik_Ionization_Penalty_Neutral>  (1) 
0.0048607436090088536

>  <r_epik_State_Penalty>  (1) 
0.41067983895260396

>  <r_glide_ring_energy>  (1) 
1.8793194922327006

>  <r_i_docking_score>  (1) 
-6.9473484837446664

>  <r_i_glide_ecoul>  (1) 
-0.087492557125915332

>  <r_i_glide_eff_state_penalty>  (1) 
0.41067983895260396

>  <r_i_glide_einternal>  (1) 
23.422990149996494

>  <r_i_glide_emodel>  (1) 
-52.097098662531913

>  <r_i_glide_emodel_strain>  (1) 
1.5348439251146573

>  <r_i_glide_energy>  (1) 
-45.000373495471351

>  <r_i_glide_erotb>  (1) 
0.41134081239429626

>  <r_i_glide_esite>  (1) 
0

>  <r_i_glide_evdw>  (1) 
-44.912880938345438

>  <r_i_glide_gscore>  (1) 
-7.3580283226972707

>  <r_i_glide_gscore_strain>  (1) 
0

>  <r_i_glide_hbond>  (1) 
-0.32000000000000001

>  <r_i_glide_ligand_efficiency>  (1) 
-0.15438552186099258

>  <r_i_glide_ligand_efficiency_ln>  (1) 
-1.4453580833957487

>  <r_i_glide_ligand_efficiency_sa>  (1) 
-0.54913282901756877

>  <r_i_glide_lipo>  (1) 
-3.7404348538779049

>  <r_i_glide_metal>  (1) 
-0

>  <r_i_glide_rewards>  (1) 
-1.4501663507275031

>  <r_lp_Energy>  (1) 
42.813420999999998

>  <r_lp_tautomer_probability>  (1) 
0.5

>  <s_epik_Chemistry_Notes>  (1) 
This compound has an imine and may undergo hydrolysis.

>  <s_epik_cmdline>  (1) 
J2VwaWtfcHl0aG9uJywgJy1waHQnLCAnMS4wJywgJy1waCcsICc3LjQnLCAnLXRuJywgJzgnLCAnLW1hJywgJzUwMCcsICctaW1hZScsICc8aW5maWxlLm1hZT4nLCAnLW9tYWUnLCAnPG91dGZpbGUubWFlPic=

>  <s_epik_input>  (1) 
W2NIXTFbY0hdW2NIXVtjSF1jKGMxMilDKD1PKVtDQEBIXShbT0hdKVtDQEBIXShbT0hdKVtDQEBIXTJbQ0BASF0oQyNbQ0hdKVtDSDJdW0NIMl1bQ0gyXVtDQEBIXTNPYyhjNFtDQEBIXShbQ0BAXTM1L1tDSF09Ti9bSF0pW0NIMl1bQ0BASF0oUzUpW0NIMl1PW0NIM10pW2NIXVtjSF1jKFtjSF00KU9bQ0gyXVtDSDJdW0NIMl1DKEYpKEYpRg==

>  <s_glide_docking_method>  (1) 
confgen

>  <s_i_glide_gridfile>  (1) 
gpcr_5ht2c_6bqh_protein_autoprepared_prepared

>  <s_lp_Force_Field>  (1) 
S-OPLS

>  <s_lp_Variant>  (1) 
DiffSBDD_41_num_sample_50-3

>  <s_m_source_file>  (1) 
generated__ligand_DiffSBDD_2026-05-06_prepared.sdf

>  <GenAI_Model>  (1) 
DiffSBDD

>  <Protein>  (1) 
GPCR_5HT2C

$$$$
DiffSBDD_7_num_sample_50
     RDKit          3D

  0  0  0  0  0  0  0  0  0  0999 V3000
M  V30 BEGIN CTAB
M  V30 COUNTS 93 96 0 0 1
M  V30 BEGIN ATOM
M  V30 1 C 38.771148 28.823817 51.448486 0 CFG=1
M  V30 2 O 36.169288 31.700240 61.453070 0
M  V30 3 C 38.117511 27.852396 54.982877 0
M  V30 4 C 39.467369 33.222735 58.877225 0
M  V30 5 O 41.067276 29.221157 51.054272 0 CHG=-1
M  V30 6 N 38.595193 36.749222 61.698273 0
M  V30 7 S 40.929020 31.930940 62.365311 0
M  V30 8 N 42.547817 32.899002 65.894277 0
M  V30 9 N 38.233177 32.417978 58.709839 0 CFG=2 CHG=1
M  V30 10 S 41.468375 34.452905 64.149311 0
M  V30 11 C 37.975292 37.903188 61.407275 0
M  V30 12 C 37.303517 25.788575 56.544799 0
M  V30 13 C 35.013545 31.970473 60.698176 0
M  V30 14 C 37.258402 32.434596 60.953024 0 CFG=1
M  V30 15 C 41.145958 32.657102 64.058742 0 CFG=2
M  V30 16 N 37.467352 38.876645 61.053508 0
M  V30 17 O 39.780571 34.267410 61.091771 0
M  V30 18 C 37.992828 28.867249 56.072207 0
M  V30 19 O 44.157801 30.368234 66.470809 0
M  V30 20 C 39.866676 26.361445 53.817518 0
M  V30 21 C 38.147205 32.825216 62.139224 0 CFG=2
M  V30 22 C 43.205342 29.680489 65.682601 0 CFG=1
M  V30 23 O 39.625353 30.567069 50.061007 0
M  V30 24 C 42.277872 31.946917 64.836510 0 CFG=2
M  V30 25 O 42.267376 35.102130 66.551448 0
M  V30 26 C 38.762510 34.256608 62.064257 0 CFG=2
M  V30 27 C 38.608976 29.184236 52.926562 0
M  V30 28 C 39.921514 29.597085 50.787997 0
M  V30 29 C 38.925097 30.786440 54.854223 0
M  V30 30 C 39.157777 29.823969 55.992884 0 CFG=1
M  V30 31 C 39.319665 30.653971 57.251969 0
M  V30 32 C 37.903829 31.573024 59.857136 0
M  V30 33 C 39.135373 30.306707 53.474590 0
M  V30 34 C 41.959431 30.558980 65.425119 0
M  V30 35 C 38.769597 27.356606 51.010807 0
M  V30 36 C 39.159068 26.769251 55.053229 0 CFG=2
M  V30 37 C 39.363665 34.421469 59.747409 0
M  V30 38 C 37.886706 35.512167 61.853467 0
M  V30 39 C 38.168792 31.655346 57.457970 0
M  V30 40 O 41.467502 30.500221 62.327441 0
M  V30 41 C 39.125279 31.688388 62.512657 0
M  V30 42 C 43.881571 29.166915 64.399849 0
M  V30 43 C 37.702632 26.400788 55.214560 0 CFG=2
M  V30 44 C 42.168472 34.201285 65.735926 0
M  V30 45 O 38.682736 30.611739 62.888080 0
M  V30 46 O 36.666721 35.474033 61.791261 0
M  V30 47 O 37.800544 28.292547 53.639937 0
M  V30 48 H 37.867367 29.221463 51.053548 0
M  V30 49 H 39.832992 33.524755 57.898158 0
M  V30 50 H 40.267020 32.821403 59.453620 0
M  V30 51 H 39.604525 36.763127 61.759162 0
M  V30 52 H 42.969809 32.617517 66.768091 0
M  V30 53 H 37.930463 26.148772 57.361033 0
M  V30 54 H 36.269931 26.021079 56.777250 0
M  V30 55 H 37.398070 24.703533 56.496168 0
M  V30 56 H 34.295210 31.221728 60.969718 0
M  V30 57 H 34.612065 32.954893 60.942609 0
M  V30 58 H 35.153956 31.906376 59.620050 0
M  V30 59 H 36.869029 33.345500 60.499241 0
M  V30 60 H 40.225912 32.510560 64.627534 0
M  V30 61 H 37.987852 28.374407 57.041507 0
M  V30 62 H 37.048399 29.392120 55.971660 0
M  V30 63 H 44.639314 30.963732 65.916688 0
M  V30 64 H 39.113340 26.021469 53.132730 0
M  V30 65 H 40.267409 27.221532 53.321448 0
M  V30 66 H 40.640882 25.621279 53.999221 0
M  V30 67 H 37.464039 32.821207 62.975392 0
M  V30 68 H 42.888710 28.814842 66.263731 0
M  V30 69 H 43.124573 31.880476 64.165686 0
M  V30 70 H 39.194009 34.447273 63.032062 0
M  V30 71 H 37.916869 31.200051 54.864823 0
M  V30 72 H 39.610592 31.629930 54.946267 0
M  V30 73 H 40.088907 29.275325 55.836752 0
M  V30 74 H 40.223709 31.210509 57.053177 0
M  V30 75 H 39.489242 30.012330 58.119718 0
M  V30 76 H 37.168812 30.829477 59.545711 0
M  V30 77 H 38.763823 30.967692 60.142232 0
M  V30 78 H 39.723189 30.964835 52.854623 0
M  V30 79 H 41.290587 30.014241 64.761210 0
M  V30 80 H 41.403501 30.679441 66.356865 0
M  V30 81 H 39.697958 26.837946 51.232569 0
M  V30 82 H 37.911480 26.823200 51.416630 0
M  V30 83 H 38.687875 27.306071 49.931165 0
M  V30 84 H 39.784468 26.770607 55.944790 0
M  V30 85 H 38.417703 34.922873 59.532081 0
M  V30 86 H 40.190592 35.069831 59.453703 0
M  V30 87 H 37.231823 31.104929 57.433118 0
M  V30 88 H 38.119254 32.397265 56.662430 0
M  V30 89 H 43.193942 28.552607 63.817880 0
M  V30 90 H 44.218711 29.975010 63.752811 0
M  V30 91 H 44.752368 28.553018 64.631991 0
M  V30 92 H 37.207246 25.924950 54.370527 0
M  V30 93 H 37.463247 33.067273 58.602261 0
M  V30 END ATOM
M  V30 BEGIN BOND
M  V30 1 1 9 4
M  V30 2 1 11 6
M  V30 3 1 13 2
M  V30 4 1 14 2
M  V30 5 1 15 7
M  V30 6 1 15 10
M  V30 7 3 16 11
M  V30 8 1 18 3
M  V30 9 1 21 14
M  V30 10 1 22 19
M  V30 11 1 24 8
M  V30 12 1 24 15
M  V30 13 1 26 17
M  V30 14 1 26 21
M  V30 15 1 27 1
M  V30 16 1 28 1
M  V30 17 1 28 5
M  V30 18 2 28 23
M  V30 19 1 30 18
M  V30 20 1 30 29
M  V30 21 1 31 30
M  V30 22 1 32 9
M  V30 23 1 32 14
M  V30 24 2 33 27
M  V30 25 1 33 29
M  V30 26 1 34 22
M  V30 27 1 34 24
M  V30 28 1 35 1
M  V30 29 1 36 3
M  V30 30 1 36 20
M  V30 31 1 37 4
M  V30 32 1 37 17
M  V30 33 1 38 6
M  V30 34 1 38 26
M  V30 35 1 39 9
M  V30 36 1 39 31
M  V30 37 2 40 7
M  V30 38 1 7 41 CFG=1
M  V30 39 1 41 21
M  V30 40 1 42 22
M  V30 41 1 43 3
M  V30 42 1 43 12
M  V30 43 1 43 36
M  V30 44 1 44 8
M  V30 45 1 44 10
M  V30 46 2 44 25
M  V30 47 2 45 41
M  V30 48 2 46 38
M  V30 49 1 47 3
M  V30 50 1 47 27
M  V30 51 1 1 48 CFG=3
M  V30 52 1 49 4
M  V30 53 1 50 4
M  V30 54 1 51 6
M  V30 55 1 52 8
M  V30 56 1 53 12
M  V30 57 1 54 12
M  V30 58 1 55 12
M  V30 59 1 56 13
M  V30 60 1 57 13
M  V30 61 1 58 13
M  V30 62 1 14 59 CFG=3
M  V30 63 1 15 60 CFG=1
M  V30 64 1 61 18
M  V30 65 1 62 18
M  V30 66 1 63 19
M  V30 67 1 64 20
M  V30 68 1 65 20
M  V30 69 1 66 20
M  V30 70 1 21 67 CFG=1
M  V30 71 1 22 68 CFG=1
M  V30 72 1 24 69 CFG=3
M  V30 73 1 26 70 CFG=1
M  V30 74 1 71 29
M  V30 75 1 72 29
M  V30 76 1 30 73 CFG=3
M  V30 77 1 74 31
M  V30 78 1 75 31
M  V30 79 1 76 32
M  V30 80 1 77 32
M  V30 81 1 78 33
M  V30 82 1 79 34
M  V30 83 1 80 34
M  V30 84 1 81 35
M  V30 85 1 82 35
M  V30 86 1 83 35
M  V30 87 1 36 84 CFG=1
M  V30 88 1 85 37
M  V30 89 1 86 37
M  V30 90 1 87 39
M  V30 91 1 88 39
M  V30 92 1 89 42
M  V30 93 1 90 42
M  V30 94 1 91 42
M  V30 95 1 43 92 CFG=3
M  V30 96 1 9 93 CFG=3
M  V30 END BOND
M  V30 END CTAB
M  END
>  <i_epik_Tot_Q>  (1) 
0

>  <i_epik_Tot_abs_Q>  (1) 
2

>  <i_i_glide_confnum>  (1) 
1189

>  <i_i_glide_lignum>  (1) 
28

>  <i_i_glide_posenum>  (1) 
51

>  <i_i_glide_rotatable_bonds>  (1) 
14

>  <i_lp_mmshare_version>  (1) 
72125

>  <i_m_source_file_index>  (1) 
8

>  <i_f3d_flags>  (1) 
0

>  <num_sample>  (1) 
50

>  <b_lp_Chiralities_Consistent>  (1) 
1

>  <r_epik_Charging_Adjusted_Penalty>  (1) 
2.2678334573304797

>  <r_epik_Ionization_Penalty>  (1) 
1.1498882506810455

>  <r_epik_Ionization_Penalty_Charging>  (1) 
1.1031410554290029

>  <r_epik_Ionization_Penalty_Neutral>  (1) 
0.046747195252042517

>  <r_epik_State_Penalty>  (1) 
1.164692401901477

>  <r_glide_ring_energy>  (1) 
0

>  <r_i_docking_score>  (1) 
-6.9407683225181875

>  <r_i_glide_ecoul>  (1) 
-4.3998625106241693

>  <r_i_glide_eff_state_penalty>  (1) 
1.164692401901477

>  <r_i_glide_einternal>  (1) 
18.814015720760494

>  <r_i_glide_emodel>  (1) 
-26.998108575511829

>  <r_i_glide_emodel_strain>  (1) 
3.4099363646877237

>  <r_i_glide_energy>  (1) 
-28.457142280472901

>  <r_i_glide_erotb>  (1) 
0.2643022598508753

>  <r_i_glide_esite>  (1) 
-0.047064308822922334

>  <r_i_glide_evdw>  (1) 
-24.057279769848734

>  <r_i_glide_gscore>  (1) 
-8.1054607244196646

>  <r_i_glide_gscore_strain>  (1) 
0

>  <r_i_glide_hbond>  (1) 
-0.60799999999999998

>  <r_i_glide_ligand_efficiency>  (1) 
-0.14767592175570612

>  <r_i_glide_ligand_efficiency_ln>  (1) 
-1.4310427006532793

>  <r_i_glide_ligand_efficiency_sa>  (1) 
-0.53293671784051355

>  <r_i_glide_lipo>  (1) 
-3.8472065580336201

>  <r_i_glide_metal>  (1) 
-0

>  <r_i_glide_rewards>  (1) 
-2.0046487523279359

>  <r_lp_Energy>  (1) 
32.034796

>  <s_epik_Chemistry_Notes>  (1) 
This compound contains an acetal/aminal-like group ( X-CH(R)-Y where X, Y are N, S, or O) that may be acid/base labile, releasing an aldehyde.

>  <s_epik_cmdline>  (1) 
J2VwaWtfcHl0aG9uJywgJy1waHQnLCAnMS4wJywgJy1waCcsICc3LjQnLCAnLXRuJywgJzgnLCAnLW1hJywgJzUwMCcsICctaW1hZScsICc8aW5maWxlLm1hZT4nLCAnLW9tYWUnLCAnPG91dGZpbGUubWFlPic=

>  <s_epik_input>  (1) 
W09IXUMoPU8pW0NAQEhdKFtDSDNdKUMoTzEpPVtDSF1bQ0gyXVtDQEhdKFtDSDJdW0NAXTEyW0NASF0oW0NIM10pW0NAQEhdMltDSDNdKVtDSDJdW0NIMl1OM1tDSDJdW0NIMl1PW0NAQEhdKEMoPU8pW05IXUMjTilbQ0BASF0oW0NAQEhdKFtDSDJdMylPW0NIM10pQyg9TylTKD1PKVtDQEBIXTRTQyg9TylbTkhdW0NASF00W0NIMl1bQ0BIXShbT0hdKVtDSDNd

>  <s_glide_docking_method>  (1) 
confgen

>  <s_i_glide_gridfile>  (1) 
gpcr_5ht2c_6bqh_protein_autoprepared_prepared

>  <s_lp_Force_Field>  (1) 
S-OPLS

>  <s_lp_Variant>  (1) 
DiffSBDD_7_num_sample_50-6

>  <s_m_source_file>  (1) 
generated__ligand_DiffSBDD_2026-05-06_prepared.sdf

>  <GenAI_Model>  (1) 
DiffSBDD

>  <Protein>  (1) 
GPCR_5HT2C

$$$$
DiffSBDD_19_num_sample_50
     RDKit          3D

  0  0  0  0  0  0  0  0  0  0999 V3000
M  V30 BEGIN CTAB
M  V30 COUNTS 46 49 0 0 1
M  V30 BEGIN ATOM
M  V30 1 N 38.720936 33.932169 60.733753 0
M  V30 2 C 38.667352 32.102151 56.790077 0
M  V30 3 C 39.704382 33.143389 61.507593 0
M  V30 4 C 38.667415 30.018702 58.333880 0
M  V30 5 N 39.018703 29.280147 57.239606 0
M  V30 6 C 38.286060 31.173976 55.657848 0
M  V30 7 C 38.203454 31.477810 58.116511 0 CFG=1
M  V30 8 F 41.575866 33.320369 62.906096 0
M  V30 9 O 37.290377 34.021526 58.866897 0
M  V30 10 O 38.717457 29.561114 59.478282 0
M  V30 11 N 40.311899 35.214415 62.729764 0
M  V30 12 N 39.192031 26.729300 53.853443 0
M  V30 13 C 38.348960 28.783513 54.874679 0 CFG=2
M  V30 14 O 38.667373 32.243731 59.232156 0
M  V30 15 C 38.428155 28.964319 53.352943 0
M  V30 16 O 41.467399 36.021431 63.053499 0
M  V30 17 C 39.532460 36.022701 61.801719 0
M  V30 18 C 38.980282 29.818535 55.834590 0 CFG=2
M  V30 19 C 39.530261 27.892867 57.423697 0
M  V30 20 C 40.837931 34.033446 62.053575 0 CFG=2
M  V30 21 C 39.061504 27.476582 55.002027 0
M  V30 22 C 39.600043 27.071109 56.151932 0
M  V30 23 C 38.318324 35.232171 61.282790 0
M  V30 24 C 38.143482 33.450144 59.543447 0
M  V30 25 C 38.838151 27.559804 52.970141 0
M  V30 26 H 38.189611 33.068983 56.629093 0
M  V30 27 H 39.743071 32.277866 56.789560 0
M  V30 28 H 39.169659 32.683387 62.339747 0
M  V30 29 H 40.179824 32.325827 60.966501 0
M  V30 30 H 38.555503 31.618610 54.699162 0
M  V30 31 H 37.202134 31.046908 55.642487 0
M  V30 32 H 37.113657 31.443682 58.154120 0
M  V30 33 H 39.193398 29.678213 53.046786 0
M  V30 34 H 41.293865 36.287373 63.946574 0
M  V30 35 H 39.198002 36.933019 62.300832 0
M  V30 36 H 40.163401 36.328743 60.967077 0
M  V30 37 H 40.025160 29.955721 55.549229 0
M  V30 38 H 40.532901 27.946867 57.849924 0
M  V30 39 H 38.908736 27.346977 58.135396 0
M  V30 40 H 41.499871 34.341443 61.244513 0
M  V30 41 H 40.126912 26.128484 56.203326 0
M  V30 42 H 37.604641 35.070408 62.088176 0
M  V30 43 H 37.801652 35.840929 60.539099 0
M  V30 44 H 38.807814 27.318631 51.904081 0
M  V30 45 H 37.309255 28.618969 55.151127 0
M  V30 46 H 37.467410 29.221430 52.909447 0
M  V30 END ATOM
M  V30 BEGIN BOND
M  V30 1 1 3 1
M  V30 2 1 5 4
M  V30 3 1 6 2
M  V30 4 1 7 2
M  V30 5 1 7 4
M  V30 6 2 10 4
M  V30 7 1 14 7
M  V30 8 1 15 13
M  V30 9 1 16 11
M  V30 10 1 17 11
M  V30 11 1 18 5
M  V30 12 1 18 6
M  V30 13 1 18 13
M  V30 14 1 19 5
M  V30 15 1 20 3
M  V30 16 1 20 8
M  V30 17 1 20 11
M  V30 18 1 21 12
M  V30 19 1 21 13
M  V30 20 1 22 19
M  V30 21 2 22 21
M  V30 22 1 23 1
M  V30 23 1 23 17
M  V30 24 1 24 1
M  V30 25 2 24 9
M  V30 26 1 24 14
M  V30 27 2 25 12
M  V30 28 1 25 15
M  V30 29 1 26 2
M  V30 30 1 27 2
M  V30 31 1 28 3
M  V30 32 1 29 3
M  V30 33 1 30 6
M  V30 34 1 31 6
M  V30 35 1 7 32 CFG=3
M  V30 36 1 33 15
M  V30 37 1 34 16
M  V30 38 1 35 17
M  V30 39 1 36 17
M  V30 40 1 18 37 CFG=3
M  V30 41 1 38 19
M  V30 42 1 39 19
M  V30 43 1 20 40 CFG=3
M  V30 44 1 41 22
M  V30 45 1 42 23
M  V30 46 1 43 23
M  V30 47 1 44 25
M  V30 48 1 13 45 CFG=1
M  V30 49 1 46 15
M  V30 END BOND
M  V30 END CTAB
M  END
>  <i_epik_Tot_Q>  (1) 
0

>  <i_epik_Tot_abs_Q>  (1) 
0

>  <i_i_glide_confnum>  (1) 
15

>  <i_i_glide_lignum>  (1) 
53

>  <i_i_glide_posenum>  (1) 
66

>  <i_i_glide_rotatable_bonds>  (1) 
4

>  <i_lp_mmshare_version>  (1) 
72125

>  <i_m_source_file_index>  (1) 
20

>  <i_f3d_flags>  (1) 
0

>  <num_sample>  (1) 
50

>  <b_lp_Chiralities_Consistent>  (1) 
1

>  <r_epik_Charging_Adjusted_Penalty>  (1) 
0

>  <r_epik_Ionization_Penalty>  (1) 
0.00023690808741792311

>  <r_epik_Ionization_Penalty_Charging>  (1) 
0

>  <r_epik_Ionization_Penalty_Neutral>  (1) 
0.00023690808741792311

>  <r_epik_State_Penalty>  (1) 
-0

>  <r_glide_ring_energy>  (1) 
0

>  <r_i_docking_score>  (1) 
-6.9389187718021637

>  <r_i_glide_ecoul>  (1) 
-2.0693918685304906

>  <r_i_glide_eff_state_penalty>  (1) 
-0

>  <r_i_glide_einternal>  (1) 
4.0753727814919598

>  <r_i_glide_emodel>  (1) 
-60.823454233411837

>  <r_i_glide_emodel_strain>  (1) 
0

>  <r_i_glide_energy>  (1) 
-44.388273875866894

>  <r_i_glide_erotb>  (1) 
0.46110279215177946

>  <r_i_glide_esite>  (1) 
-0.012835920181637199

>  <r_i_glide_evdw>  (1) 
-42.318882007336406

>  <r_i_glide_gscore>  (1) 
-6.9389187718021637

>  <r_i_glide_gscore_strain>  (1) 
0

>  <r_i_glide_hbond>  (1) 
-0.023917124349914599

>  <r_i_glide_ligand_efficiency>  (1) 
-0.27755675087208653

>  <r_i_glide_ligand_efficiency_ln>  (1) 
-1.6447316915327646

>  <r_i_glide_ligand_efficiency_sa>  (1) 
-0.81158086291071052

>  <r_i_glide_lipo>  (1) 
-2.0718886379221644

>  <r_i_glide_metal>  (1) 
-0

>  <r_i_glide_rewards>  (1) 
-2.8650270008538334

>  <r_lp_Energy>  (1) 
38.735985999999997

>  <r_lp_tautomer_probability>  (1) 
1

>  <s_epik_Chemistry_Notes>  (1) 
This compound has an ester and may undergo hydrolysis at high or low pH. This compound has an imine and may undergo hydrolysis. This compound has a N-S or N-O group and may undergo hydrolysis at high or low pH.

>  <s_epik_cmdline>  (1) 
J2VwaWtfcHl0aG9uJywgJy1waHQnLCAnMS4wJywgJy1waCcsICc3LjQnLCAnLXRuJywgJzgnLCAnLW1hJywgJzUwMCcsICctaW1hZScsICc8aW5maWxlLm1hZT4nLCAnLW9tYWUnLCAnPG91dGZpbGUubWFlPic=

>  <s_epik_input>  (1) 
W0NIMl0xW0NIMl1OKFtPSF0pW0NAQEhdKEYpW0NIMl1OMUMoPU8pT1tDQEhdKEMyPU8pW0NIMl1bQ0gyXVtDQEBIXShOMjMpQz00QyhbQ0gyXVtDSDJdMyk9TltDSDJdW0NIXTQ=

>  <s_glide_docking_method>  (1) 
confgen

>  <s_i_glide_gridfile>  (1) 
gpcr_5ht2c_6bqh_protein_autoprepared_prepared

>  <s_lp_Force_Field>  (1) 
S-OPLS

>  <s_lp_Variant>  (1) 
DiffSBDD_19_num_sample_50-2

>  <s_m_source_file>  (1) 
generated__ligand_DiffSBDD_2026-05-06_prepared.sdf

>  <GenAI_Model>  (1) 
DiffSBDD

>  <Protein>  (1) 
GPCR_5HT2C

$$$$
DiffSBDD_5_num_sample_50
     RDKit          3D

  0  0  0  0  0  0  0  0  0  0999 V3000
M  V30 BEGIN CTAB
M  V30 COUNTS 80 82 0 0 1
M  V30 BEGIN ATOM
M  V30 1 C 38.554191 30.424727 56.569770 0
M  V30 2 C 38.321227 30.302378 54.070199 0 CFG=2
M  V30 3 N 38.841749 35.866583 61.192533 0
M  V30 4 F 38.121351 25.701249 58.253465 0
M  V30 5 C 37.816230 30.155961 59.868776 0
M  V30 6 N 37.668564 29.998110 57.418744 0 CHG=1
M  V30 7 C 37.421142 32.370777 61.124614 0 CFG=1
M  V30 8 C 37.841421 24.484737 56.253836 0 CFG=2
M  V30 9 C 40.005920 29.757197 52.209494 0
M  V30 10 C 37.466798 30.890481 58.565363 0 CFG=2
M  V30 11 N 39.051098 31.567553 56.912795 0
M  V30 12 C 39.926440 30.819879 51.095180 0
M  V30 13 C 38.873045 27.443991 54.234454 0 CFG=2
M  V30 14 C 40.667386 28.523136 51.567987 0
M  V30 15 N 37.235734 25.660910 54.253471 0 CHG=1
M  V30 16 C 38.759842 34.526037 60.637089 0
M  V30 17 C 38.604648 31.812375 53.971973 0
M  V30 18 C 38.477504 32.106701 58.146004 0
M  V30 19 C 38.956980 29.678950 55.335651 0 CFG=2
M  V30 20 C 36.701944 25.181426 55.533593 0
M  V30 21 O 40.811918 35.540465 62.248493 0
M  V30 22 C 37.701289 24.526280 57.778608 0
M  V30 23 C 39.738471 37.645556 62.570562 0
M  V30 24 C 39.848148 36.257625 61.981290 0
M  V30 25 S 39.392433 25.221465 55.688223 0
M  V30 26 C 38.532332 28.219327 55.496472 0
M  V30 27 C 38.223686 28.092311 52.986258 0
M  V30 28 C 35.113032 32.853005 61.457271 0
M  V30 29 O 36.240726 32.066326 61.848825 0
M  V30 30 O 39.232256 33.159824 62.547867 0
M  V30 31 N 38.667427 29.507775 52.837598 0 CFG=1 CHG=1
M  V30 32 C 38.172313 33.584126 61.707861 0 CFG=2
M  V30 33 N 38.635001 26.021438 54.385597 0
M  V30 34 C 38.275599 31.088782 60.992015 0
M  V30 35 H 37.240090 30.218374 54.190965 0
M  V30 36 H 38.079985 36.503971 61.010252 0
M  V30 37 H 38.570636 29.385342 59.701557 0
M  V30 38 H 36.919327 29.633110 60.201460 0
M  V30 39 H 37.072307 32.703517 60.153297 0
M  V30 40 H 37.824763 23.475884 55.867964 0
M  V30 41 H 40.667294 30.125447 52.991864 0
M  V30 42 H 36.436556 31.237194 58.653498 0
M  V30 43 H 39.754582 32.064514 56.382536 0
M  V30 44 H 40.913238 31.000551 50.664103 0
M  V30 45 H 39.280990 30.500072 50.275364 0
M  V30 46 H 39.564500 31.782925 51.435787 0
M  V30 47 H 39.942688 27.495062 54.147111 0
M  V30 48 H 41.726146 28.741891 51.453494 0
M  V30 49 H 40.629151 27.623248 52.177091 0
M  V30 50 H 40.245989 28.277607 50.592858 0
M  V30 51 H 36.727104 26.462963 53.914510 0
M  V30 52 H 39.714916 34.177150 60.243432 0
M  V30 53 H 38.080351 34.611166 59.790031 0
M  V30 54 H 38.066482 32.354307 54.749199 0
M  V30 55 H 39.665267 32.021306 54.088447 0
M  V30 56 H 38.267505 32.275996 53.053519 0
M  V30 57 H 37.927358 33.022461 57.927014 0
M  V30 58 H 39.254281 32.326448 58.871099 0
M  V30 59 H 40.045331 29.724610 55.256883 0
M  V30 60 H 35.867944 24.497258 55.374190 0
M  V30 61 H 36.338649 26.021429 56.119334 0
M  V30 62 H 36.667407 24.421494 58.092243 0
M  V30 63 H 38.267276 23.730430 58.253242 0
M  V30 64 H 38.956159 37.621424 63.329145 0
M  V30 65 H 40.667093 37.923256 63.053478 0
M  V30 66 H 39.489433 38.388964 61.812880 0
M  V30 67 H 39.034707 27.816162 56.376382 0
M  V30 68 H 37.467421 28.145238 55.674423 0
M  V30 69 H 38.388106 27.511581 52.077518 0
M  V30 70 H 37.139306 28.112484 53.105832 0
M  V30 71 H 34.311910 32.752801 62.191266 0
M  V30 72 H 35.349542 33.915291 61.396661 0
M  V30 73 H 34.734052 32.536015 60.485190 0
M  V30 74 H 39.806445 33.903648 62.694486 0
M  V30 75 H 37.444516 34.172715 62.253488 0
M  V30 76 H 39.315909 31.346531 60.793298 0
M  V30 77 H 38.297384 30.551022 61.941438 0
M  V30 78 H 37.206141 24.917772 53.568158 0
M  V30 79 H 37.161531 29.131258 57.319101 0
M  V30 80 H 38.047320 29.864942 52.126741 0
M  V30 END ATOM
M  V30 BEGIN BOND
M  V30 1 2 6 1
M  V30 2 1 10 5
M  V30 3 1 10 6
M  V30 4 1 11 1
M  V30 5 1 12 9
M  V30 6 1 14 9
M  V30 7 1 16 3
M  V30 8 1 17 2
M  V30 9 1 18 10
M  V30 10 1 18 11
M  V30 11 1 19 1
M  V30 12 1 19 2
M  V30 13 1 20 8
M  V30 14 1 20 15
M  V30 15 1 22 4
M  V30 16 1 22 8
M  V30 17 1 24 3
M  V30 18 2 24 21
M  V30 19 1 24 23
M  V30 20 1 25 8
M  V30 21 1 26 13
M  V30 22 1 26 19
M  V30 23 1 27 13
M  V30 24 1 29 7
M  V30 25 1 29 28
M  V30 26 1 31 2
M  V30 27 1 31 9
M  V30 28 1 31 27
M  V30 29 1 32 7
M  V30 30 1 32 16
M  V30 31 1 32 30
M  V30 32 1 33 13
M  V30 33 1 33 15
M  V30 34 1 33 25
M  V30 35 1 34 5
M  V30 36 1 34 7
M  V30 37 1 2 35 CFG=1
M  V30 38 1 36 3
M  V30 39 1 37 5
M  V30 40 1 38 5
M  V30 41 1 7 39 CFG=3
M  V30 42 1 8 40 CFG=3
M  V30 43 1 41 9
M  V30 44 1 10 42 CFG=1
M  V30 45 1 43 11
M  V30 46 1 44 12
M  V30 47 1 45 12
M  V30 48 1 46 12
M  V30 49 1 13 47 CFG=3
M  V30 50 1 48 14
M  V30 51 1 49 14
M  V30 52 1 50 14
M  V30 53 1 51 15
M  V30 54 1 52 16
M  V30 55 1 53 16
M  V30 56 1 54 17
M  V30 57 1 55 17
M  V30 58 1 56 17
M  V30 59 1 57 18
M  V30 60 1 58 18
M  V30 61 1 19 59 CFG=3
M  V30 62 1 60 20
M  V30 63 1 61 20
M  V30 64 1 62 22
M  V30 65 1 63 22
M  V30 66 1 64 23
M  V30 67 1 65 23
M  V30 68 1 66 23
M  V30 69 1 67 26
M  V30 70 1 68 26
M  V30 71 1 69 27
M  V30 72 1 70 27
M  V30 73 1 71 28
M  V30 74 1 72 28
M  V30 75 1 73 28
M  V30 76 1 74 30
M  V30 77 1 32 75 CFG=1
M  V30 78 1 76 34
M  V30 79 1 77 34
M  V30 80 1 78 15
M  V30 81 1 79 6
M  V30 82 1 31 80 CFG=3
M  V30 END BOND
M  V30 END CTAB
M  END
>  <i_epik_Tot_Q>  (1) 
3

>  <i_epik_Tot_abs_Q>  (1) 
3

>  <i_i_glide_confnum>  (1) 
2364

>  <i_i_glide_lignum>  (1) 
14

>  <i_i_glide_posenum>  (1) 
305

>  <i_i_glide_rotatable_bonds>  (1) 
13

>  <i_lp_mmshare_version>  (1) 
72125

>  <i_m_source_file_index>  (1) 
6

>  <i_f3d_flags>  (1) 
0

>  <num_sample>  (1) 
50

>  <b_lp_Chiralities_Consistent>  (1) 
1

>  <r_epik_Charging_Adjusted_Penalty>  (1) 
0.16301919670703535

>  <r_epik_Ionization_Penalty>  (1) 
0.082191666583868089

>  <r_epik_Ionization_Penalty_Charging>  (1) 
0.082191230012028396

>  <r_epik_Ionization_Penalty_Neutral>  (1) 
4.3657183969654913e-07

>  <r_epik_State_Penalty>  (1) 
0.080827966695006942

>  <r_glide_ring_energy>  (1) 
0

>  <r_i_docking_score>  (1) 
-6.9347542907089412

>  <r_i_glide_ecoul>  (1) 
-3.0898426516182749

>  <r_i_glide_eff_state_penalty>  (1) 
0.080827966695006942

>  <r_i_glide_einternal>  (1) 
21.537472203439751

>  <r_i_glide_emodel>  (1) 
-44.114408734927764

>  <r_i_glide_emodel_strain>  (1) 
3.0782722700190845

>  <r_i_glide_energy>  (1) 
-34.583665237167935

>  <r_i_glide_erotb>  (1) 
0.63983490757673345

>  <r_i_glide_esite>  (1) 
-0.16067902263532324

>  <r_i_glide_evdw>  (1) 
-31.493822585549658

>  <r_i_glide_gscore>  (1) 
-7.0155822574039481

>  <r_i_glide_gscore_strain>  (1) 
0

>  <r_i_glide_hbond>  (1) 
-0.32000000000000001

>  <r_i_glide_ligand_efficiency>  (1) 
-0.20396336149143945

>  <r_i_glide_ligand_efficiency_ln>  (1) 
-1.5320817360868559

>  <r_i_glide_ligand_efficiency_sa>  (1) 
-0.66076211291589271

>  <r_i_glide_lipo>  (1) 
-3.7946543263420436

>  <r_i_glide_metal>  (1) 
-0

>  <r_i_glide_rewards>  (1) 
-1.3419162889830896

>  <r_lp_Energy>  (1) 
47.464686

>  <s_epik_Chemistry_Notes>  (1) 
This compound has an imine and may undergo hydrolysis. This compound has a N-S or N-O group and may undergo hydrolysis at high or low pH.

>  <s_epik_cmdline>  (1) 
J2VwaWtfcHl0aG9uJywgJy1waHQnLCAnMS4wJywgJy1waCcsICc3LjQnLCAnLXRuJywgJzgnLCAnLW1hJywgJzUwMCcsICctaW1hZScsICc8aW5maWxlLm1hZT4nLCAnLW9tYWUnLCAnPG91dGZpbGUubWFlPic=

>  <s_epik_input>  (1) 
RltDSDJdW0NASF0xW0NIMl1bTkhdTihTMSlbQ0BASF0oW0NIMl1OMltDSF0oW0NIM10pW0NIM10pW0NIMl1bQ0BASF0oW0NASF0yW0NIM10pQzM9TltDQEhdKFtDSDJdW05IXTMpW0NIMl1bQ0gyXVtDQEBIXShPW0NIM10pW0NAQEhdKFtPSF0pW0NIMl1bTkhdQyg9TylbQ0gzXQ==

>  <s_glide_docking_method>  (1) 
confgen

>  <s_i_glide_gridfile>  (1) 
gpcr_5ht2c_6bqh_protein_autoprepared_prepared

>  <s_lp_Force_Field>  (1) 
S-OPLS

>  <s_lp_Variant>  (1) 
DiffSBDD_5_num_sample_50-1

>  <s_m_source_file>  (1) 
generated__ligand_DiffSBDD_2026-05-06_prepared.sdf

>  <GenAI_Model>  (1) 
DiffSBDD

>  <Protein>  (1) 
GPCR_5HT2C

$$$$
DiffSBDD_3_num_sample_50
     RDKit          3D

  0  0  0  0  0  0  0  0  0  0999 V3000
M  V30 BEGIN CTAB
M  V30 COUNTS 73 76 0 0 1
M  V30 BEGIN ATOM
M  V30 1 C 35.349637 31.586890 60.460069 0
M  V30 2 N 36.267387 38.882468 61.853501 0
M  V30 3 C 35.919230 34.074919 60.841727 0
M  V30 4 C 39.438629 29.322452 56.083429 0 CFG=2
M  V30 5 C 39.716582 29.586209 60.019506 0
M  V30 6 S 41.867362 34.660987 64.138808 0
M  V30 7 C 37.803929 34.192396 59.261492 0
M  V30 8 C 36.569841 37.986840 61.188009 0
M  V30 9 C 37.869735 27.072168 53.045572 0
M  V30 10 C 40.905037 33.262622 63.502539 0 CFG=1
M  V30 11 C 38.907110 28.471778 54.997345 0 CFG=1
M  V30 12 C 35.736828 32.681168 61.451223 0
M  V30 13 C 37.700894 31.579813 59.206107 0 CFG=2
M  V30 14 C 39.305826 29.783757 58.573922 0
M  V30 15 C 39.887374 28.907144 57.485420 0
M  V30 16 C 40.043783 33.760606 62.335711 0
M  V30 17 N 37.337630 34.377023 60.642332 0
M  V30 18 C 36.947030 36.838486 60.350113 0
M  V30 19 O 37.977987 29.082830 55.848918 0
M  V30 20 C 39.142819 35.990721 61.369370 0
M  V30 21 C 41.118200 35.841754 62.990870 0
M  V30 22 C 37.632688 35.720802 61.171798 0 CFG=2
M  V30 23 C 37.623583 26.453403 55.831467 0
M  V30 24 C 39.322682 28.174802 60.469848 0
M  V30 25 N 38.430752 30.700137 58.244668 0 CHG=1
M  V30 26 C 39.015251 27.305404 54.015134 0 CFG=1
M  V30 27 C 36.477076 30.795161 59.765114 0 CFG=2
M  V30 28 C 37.333360 32.922333 58.533183 0
M  V30 29 C 39.768411 35.253184 62.570526 0 CFG=2
M  V30 30 O 35.867417 30.021429 58.736558 0
M  V30 31 N 38.897927 27.044939 55.411729 0
M  V30 32 F 41.703423 32.274454 63.098827 0
M  V30 33 O 38.267420 27.457608 51.749646 0
M  V30 34 H 34.789474 30.864876 61.053527 0
M  V30 35 H 34.645882 31.989631 59.729136 0
M  V30 36 H 35.321488 34.229340 59.942403 0
M  V30 37 H 35.499659 34.761642 61.576738 0
M  V30 38 H 39.789684 30.303876 55.768774 0
M  V30 39 H 39.294976 30.289559 60.727252 0
M  V30 40 H 38.892121 34.192277 59.264348 0
M  V30 41 H 37.467402 35.035061 58.656410 0
M  V30 42 H 37.584142 26.021436 53.053515 0
M  V30 43 H 36.996055 27.663445 53.323071 0
M  V30 44 H 40.281405 32.871604 64.307377 0
M  V30 45 H 34.870764 32.773047 62.108919 0
M  V30 46 H 36.583255 32.388258 62.074656 0
M  V30 47 H 38.373744 31.856298 60.012525 0
M  V30 48 H 40.797480 29.705911 60.093260 0
M  V30 49 H 40.975234 28.927988 57.538554 0
M  V30 50 H 40.589956 33.638870 61.399380 0
M  V30 51 H 39.128126 33.175686 62.253231 0
M  V30 52 H 37.597710 37.194272 59.550662 0
M  V30 53 H 36.027970 36.497095 59.873736 0
M  V30 54 H 39.715959 35.806759 60.461469 0
M  V30 55 H 39.254193 37.059144 61.557992 0
M  V30 56 H 41.012227 36.821412 63.453492 0
M  V30 57 H 41.774541 35.953204 62.126934 0
M  V30 58 H 37.199871 35.761740 62.172579 0
M  V30 59 H 37.653063 25.370838 55.706994 0
M  V30 60 H 36.765682 26.821410 55.276192 0
M  V30 61 H 37.444693 26.654751 56.887812 0
M  V30 62 H 39.476689 28.051611 61.542557 0
M  V30 63 H 39.919126 27.413153 59.967253 0
M  V30 64 H 38.272501 27.969599 60.257678 0
M  V30 65 H 39.594604 27.878586 57.687946 0
M  V30 66 H 39.996036 26.992453 53.668339 0
M  V30 67 H 36.863003 30.080135 60.489800 0
M  V30 68 H 36.267403 33.015583 58.378330 0
M  V30 69 H 37.749390 32.956619 57.525320 0
M  V30 70 H 39.098902 35.355175 63.424220 0
M  V30 71 H 35.565387 30.625977 58.049278 0
M  V30 72 H 37.601561 27.149398 51.146884 0
M  V30 73 H 38.148977 30.769918 57.267599 0
M  V30 END ATOM
M  V30 BEGIN BOND
M  V30 1 3 8 2
M  V30 2 1 10 6
M  V30 3 1 11 4
M  V30 4 1 12 1
M  V30 5 1 12 3
M  V30 6 1 14 5
M  V30 7 1 15 4
M  V30 8 1 15 14
M  V30 9 1 16 10
M  V30 10 1 17 3
M  V30 11 1 17 7
M  V30 12 1 18 8
M  V30 13 1 19 4
M  V30 14 1 11 19 CFG=1
M  V30 15 1 21 6
M  V30 16 1 22 17
M  V30 17 1 22 18
M  V30 18 1 22 20
M  V30 19 1 24 5
M  V30 20 1 25 13
M  V30 21 2 25 14
M  V30 22 1 26 9
M  V30 23 1 26 11
M  V30 24 1 27 1
M  V30 25 1 27 13
M  V30 26 1 28 7
M  V30 27 1 28 13
M  V30 28 1 29 16
M  V30 29 1 29 20
M  V30 30 1 29 21
M  V30 31 1 30 27
M  V30 32 1 31 11
M  V30 33 1 31 23
M  V30 34 1 31 26
M  V30 35 1 32 10
M  V30 36 1 33 9
M  V30 37 1 34 1
M  V30 38 1 35 1
M  V30 39 1 36 3
M  V30 40 1 37 3
M  V30 41 1 4 38 CFG=3
M  V30 42 1 39 5
M  V30 43 1 40 7
M  V30 44 1 41 7
M  V30 45 1 42 9
M  V30 46 1 43 9
M  V30 47 1 10 44 CFG=1
M  V30 48 1 45 12
M  V30 49 1 46 12
M  V30 50 1 13 47 CFG=1
M  V30 51 1 48 5
M  V30 52 1 49 15
M  V30 53 1 50 16
M  V30 54 1 51 16
M  V30 55 1 52 18
M  V30 56 1 53 18
M  V30 57 1 54 20
M  V30 58 1 55 20
M  V30 59 1 56 21
M  V30 60 1 57 21
M  V30 61 1 22 58 CFG=1
M  V30 62 1 59 23
M  V30 63 1 60 23
M  V30 64 1 61 23
M  V30 65 1 62 24
M  V30 66 1 63 24
M  V30 67 1 64 24
M  V30 68 1 65 15
M  V30 69 1 26 66 CFG=3
M  V30 70 1 27 67 CFG=1
M  V30 71 1 68 28
M  V30 72 1 69 28
M  V30 73 1 29 70 CFG=1
M  V30 74 1 71 30
M  V30 75 1 72 33
M  V30 76 1 73 25
M  V30 END BOND
M  V30 END CTAB
M  END
>  <i_epik_Tot_Q>  (1) 
1

>  <i_epik_Tot_abs_Q>  (1) 
1

>  <i_i_glide_confnum>  (1) 
678

>  <i_i_glide_lignum>  (1) 
11

>  <i_i_glide_posenum>  (1) 
46

>  <i_i_glide_rotatable_bonds>  (1) 
11

>  <i_lp_mmshare_version>  (1) 
72125

>  <i_m_source_file_index>  (1) 
4

>  <i_f3d_flags>  (1) 
0

>  <num_sample>  (1) 
50

>  <b_lp_Chiralities_Consistent>  (1) 
1

>  <r_epik_Charging_Adjusted_Penalty>  (1) 
0.69158801815778803

>  <r_epik_Ionization_Penalty>  (1) 
0.18004840766126984

>  <r_epik_Ionization_Penalty_Charging>  (1) 
0.063917621844604325

>  <r_epik_Ionization_Penalty_Neutral>  (1) 
0.11613078581666553

>  <r_epik_State_Penalty>  (1) 
0.62767039631318366

>  <r_glide_ring_energy>  (1) 
0

>  <r_i_docking_score>  (1) 
-6.9277948420189306

>  <r_i_glide_ecoul>  (1) 
-7.723049612197654

>  <r_i_glide_eff_state_penalty>  (1) 
0.62767039631318366

>  <r_i_glide_einternal>  (1) 
12.679289756433276

>  <r_i_glide_emodel>  (1) 
-54.141190971963972

>  <r_i_glide_emodel_strain>  (1) 
2.1169463494058789

>  <r_i_glide_energy>  (1) 
-46.205042115261314

>  <r_i_glide_erotb>  (1) 
0.69427784923131142

>  <r_i_glide_esite>  (1) 
-0.046007278612621688

>  <r_i_glide_evdw>  (1) 
-38.481992503063658

>  <r_i_glide_gscore>  (1) 
-7.5554652383321139

>  <r_i_glide_gscore_strain>  (1) 
0

>  <r_i_glide_hbond>  (1) 
-0.41038495249960238

>  <r_i_glide_ligand_efficiency>  (1) 
-0.20993317703087669

>  <r_i_glide_ligand_efficiency_ln>  (1) 
-1.5407057026630502

>  <r_i_glide_ligand_efficiency_sa>  (1) 
-0.67336787233162831

>  <r_i_glide_lipo>  (1) 
-3.3631120728814965

>  <r_i_glide_metal>  (1) 
-0

>  <r_i_glide_rewards>  (1) 
-1.3476817165868742

>  <r_lp_Energy>  (1) 
29.912270999999997

>  <s_epik_Chemistry_Notes>  (1) 
This compound has an imine and may undergo hydrolysis.

>  <s_epik_cmdline>  (1) 
J2VwaWtfcHl0aG9uJywgJy1waHQnLCAnMS4wJywgJy1waCcsICc3LjQnLCAnLXRuJywgJzgnLCAnLW1hJywgJzUwMCcsICctaW1hZScsICc8aW5maWxlLm1hZT4nLCAnLW9tYWUnLCAnPG91dGZpbGUubWFlPic=

>  <s_epik_input>  (1) 
RltDQEhdMVNbQ0gyXVtDQEhdKFtDSDJdMSlbQ0gyXVtDQEBIXShbQ0gyXUMjTilOKFtDSDJdW0NIMl0yKVtDSDJdW0NIMl1bQ0gyXVtDQEBIXShbT0hdKVtDQEhdMltOSF1DKD1bQ0hdXFtDSDNdKVxbQ0gyXVtDQEhdKE8zKVtDQF0zNFtDQEhdKFtDSDJdW09IXSlONFtDSDNd

>  <s_glide_docking_method>  (1) 
confgen

>  <s_i_glide_gridfile>  (1) 
gpcr_5ht2c_6bqh_protein_autoprepared_prepared

>  <s_lp_Force_Field>  (1) 
S-OPLS

>  <s_lp_Variant>  (1) 
DiffSBDD_3_num_sample_50-2

>  <s_m_source_file>  (1) 
generated__ligand_DiffSBDD_2026-05-06_prepared.sdf

>  <GenAI_Model>  (1) 
DiffSBDD

>  <Protein>  (1) 
GPCR_5HT2C

$$$$
DiffSBDD_10_num_sample_50
     RDKit          3D

  0  0  0  0  0  0  0  0  0  0999 V3000
M  V30 BEGIN CTAB
M  V30 COUNTS 64 66 0 0 1
M  V30 BEGIN ATOM
M  V30 1 C 39.674723 25.702944 58.130383 0
M  V30 2 C 39.260769 24.875812 56.900562 0
M  V30 3 C 39.159993 28.437107 52.477945 0
M  V30 4 N 37.860588 26.814259 56.225518 0
M  V30 5 O 40.267740 28.974489 63.052203 0 CHG=-1
M  V30 6 O 39.633560 29.998676 58.422032 0
M  V30 7 C 42.006991 34.407650 64.365923 0
M  V30 8 C 38.535139 29.271305 53.413282 0
M  V30 9 C 40.730785 33.770839 61.934048 0
M  V30 10 O 39.976170 30.821308 64.737612 0 CHG=-1
M  V30 11 N 42.410822 32.063309 64.791245 0
M  V30 12 C 38.106687 28.762756 54.653370 0
M  V30 13 C 40.795628 31.027632 60.801920 0
M  V30 14 C 41.890040 33.064151 63.973213 0
M  V30 15 C 37.886466 25.341165 56.377148 0 CFG=1
M  V30 16 C 36.339443 23.324230 55.761772 0
M  V30 17 C 38.320251 27.376024 54.975132 0
M  V30 18 O 38.537065 30.810365 62.653569 0
M  V30 19 C 38.192844 27.589591 57.430015 0
M  V30 20 N 40.092289 27.890479 59.110692 0
M  V30 21 C 37.246093 24.455440 55.261183 0
M  V30 22 P 39.867147 30.421603 63.281413 0
M  V30 23 C 40.325978 36.220959 61.457053 0
M  V30 24 C 41.494909 35.428741 63.550260 0
M  V30 25 C 40.090914 29.221216 59.258763 0
M  V30 26 N 40.659854 29.614243 60.414075 0
M  V30 27 C 39.382153 27.088671 52.779183 0
M  V30 28 O 37.462959 29.600955 55.517834 0
M  V30 29 F 39.554550 28.937241 51.282393 0
M  V30 30 C 38.975999 26.558619 54.020048 0
M  V30 31 C 41.245978 32.734430 62.748248 0
M  V30 32 C 39.626795 27.220889 57.889047 0 CFG=1
M  V30 33 C 41.124252 31.262411 62.302589 0 CFG=2
M  V30 34 C 40.860205 35.114552 62.335766 0
M  V30 35 H 40.667606 25.390350 58.439715 0
M  V30 36 H 38.982314 25.496892 58.945893 0
M  V30 37 H 40.033149 24.953419 56.137627 0
M  V30 38 H 39.216275 23.822276 57.178368 0
M  V30 39 H 42.497353 34.656224 65.294930 0
M  V30 40 H 38.369068 30.306348 53.174660 0
M  V30 41 H 40.242935 33.538586 61.002151 0
M  V30 42 H 42.646363 32.308317 65.738405 0
M  V30 43 H 42.003600 31.138150 64.692857 0
M  V30 44 H 41.625212 31.461635 60.253662 0
M  V30 45 H 39.867984 31.533074 60.527960 0
M  V30 46 H 37.201919 25.195015 57.214970 0
M  V30 47 H 36.342250 22.495488 55.055858 0
M  V30 48 H 36.667323 22.922854 56.719274 0
M  V30 49 H 35.307333 23.658219 55.853343 0
M  V30 50 H 38.050980 28.653636 57.384579 0
M  V30 51 H 37.492129 27.288756 58.209392 0
M  V30 52 H 40.481163 27.316938 59.843519 0
M  V30 53 H 36.677645 25.053394 54.546341 0
M  V30 54 H 38.029404 23.952985 54.698135 0
M  V30 55 H 40.188229 37.146186 62.018202 0
M  V30 56 H 41.037020 36.405916 60.652064 0
M  V30 57 H 39.365938 35.940158 61.024987 0
M  V30 58 H 41.595733 36.452793 63.853475 0
M  V30 59 H 40.977407 28.914619 61.076545 0
M  V30 60 H 39.867401 26.452019 52.056332 0
M  V30 61 H 37.393836 30.509360 55.262244 0
M  V30 62 H 39.174361 25.533706 54.237485 0
M  V30 63 H 40.333333 27.476525 57.096263 0
M  V30 64 H 42.083738 30.793648 62.514732 0
M  V30 END ATOM
M  V30 BEGIN BOND
M  V30 1 1 2 1
M  V30 2 2 8 3
M  V30 3 1 12 8
M  V30 4 1 14 7
M  V30 5 1 14 11
M  V30 6 1 15 2
M  V30 7 1 15 4
M  V30 8 1 17 4
M  V30 9 2 17 12
M  V30 10 1 19 4
M  V30 11 1 21 15
M  V30 12 1 21 16
M  V30 13 1 22 5
M  V30 14 1 22 10
M  V30 15 2 22 18
M  V30 16 2 24 7
M  V30 17 2 25 6
M  V30 18 1 25 20
M  V30 19 1 26 13
M  V30 20 1 26 25
M  V30 21 1 27 3
M  V30 22 1 28 12
M  V30 23 1 29 3
M  V30 24 1 30 17
M  V30 25 2 30 27
M  V30 26 1 31 9
M  V30 27 2 31 14
M  V30 28 1 32 1
M  V30 29 1 32 19
M  V30 30 1 32 20
M  V30 31 1 33 13
M  V30 32 1 33 22
M  V30 33 1 33 31
M  V30 34 2 34 9
M  V30 35 1 34 23
M  V30 36 1 34 24
M  V30 37 1 35 1
M  V30 38 1 36 1
M  V30 39 1 37 2
M  V30 40 1 38 2
M  V30 41 1 39 7
M  V30 42 1 40 8
M  V30 43 1 41 9
M  V30 44 1 42 11
M  V30 45 1 43 11
M  V30 46 1 44 13
M  V30 47 1 45 13
M  V30 48 1 15 46 CFG=1
M  V30 49 1 47 16
M  V30 50 1 48 16
M  V30 51 1 49 16
M  V30 52 1 50 19
M  V30 53 1 51 19
M  V30 54 1 52 20
M  V30 55 1 53 21
M  V30 56 1 54 21
M  V30 57 1 55 23
M  V30 58 1 56 23
M  V30 59 1 57 23
M  V30 60 1 58 24
M  V30 61 1 59 26
M  V30 62 1 60 27
M  V30 63 1 61 28
M  V30 64 1 62 30
M  V30 65 1 32 63 CFG=3
M  V30 66 1 33 64 CFG=1
M  V30 END BOND
M  V30 END CTAB
M  END
>  <i_epik_Tot_Q>  (1) 
-2

>  <i_epik_Tot_abs_Q>  (1) 
2

>  <i_i_glide_confnum>  (1) 
291

>  <i_i_glide_lignum>  (1) 
33

>  <i_i_glide_posenum>  (1) 
139

>  <i_i_glide_rotatable_bonds>  (1) 
10

>  <i_lp_mmshare_version>  (1) 
72125

>  <i_m_source_file_index>  (1) 
11

>  <i_f3d_flags>  (1) 
0

>  <num_sample>  (1) 
50

>  <b_lp_Chiralities_Consistent>  (1) 
1

>  <r_epik_Charging_Adjusted_Penalty>  (1) 
1.1617678045882596

>  <r_epik_Ionization_Penalty>  (1) 
0.4473271138811577

>  <r_epik_Ionization_Penalty_Charging>  (1) 
0.41559672628269745

>  <r_epik_Ionization_Penalty_Neutral>  (1) 
0.031730387598460232

>  <r_epik_State_Penalty>  (1) 
0.74617107830556217

>  <r_glide_ring_energy>  (1) 
0

>  <r_i_docking_score>  (1) 
-6.9229108963374912

>  <r_i_glide_ecoul>  (1) 
-2.2533422579121729

>  <r_i_glide_eff_state_penalty>  (1) 
0.74617107830556217

>  <r_i_glide_einternal>  (1) 
11.132845928335357

>  <r_i_glide_emodel>  (1) 
-54.719507344367891

>  <r_i_glide_emodel_strain>  (1) 
3.2135777817698994

>  <r_i_glide_energy>  (1) 
-39.267411304845858

>  <r_i_glide_erotb>  (1) 
0.58773720055558498

>  <r_i_glide_esite>  (1) 
-0.023228250970248467

>  <r_i_glide_evdw>  (1) 
-37.014069046933685

>  <r_i_glide_gscore>  (1) 
-7.6690819746430536

>  <r_i_glide_gscore_strain>  (1) 
0

>  <r_i_glide_hbond>  (1) 
-0.0045290060050145135

>  <r_i_glide_ligand_efficiency>  (1) 
-0.20361502636286738

>  <r_i_glide_ligand_efficiency_ln>  (1) 
-1.5294651980742429

>  <r_i_glide_ligand_efficiency_sa>  (1) 
-0.65963364232257116

>  <r_i_glide_lipo>  (1) 
-4.7854501958705518

>  <r_i_glide_metal>  (1) 
-0

>  <r_i_glide_rewards>  (1) 
-1.2549069313193146

>  <r_lp_Energy>  (1) 
49.585073000000001

>  <r_lp_tautomer_probability>  (1) 
0.99999999999736477

>  <s_epik_cmdline>  (1) 
J2VwaWtfcHl0aG9uJywgJy1waHQnLCAnMS4wJywgJy1waCcsICc3LjQnLCAnLXRuJywgJzgnLCAnLW1hJywgJzUwMCcsICctaW1hZScsICc8aW5maWxlLm1hZT4nLCAnLW9tYWUnLCAnPG91dGZpbGUubWFlPic=

>  <s_epik_input>  (1) 
RmMxW2NIXWMoW09IXSljKFtjSF1bY0hdMSlOMltDQEBIXShbQ0gyXVtDSDNdKVtDSDJdW0NIMl1bQ0BASF0oW0NIMl0yKVtOSF1DKD1PKVtOSF1bQ0gyXVtDQEhdKFAoPU8pKFtPSF0pW09IXSljM1tjSF1jKFtDSDNdKVtjSF1bY0hdYzNbTkgyXQ==

>  <s_glide_docking_method>  (1) 
confgen

>  <s_i_glide_gridfile>  (1) 
gpcr_5ht2c_6bqh_protein_autoprepared_prepared

>  <s_lp_Force_Field>  (1) 
S-OPLS

>  <s_lp_Variant>  (1) 
DiffSBDD_10_num_sample_50-2

>  <s_m_source_file>  (1) 
generated__ligand_DiffSBDD_2026-05-06_prepared.sdf

>  <GenAI_Model>  (1) 
DiffSBDD

>  <Protein>  (1) 
GPCR_5HT2C

$$$$
DiffSBDD_41_num_sample_50
     RDKit          3D

  0  0  0  0  0  0  0  0  0  0999 V3000
M  V30 BEGIN CTAB
M  V30 COUNTS 83 87 0 0 1
M  V30 BEGIN ATOM
M  V30 1 C 41.692222 32.991068 65.964511 0
M  V30 2 C 42.337710 32.247797 64.798954 0 CFG=2
M  V30 3 C 37.782742 31.810091 58.565783 0
M  V30 4 C 38.916096 36.538628 62.472296 0
M  V30 5 C 42.447302 30.141116 66.261752 0 CFG=1
M  V30 6 O 41.502186 29.326893 65.590842 0
M  V30 7 O 41.555257 30.289356 68.477420 0
M  V30 8 C 38.802327 26.333772 55.430781 0
M  V30 9 C 41.487269 33.123308 62.599151 0
M  V30 10 C 39.049360 30.673277 56.817176 0
M  V30 11 C 34.912493 32.453834 60.165926 0
M  V30 12 C 38.465321 32.217944 61.848471 0
M  V30 13 C 41.417135 31.997055 63.553485 0 CFG=2
M  V30 14 C 38.438416 28.753270 54.557039 0
M  V30 15 F 38.712573 25.061000 55.053508 0
M  V30 16 O 37.235485 30.598855 60.598692 0
M  V30 17 C 37.018506 33.039683 59.047843 0 CFG=2
M  V30 18 C 39.076230 31.133860 62.757671 0
M  V30 19 C 39.128683 29.516551 57.634910 0
M  V30 20 C 43.181969 31.054341 65.287576 0 CFG=1
M  V30 21 O 43.731102 30.263822 64.253450 0
M  V30 22 F 40.017571 26.526860 55.939372 0
M  V30 23 C 37.025756 35.358848 59.887258 0 CFG=1
M  V30 24 C 37.079681 31.820029 61.293209 0 CFG=2
M  V30 25 C 39.780100 29.456619 54.870925 0
M  V30 26 N 34.050880 33.221441 59.642474 0
M  V30 27 F 37.889328 26.549170 56.377676 0
M  V30 28 O 38.976248 36.164711 61.104358 0
M  V30 29 C 41.440239 32.337019 67.207225 0
M  V30 30 C 37.846873 30.642266 59.369977 0
M  V30 31 C 37.805304 34.341324 59.048364 0
M  V30 32 C 40.771575 35.065399 66.878886 0
M  V30 33 C 38.386246 31.818031 57.292764 0
M  V30 34 O 39.604294 30.691282 55.554521 0
M  V30 35 C 36.343762 32.865583 60.421469 0 CFG=2
M  V30 36 S 36.355674 34.452695 61.284235 0
M  V30 37 C 40.524312 34.421396 68.103215 0
M  V30 38 C 41.467413 34.089079 61.853461 0
M  V30 39 C 41.782678 30.885851 67.425521 0
M  V30 40 C 37.846151 36.575642 60.340089 0
M  V30 41 C 39.947033 31.698106 63.900600 0
M  V30 42 C 38.552763 27.253108 54.216295 0
M  V30 43 C 38.526441 29.506686 58.901873 0
M  V30 44 C 41.355363 34.356582 65.814245 0
M  V30 45 C 40.857853 33.064362 68.268041 0
M  V30 46 H 43.067398 32.981846 64.487670 0
M  V30 47 H 39.797976 36.175256 62.998634 0
M  V30 48 H 38.893972 37.621405 62.576368 0
M  V30 49 H 38.038798 36.123019 62.966776 0
M  V30 50 H 43.180004 29.463698 66.702385 0
M  V30 51 H 41.122682 28.729720 66.220121 0
M  V30 52 H 34.667406 31.435385 60.466930 0
M  V30 53 H 38.379695 33.137700 62.422773 0
M  V30 54 H 39.152284 32.440169 61.033617 0
M  V30 55 H 41.806676 31.157926 62.979982 0
M  V30 56 H 37.734003 28.862204 55.380566 0
M  V30 57 H 37.972448 29.276256 53.721803 0
M  V30 58 H 36.267744 33.221424 58.276636 0
M  V30 59 H 39.629313 30.403368 62.165756 0
M  V30 60 H 38.267894 30.563551 63.215740 0
M  V30 61 H 39.639633 28.634912 57.289061 0
M  V30 62 H 44.036015 31.468989 65.826629 0
M  V30 63 H 43.061184 29.642032 64.001516 0
M  V30 64 H 36.170805 35.703186 59.302474 0
M  V30 65 H 36.449726 31.621440 62.157607 0
M  V30 66 H 40.267408 29.694030 53.927182 0
M  V30 67 H 40.483299 28.830333 55.416236 0
M  V30 68 H 33.141972 32.797755 59.533582 0
M  V30 69 H 38.805716 34.185297 59.454200 0
M  V30 70 H 37.867402 34.676838 58.014048 0
M  V30 71 H 40.516233 36.108175 66.756322 0
M  V30 72 H 38.320356 32.698077 56.669610 0
M  V30 73 H 40.078560 34.969947 68.920196 0
M  V30 74 H 41.420239 34.946406 61.218554 0
M  V30 75 H 38.193788 37.116795 59.461471 0
M  V30 76 H 37.212731 37.275100 60.890077 0
M  V30 77 H 39.899815 30.991467 64.724520 0
M  V30 78 H 39.497287 32.612212 64.283549 0
M  V30 79 H 37.616516 26.943625 53.749469 0
M  V30 80 H 39.326457 27.097101 53.463891 0
M  V30 81 H 38.577567 28.619097 59.515078 0
M  V30 82 H 41.547568 34.860515 64.878465 0
M  V30 83 H 40.667445 32.578229 69.211148 0
M  V30 END ATOM
M  V30 BEGIN BOND
M  V30 1 1 2 1
M  V30 2 1 6 5
M  V30 3 1 13 2
M  V30 4 1 13 9
M  V30 5 1 15 8
M  V30 6 1 17 3
M  V30 7 1 18 12
M  V30 8 1 19 10
M  V30 9 1 20 2
M  V30 10 1 20 5
M  V30 11 1 21 20
M  V30 12 1 22 8
M  V30 13 1 24 12
M  V30 14 1 24 16
M  V30 15 1 25 14
M  V30 16 2 26 11
M  V30 17 1 27 8
M  V30 18 1 28 4
M  V30 19 1 29 1
M  V30 20 2 30 3
M  V30 21 1 30 16
M  V30 22 1 31 17
M  V30 23 1 31 23
M  V30 24 1 33 3
M  V30 25 2 33 10
M  V30 26 1 34 10
M  V30 27 1 34 25
M  V30 28 1 35 11 CFG=3
M  V30 29 1 35 17
M  V30 30 1 35 24
M  V30 31 1 36 23
M  V30 32 1 36 35
M  V30 33 2 37 32
M  V30 34 3 38 9
M  V30 35 1 39 5
M  V30 36 2 39 7
M  V30 37 1 39 29
M  V30 38 1 40 23
M  V30 39 1 40 28
M  V30 40 1 41 13
M  V30 41 1 41 18
M  V30 42 1 42 8
M  V30 43 1 42 14
M  V30 44 2 43 19
M  V30 45 1 43 30
M  V30 46 2 44 1
M  V30 47 1 44 32
M  V30 48 2 45 29
M  V30 49 1 45 37
M  V30 50 1 2 46 CFG=3
M  V30 51 1 47 4
M  V30 52 1 48 4
M  V30 53 1 49 4
M  V30 54 1 5 50 CFG=1
M  V30 55 1 51 6
M  V30 56 1 52 11
M  V30 57 1 53 12
M  V30 58 1 54 12
M  V30 59 1 13 55 CFG=3
M  V30 60 1 56 14
M  V30 61 1 57 14
M  V30 62 1 17 58 CFG=3
M  V30 63 1 59 18
M  V30 64 1 60 18
M  V30 65 1 61 19
M  V30 66 1 20 62 CFG=1
M  V30 67 1 63 21
M  V30 68 1 23 64 CFG=3
M  V30 69 1 24 65 CFG=1
M  V30 70 1 66 25
M  V30 71 1 67 25
M  V30 72 1 68 26
M  V30 73 1 69 31
M  V30 74 1 70 31
M  V30 75 1 71 32
M  V30 76 1 72 33
M  V30 77 1 73 37
M  V30 78 1 74 38
M  V30 79 1 75 40
M  V30 80 1 76 40
M  V30 81 1 77 41
M  V30 82 1 78 41
M  V30 83 1 79 42
M  V30 84 1 80 42
M  V30 85 1 81 43
M  V30 86 1 82 44
M  V30 87 1 83 45
M  V30 END BOND
M  V30 END CTAB
M  END
>  <i_epik_Tot_Q>  (1) 
0

>  <i_epik_Tot_abs_Q>  (1) 
0

>  <i_i_glide_confnum>  (1) 
365

>  <i_i_glide_lignum>  (1) 
99

>  <i_i_glide_posenum>  (1) 
384

>  <i_i_glide_rotatable_bonds>  (1) 
16

>  <i_lp_mmshare_version>  (1) 
72125

>  <i_m_source_file_index>  (1) 
42

>  <i_f3d_flags>  (1) 
0

>  <num_sample>  (1) 
50

>  <b_lp_Chiralities_Consistent>  (1) 
1

>  <r_epik_Charging_Adjusted_Penalty>  (1) 
0.41067983895260396

>  <r_epik_Ionization_Penalty>  (1) 
0.0048607436090088536

>  <r_epik_Ionization_Penalty_Charging>  (1) 
0

>  <r_epik_Ionization_Penalty_Neutral>  (1) 
0.0048607436090088536

>  <r_epik_State_Penalty>  (1) 
0.41067983895260396

>  <r_glide_ring_energy>  (1) 
0.56107915077032222

>  <r_i_docking_score>  (1) 
-6.9203552611747119

>  <r_i_glide_ecoul>  (1) 
1.17470101513162

>  <r_i_glide_eff_state_penalty>  (1) 
0.41067983895260396

>  <r_i_glide_einternal>  (1) 
12.15565871021187

>  <r_i_glide_emodel>  (1) 
-52.215454713650658

>  <r_i_glide_emodel_strain>  (1) 
0.73993630709954061

>  <r_i_glide_energy>  (1) 
-45.381052328065671

>  <r_i_glide_erotb>  (1) 
0.41134081239429626

>  <r_i_glide_esite>  (1) 
-0.051531078463235264

>  <r_i_glide_evdw>  (1) 
-46.555753343197289

>  <r_i_glide_gscore>  (1) 
-7.3310351001273162

>  <r_i_glide_gscore_strain>  (1) 
0

>  <r_i_glide_hbond>  (1) 
0

>  <r_i_glide_ligand_efficiency>  (1) 
-0.15378567247054914

>  <r_i_glide_ligand_efficiency_ln>  (1) 
-1.4397422901863435

>  <r_i_glide_ligand_efficiency_sa>  (1) 
-0.54699922873699813

>  <r_i_glide_lipo>  (1) 
-3.9732248981665839

>  <r_i_glide_metal>  (1) 
-0

>  <r_i_glide_rewards>  (1) 
-1.5660374210016716

>  <r_lp_Energy>  (1) 
49.308972999999995

>  <r_lp_tautomer_probability>  (1) 
0.5

>  <s_epik_Chemistry_Notes>  (1) 
This compound has an imine and may undergo hydrolysis.

>  <s_epik_cmdline>  (1) 
J2VwaWtfcHl0aG9uJywgJy1waHQnLCAnMS4wJywgJy1waCcsICc3LjQnLCAnLXRuJywgJzgnLCAnLW1hJywgJzUwMCcsICctaW1hZScsICc8aW5maWxlLm1hZT4nLCAnLW9tYWUnLCAnPG91dGZpbGUubWFlPic=

>  <s_epik_input>  (1) 
W2NIXTFbY0hdW2NIXVtjSF1jKGMxMilDKD1PKVtDQEBIXShbT0hdKVtDQEBIXShbT0hdKVtDQEBIXTJbQ0BASF0oQyNbQ0hdKVtDSDJdW0NIMl1bQ0gyXVtDQEBIXTNPYyhjNFtDQEBIXShbQ0BAXTM1L1tDSF09Ti9bSF0pW0NIMl1bQ0BASF0oUzUpW0NIMl1PW0NIM10pW2NIXVtjSF1jKFtjSF00KU9bQ0gyXVtDSDJdW0NIMl1DKEYpKEYpRg==

>  <s_glide_docking_method>  (1) 
confgen

>  <s_i_glide_gridfile>  (1) 
gpcr_5ht2c_6bqh_protein_autoprepared_prepared

>  <s_lp_Force_Field>  (1) 
S-OPLS

>  <s_lp_Variant>  (1) 
DiffSBDD_41_num_sample_50-4

>  <s_m_source_file>  (1) 
generated__ligand_DiffSBDD_2026-05-06_prepared.sdf

>  <GenAI_Model>  (1) 
DiffSBDD

>  <Protein>  (1) 
GPCR_5HT2C

$$$$
DiffSBDD_41_num_sample_50
     RDKit          3D

  0  0  0  0  0  0  0  0  0  0999 V3000
M  V30 BEGIN CTAB
M  V30 COUNTS 83 87 0 0 1
M  V30 BEGIN ATOM
M  V30 1 C 42.135880 30.791966 66.681979 0
M  V30 2 C 41.885637 29.287814 66.558859 0 CFG=1
M  V30 3 C 38.610644 30.935357 58.390382 0
M  V30 4 C 40.823444 36.522276 62.411086 0
M  V30 5 C 44.342444 28.930036 66.178714 0 CFG=1
M  V30 6 O 45.467054 28.199555 66.623849 0
M  V30 7 O 45.711476 30.887608 65.848443 0
M  V30 8 C 39.872275 30.048052 51.546229 0
M  V30 9 C 41.024234 27.439507 65.070400 0
M  V30 10 C 38.787575 29.662422 56.302769 0
M  V30 11 C 36.604441 32.132908 61.249100 0
M  V30 12 C 38.765009 30.255361 62.608924 0
M  V30 13 C 41.425973 28.863417 65.122259 0 CFG=1
M  V30 14 C 39.053613 31.429962 53.667772 0
M  V30 15 F 40.974001 29.485507 51.057700 0
M  V30 16 O 39.691206 30.098593 60.362989 0
M  V30 17 C 38.070667 32.132589 59.190878 0 CFG=2
M  V30 18 C 40.032410 29.494105 63.018303 0
M  V30 19 C 39.594764 28.712420 56.957055 0
M  V30 20 C 43.127821 28.513978 67.023463 0 CFG=1
M  V30 21 O 43.335829 28.738176 68.408652 0
M  V30 22 F 38.957012 29.090692 51.678516 0
M  V30 23 C 38.878439 34.246985 60.317166 0 CFG=1
M  V30 24 C 38.518642 30.432245 61.092843 0 CFG=2
M  V30 25 C 37.933801 30.501643 54.174655 0
M  V30 26 N 35.627776 31.360930 61.051052 0
M  V30 27 F 39.467403 30.942874 50.649974 0
M  V30 28 O 39.685494 35.895922 61.853642 0
M  V30 29 C 43.432179 31.336174 66.461280 0
M  V30 30 C 39.410050 29.968116 59.034490 0
M  V30 31 C 38.852124 33.459300 58.984914 0
M  V30 32 C 41.276413 33.039643 67.111509 0
M  V30 33 C 38.297780 30.787692 57.022639 0
M  V30 34 O 38.479426 29.469477 54.974847 0
M  V30 35 C 38.018242 31.855668 60.731126 0 CFG=2
M  V30 36 S 39.163125 33.003924 61.513918 0
M  V30 37 C 42.553005 33.579170 66.878223 0
M  V30 38 C 40.683452 26.266592 65.053502 0
M  V30 39 C 44.597932 30.453945 66.135321 0
M  V30 40 C 39.969811 35.272398 60.608865 0
M  V30 41 C 40.366789 29.791826 64.493790 0
M  V30 42 C 40.195450 30.726375 52.898834 0
M  V30 43 C 39.906891 28.865501 58.317560 0
M  V30 44 C 41.067224 31.650794 67.013988 0
M  V30 45 C 43.629427 32.732167 66.555309 0
M  V30 46 H 41.069492 29.048243 67.243923 0
M  V30 47 H 40.559825 37.049979 63.328418 0
M  V30 48 H 41.591863 35.789606 62.657647 0
M  V30 49 H 41.244876 37.221230 61.696704 0
M  V30 50 H 44.192006 28.616142 65.146915 0
M  V30 51 H 45.230327 27.289693 66.699256 0
M  V30 52 H 36.493177 33.065599 61.813624 0
M  V30 53 H 37.867721 29.840761 63.033809 0
M  V30 54 H 38.798158 31.187056 63.152235 0
M  V30 55 H 42.275775 28.938673 64.446189 0
M  V30 56 H 38.630909 32.219706 53.053607 0
M  V30 57 H 39.478432 31.944494 54.530571 0
M  V30 58 H 37.063957 32.295883 58.800155 0
M  V30 59 H 40.892311 29.799426 62.420480 0
M  V30 60 H 39.877506 28.434862 62.821649 0
M  V30 61 H 39.969022 27.857880 56.410941 0
M  V30 62 H 42.970551 27.441248 66.923249 0
M  V30 63 H 43.440093 29.667550 68.547022 0
M  V30 64 H 37.899503 34.692089 60.489845 0
M  V30 65 H 37.789707 29.705294 60.742528 0
M  V30 66 H 37.469390 29.970586 53.355036 0
M  V30 67 H 37.109244 31.047784 54.631315 0
M  V30 68 H 34.761659 31.715684 61.432768 0
M  V30 69 H 39.867837 33.224417 58.696339 0
M  V30 70 H 38.429714 34.021257 58.155714 0
M  V30 71 H 40.454234 33.693561 67.363380 0
M  V30 72 H 37.676324 31.523624 56.538429 0
M  V30 73 H 42.707715 34.645123 66.951076 0
M  V30 74 H 40.361799 25.249381 65.037412 0
M  V30 75 H 40.953081 34.805847 60.653498 0
M  V30 76 H 39.997508 36.021308 59.853488 0
M  V30 77 H 39.468887 29.789009 65.115843 0
M  V30 78 H 40.723673 30.820819 64.506339 0
M  V30 79 H 40.955042 31.469861 52.689645 0
M  V30 80 H 40.667440 30.021451 53.576692 0
M  V30 81 H 40.517816 28.128104 58.815512 0
M  V30 82 H 40.082726 31.240736 67.187439 0
M  V30 83 H 44.610768 33.152516 66.384030 0
M  V30 END ATOM
M  V30 BEGIN BOND
M  V30 1 1 2 1
M  V30 2 1 6 5
M  V30 3 1 13 2
M  V30 4 1 13 9
M  V30 5 1 15 8
M  V30 6 1 17 3
M  V30 7 1 18 12
M  V30 8 1 19 10
M  V30 9 1 20 2
M  V30 10 1 20 5
M  V30 11 1 21 20
M  V30 12 1 22 8
M  V30 13 1 24 12
M  V30 14 1 24 16
M  V30 15 1 25 14
M  V30 16 2 26 11
M  V30 17 1 27 8
M  V30 18 1 28 4
M  V30 19 1 29 1
M  V30 20 2 30 3
M  V30 21 1 30 16
M  V30 22 1 31 17
M  V30 23 1 31 23
M  V30 24 1 33 3
M  V30 25 2 33 10
M  V30 26 1 34 10
M  V30 27 1 34 25
M  V30 28 1 35 11 CFG=1
M  V30 29 1 35 17
M  V30 30 1 35 24
M  V30 31 1 36 23
M  V30 32 1 36 35
M  V30 33 2 37 32
M  V30 34 3 38 9
M  V30 35 1 39 5
M  V30 36 2 39 7
M  V30 37 1 39 29
M  V30 38 1 40 23
M  V30 39 1 40 28
M  V30 40 1 41 13
M  V30 41 1 41 18
M  V30 42 1 42 8
M  V30 43 1 42 14
M  V30 44 2 43 19
M  V30 45 1 43 30
M  V30 46 2 44 1
M  V30 47 1 44 32
M  V30 48 2 45 29
M  V30 49 1 45 37
M  V30 50 1 2 46 CFG=1
M  V30 51 1 47 4
M  V30 52 1 48 4
M  V30 53 1 49 4
M  V30 54 1 5 50 CFG=3
M  V30 55 1 51 6
M  V30 56 1 52 11
M  V30 57 1 53 12
M  V30 58 1 54 12
M  V30 59 1 13 55 CFG=3
M  V30 60 1 56 14
M  V30 61 1 57 14
M  V30 62 1 17 58 CFG=3
M  V30 63 1 59 18
M  V30 64 1 60 18
M  V30 65 1 61 19
M  V30 66 1 20 62 CFG=1
M  V30 67 1 63 21
M  V30 68 1 23 64 CFG=1
M  V30 69 1 24 65 CFG=3
M  V30 70 1 66 25
M  V30 71 1 67 25
M  V30 72 1 68 26
M  V30 73 1 69 31
M  V30 74 1 70 31
M  V30 75 1 71 32
M  V30 76 1 72 33
M  V30 77 1 73 37
M  V30 78 1 74 38
M  V30 79 1 75 40
M  V30 80 1 76 40
M  V30 81 1 77 41
M  V30 82 1 78 41
M  V30 83 1 79 42
M  V30 84 1 80 42
M  V30 85 1 81 43
M  V30 86 1 82 44
M  V30 87 1 83 45
M  V30 END BOND
M  V30 END CTAB
M  END
>  <i_epik_Tot_Q>  (1) 
0

>  <i_epik_Tot_abs_Q>  (1) 
0

>  <i_i_glide_confnum>  (1) 
1390

>  <i_i_glide_lignum>  (1) 
96

>  <i_i_glide_posenum>  (1) 
254

>  <i_i_glide_rotatable_bonds>  (1) 
16

>  <i_lp_mmshare_version>  (1) 
72125

>  <i_m_source_file_index>  (1) 
42

>  <i_f3d_flags>  (1) 
0

>  <num_sample>  (1) 
50

>  <b_lp_Chiralities_Consistent>  (1) 
1

>  <r_epik_Charging_Adjusted_Penalty>  (1) 
0.41067983895260396

>  <r_epik_Ionization_Penalty>  (1) 
0.0048607436090088536

>  <r_epik_Ionization_Penalty_Charging>  (1) 
0

>  <r_epik_Ionization_Penalty_Neutral>  (1) 
0.0048607436090088536

>  <r_epik_State_Penalty>  (1) 
0.41067983895260396

>  <r_glide_ring_energy>  (1) 
1.8793194922327243

>  <r_i_docking_score>  (1) 
-6.9136444505561396

>  <r_i_glide_ecoul>  (1) 
0.95350969730286728

>  <r_i_glide_eff_state_penalty>  (1) 
0.41067983895260396

>  <r_i_glide_einternal>  (1) 
8.5573602648421634

>  <r_i_glide_emodel>  (1) 
-50.554098210565222

>  <r_i_glide_emodel_strain>  (1) 
0.99575915928248548

>  <r_i_glide_energy>  (1) 
-37.954541356005393

>  <r_i_glide_erotb>  (1) 
0.41134081239429626

>  <r_i_glide_esite>  (1) 
-0.040855816640135767

>  <r_i_glide_evdw>  (1) 
-38.908051053308263

>  <r_i_glide_gscore>  (1) 
-7.3243242895087439

>  <r_i_glide_gscore_strain>  (1) 
0

>  <r_i_glide_hbond>  (1) 
-0.28754912098981567

>  <r_i_glide_ligand_efficiency>  (1) 
-0.15363654334569199

>  <r_i_glide_ligand_efficiency_ln>  (1) 
-1.4383461425198796

>  <r_i_glide_ligand_efficiency_sa>  (1) 
-0.5464687923512892

>  <r_i_glide_lipo>  (1) 
-3.4504747013970052

>  <r_i_glide_metal>  (1) 
-0

>  <r_i_glide_rewards>  (1) 
-2.1544093648060993

>  <r_lp_Energy>  (1) 
42.968447999999995

>  <r_lp_tautomer_probability>  (1) 
0.5

>  <s_epik_Chemistry_Notes>  (1) 
This compound has an imine and may undergo hydrolysis.

>  <s_epik_cmdline>  (1) 
J2VwaWtfcHl0aG9uJywgJy1waHQnLCAnMS4wJywgJy1waCcsICc3LjQnLCAnLXRuJywgJzgnLCAnLW1hJywgJzUwMCcsICctaW1hZScsICc8aW5maWxlLm1hZT4nLCAnLW9tYWUnLCAnPG91dGZpbGUubWFlPic=

>  <s_epik_input>  (1) 
W2NIXTFbY0hdW2NIXVtjSF1jKGMxMilDKD1PKVtDQEBIXShbT0hdKVtDQEBIXShbT0hdKVtDQEBIXTJbQ0BASF0oQyNbQ0hdKVtDSDJdW0NIMl1bQ0gyXVtDQEBIXTNPYyhjNFtDQEBIXShbQ0BAXTM1L1tDSF09Ti9bSF0pW0NIMl1bQ0BASF0oUzUpW0NIMl1PW0NIM10pW2NIXVtjSF1jKFtjSF00KU9bQ0gyXVtDSDJdW0NIMl1DKEYpKEYpRg==

>  <s_glide_docking_method>  (1) 
confgen

>  <s_i_glide_gridfile>  (1) 
gpcr_5ht2c_6bqh_protein_autoprepared_prepared

>  <s_lp_Force_Field>  (1) 
S-OPLS

>  <s_lp_Variant>  (1) 
DiffSBDD_41_num_sample_50-1

>  <s_m_source_file>  (1) 
generated__ligand_DiffSBDD_2026-05-06_prepared.sdf

>  <GenAI_Model>  (1) 
DiffSBDD

>  <Protein>  (1) 
GPCR_5HT2C

$$$$
DiffSBDD_19_num_sample_50
     RDKit          3D

  0  0  0  0  0  0  0  0  0  0999 V3000
M  V30 BEGIN CTAB
M  V30 COUNTS 46 49 0 0 1
M  V30 BEGIN ATOM
M  V30 1 N 38.038893 34.192851 60.716227 0
M  V30 2 C 38.497119 31.937404 57.030433 0
M  V30 3 C 39.297454 33.834583 61.407260 0
M  V30 4 C 38.681285 30.067662 58.806134 0
M  V30 5 N 39.135773 29.241777 57.818702 0
M  V30 6 C 38.267379 30.854649 55.998055 0
M  V30 7 C 38.039774 31.410970 58.394763 0 CFG=1
M  V30 8 F 41.147926 34.724825 62.532336 0
M  V30 9 O 36.473730 33.635465 59.053506 0
M  V30 10 O 38.771979 29.776737 60.000944 0
M  V30 11 N 39.310221 36.070309 62.445926 0
M  V30 12 N 39.470658 26.277827 54.811411 0
M  V30 13 C 38.480544 28.380998 55.573437 0 CFG=2
M  V30 14 O 38.345922 32.379074 59.401147 0
M  V30 15 C 38.513058 28.360543 54.039463 0
M  V30 16 O 40.159708 37.221429 62.653022 0
M  V30 17 C 38.243920 36.530233 61.565393 0
M  V30 18 C 39.049964 29.583812 56.357292 0 CFG=2
M  V30 19 C 39.802184 27.957790 58.176033 0
M  V30 20 C 40.130063 35.085371 61.749667 0 CFG=2
M  V30 21 C 39.306622 27.166265 55.851925 0
M  V30 22 C 39.909159 26.972049 57.026399 0
M  V30 23 C 37.304752 35.367048 61.206672 0
M  V30 24 C 37.520090 33.421067 59.661642 0
M  V30 25 C 39.029801 26.950639 53.836698 0
M  V30 26 H 37.924106 32.824559 56.757025 0
M  V30 27 H 39.545066 32.232146 57.053140 0
M  V30 28 H 39.031658 33.307305 62.324572 0
M  V30 29 H 39.955166 33.166048 60.852141 0
M  V30 30 H 38.552362 31.210618 55.007453 0
M  V30 31 H 37.198720 30.637367 55.945758 0
M  V30 32 H 36.968246 31.215631 58.376064 0
M  V30 33 H 39.217824 29.080449 53.622812 0
M  V30 34 H 40.471183 37.089965 63.539672 0
M  V30 35 H 37.680206 37.325356 62.055076 0
M  V30 36 H 38.667402 36.952051 60.653620 0
M  V30 37 H 40.080460 29.746752 56.036348 0
M  V30 38 H 40.807992 28.176708 58.536556 0
M  V30 39 H 39.271430 27.458845 58.988832 0
M  V30 40 H 40.561527 35.517452 60.844503 0
M  V30 41 H 40.517286 26.092735 57.186665 0
M  V30 42 H 36.719729 35.076265 62.078655 0
M  V30 43 H 36.585003 35.723432 60.467979 0
M  V30 44 H 38.996399 26.565005 52.814400 0
M  V30 45 H 37.467425 28.171240 55.918014 0
M  V30 46 H 37.529344 28.497450 53.589398 0
M  V30 END ATOM
M  V30 BEGIN BOND
M  V30 1 1 3 1
M  V30 2 1 5 4
M  V30 3 1 6 2
M  V30 4 1 7 2
M  V30 5 1 7 4
M  V30 6 2 10 4
M  V30 7 1 14 7
M  V30 8 1 15 13
M  V30 9 1 16 11
M  V30 10 1 17 11
M  V30 11 1 18 5
M  V30 12 1 18 6
M  V30 13 1 18 13
M  V30 14 1 19 5
M  V30 15 1 20 3
M  V30 16 1 20 8
M  V30 17 1 20 11
M  V30 18 1 21 12
M  V30 19 1 21 13
M  V30 20 1 22 19
M  V30 21 2 22 21
M  V30 22 1 23 1
M  V30 23 1 23 17
M  V30 24 1 24 1
M  V30 25 2 24 9
M  V30 26 1 24 14
M  V30 27 2 25 12
M  V30 28 1 25 15
M  V30 29 1 26 2
M  V30 30 1 27 2
M  V30 31 1 28 3
M  V30 32 1 29 3
M  V30 33 1 30 6
M  V30 34 1 31 6
M  V30 35 1 7 32 CFG=3
M  V30 36 1 33 15
M  V30 37 1 34 16
M  V30 38 1 35 17
M  V30 39 1 36 17
M  V30 40 1 18 37 CFG=3
M  V30 41 1 38 19
M  V30 42 1 39 19
M  V30 43 1 20 40 CFG=3
M  V30 44 1 41 22
M  V30 45 1 42 23
M  V30 46 1 43 23
M  V30 47 1 44 25
M  V30 48 1 13 45 CFG=3
M  V30 49 1 46 15
M  V30 END BOND
M  V30 END CTAB
M  END
>  <i_epik_Tot_Q>  (1) 
0

>  <i_epik_Tot_abs_Q>  (1) 
0

>  <i_i_glide_confnum>  (1) 
16

>  <i_i_glide_lignum>  (1) 
53

>  <i_i_glide_posenum>  (1) 
170

>  <i_i_glide_rotatable_bonds>  (1) 
4

>  <i_lp_mmshare_version>  (1) 
72125

>  <i_m_source_file_index>  (1) 
20

>  <i_f3d_flags>  (1) 
0

>  <num_sample>  (1) 
50

>  <b_lp_Chiralities_Consistent>  (1) 
1

>  <r_epik_Charging_Adjusted_Penalty>  (1) 
0

>  <r_epik_Ionization_Penalty>  (1) 
0.00023690808741792311

>  <r_epik_Ionization_Penalty_Charging>  (1) 
0

>  <r_epik_Ionization_Penalty_Neutral>  (1) 
0.00023690808741792311

>  <r_epik_State_Penalty>  (1) 
-0

>  <r_glide_ring_energy>  (1) 
0

>  <r_i_docking_score>  (1) 
-6.9080151008696165

>  <r_i_glide_ecoul>  (1) 
-2.1769525571864401

>  <r_i_glide_eff_state_penalty>  (1) 
-0

>  <r_i_glide_einternal>  (1) 
3.7818640728757718

>  <r_i_glide_emodel>  (1) 
-60.475200853331557

>  <r_i_glide_emodel_strain>  (1) 
0.084141650777908694

>  <r_i_glide_energy>  (1) 
-44.059679888809839

>  <r_i_glide_erotb>  (1) 
0.46110279215177946

>  <r_i_glide_esite>  (1) 
-0.021568762993692953

>  <r_i_glide_evdw>  (1) 
-41.8827273316234

>  <r_i_glide_gscore>  (1) 
-6.9080151008696165

>  <r_i_glide_gscore_strain>  (1) 
0

>  <r_i_glide_hbond>  (1) 
-0.043536962028779547

>  <r_i_glide_ligand_efficiency>  (1) 
-0.27632060403478464

>  <r_i_glide_ligand_efficiency_ln>  (1) 
-1.6374065954134653

>  <r_i_glide_ligand_efficiency_sa>  (1) 
-0.80796634763140407

>  <r_i_glide_lipo>  (1) 
-1.9495638650259104

>  <r_i_glide_metal>  (1) 
-0

>  <r_i_glide_rewards>  (1) 
-2.9337690528138758

>  <r_lp_Energy>  (1) 
38.735985999999997

>  <r_lp_tautomer_probability>  (1) 
1

>  <s_epik_Chemistry_Notes>  (1) 
This compound has an ester and may undergo hydrolysis at high or low pH. This compound has an imine and may undergo hydrolysis. This compound has a N-S or N-O group and may undergo hydrolysis at high or low pH.

>  <s_epik_cmdline>  (1) 
J2VwaWtfcHl0aG9uJywgJy1waHQnLCAnMS4wJywgJy1waCcsICc3LjQnLCAnLXRuJywgJzgnLCAnLW1hJywgJzUwMCcsICctaW1hZScsICc8aW5maWxlLm1hZT4nLCAnLW9tYWUnLCAnPG91dGZpbGUubWFlPic=

>  <s_epik_input>  (1) 
W0NIMl0xW0NIMl1OKFtPSF0pW0NAQEhdKEYpW0NIMl1OMUMoPU8pT1tDQEhdKEMyPU8pW0NIMl1bQ0gyXVtDQEBIXShOMjMpQz00QyhbQ0gyXVtDSDJdMyk9TltDSDJdW0NIXTQ=

>  <s_glide_docking_method>  (1) 
confgen

>  <s_i_glide_gridfile>  (1) 
gpcr_5ht2c_6bqh_protein_autoprepared_prepared

>  <s_lp_Force_Field>  (1) 
S-OPLS

>  <s_lp_Variant>  (1) 
DiffSBDD_19_num_sample_50-2

>  <s_m_source_file>  (1) 
generated__ligand_DiffSBDD_2026-05-06_prepared.sdf

>  <GenAI_Model>  (1) 
DiffSBDD

>  <Protein>  (1) 
GPCR_5HT2C

$$$$
DiffSBDD_34_num_sample_50
     RDKit          3D

  0  0  0  0  0  0  0  0  0  0999 V3000
M  V30 BEGIN CTAB
M  V30 COUNTS 50 51 0 0 1
M  V30 BEGIN ATOM
M  V30 1 C 39.396943 29.619411 54.403493 0 CFG=2
M  V30 2 C 39.091693 33.603368 61.401216 0
M  V30 3 C 39.336153 29.221255 51.886929 0
M  V30 4 C 39.182353 27.052344 58.240732 0
M  V30 5 C 38.715915 30.329794 59.611085 0
M  V30 6 C 36.996317 35.122963 61.198075 0
M  V30 7 C 39.067602 28.767444 53.262734 0
M  V30 8 C 38.745365 28.528188 55.337434 0
M  V30 9 C 38.633837 27.577918 53.540117 0
M  V30 10 C 38.270333 30.288719 57.031699 0
M  V30 11 C 38.955458 30.995507 54.764875 0
M  V30 12 C 35.946719 34.014270 61.007050 0
M  V30 13 C 35.518557 33.830787 59.545179 0
M  V30 14 C 38.487635 31.302775 55.981531 0
M  V30 15 C 38.407666 34.783210 60.684613 0
M  V30 16 O 34.586603 32.778518 59.453501 0
M  V30 17 O 39.181467 32.504055 60.505774 0
M  V30 18 O 38.054618 31.019563 61.835225 0
M  V30 19 O 39.867397 30.300393 51.621397 0
M  V30 20 C 38.384840 28.947125 56.727853 0
M  V30 21 N 38.519392 27.316467 54.884739 0
M  V30 22 C 37.974199 27.822241 57.685090 0
M  V30 23 C 37.819318 30.750758 58.422171 0 CFG=1
M  V30 24 O 36.467435 30.421430 58.653519 0
M  V30 25 C 38.610692 31.315811 60.777096 0
M  V30 26 H 40.472139 29.621430 54.564345 0
M  V30 27 H 40.108755 33.884044 61.676506 0
M  V30 28 H 38.578378 33.355062 62.330636 0
M  V30 29 H 39.041389 28.518427 51.106912 0
M  V30 30 H 38.859835 26.276866 58.935573 0
M  V30 31 H 39.747493 26.567244 57.444666 0
M  V30 32 H 39.863812 27.713809 58.775576 0
M  V30 33 H 39.758335 30.296554 59.298765 0
M  V30 34 H 38.466272 29.333522 59.971758 0
M  V30 35 H 36.650223 36.030320 60.702306 0
M  V30 36 H 37.056563 35.379644 62.253503 0
M  V30 37 H 38.384443 26.807622 52.823256 0
M  V30 38 H 39.082852 31.767581 54.019489 0
M  V30 39 H 35.067642 34.253417 61.604769 0
M  V30 40 H 36.316466 33.072515 61.409943 0
M  V30 41 H 36.374196 33.587892 58.916633 0
M  V30 42 H 35.072405 34.742166 59.145358 0
M  V30 43 H 38.229888 32.331544 56.191167 0
M  V30 44 H 38.377846 34.604873 59.609800 0
M  V30 45 H 39.033435 35.666825 60.814490 0
M  V30 46 H 34.654412 32.421430 58.569648 0
M  V30 47 H 37.404324 28.194451 58.521388 0
M  V30 48 H 37.299847 27.128488 57.182326 0
M  V30 49 H 37.829782 31.839779 58.373152 0
M  V30 50 H 35.948170 30.908161 58.000385 0
M  V30 END ATOM
M  V30 BEGIN BOND
M  V30 1 1 7 1
M  V30 2 1 7 3
M  V30 3 1 8 1
M  V30 4 2 9 7
M  V30 5 1 11 1
M  V30 6 1 12 6
M  V30 7 1 13 12
M  V30 8 1 14 10
M  V30 9 2 14 11
M  V30 10 1 15 2
M  V30 11 1 15 6
M  V30 12 1 16 13
M  V30 13 1 17 2
M  V30 14 2 19 3
M  V30 15 1 20 8
M  V30 16 2 20 10
M  V30 17 2 21 8
M  V30 18 1 21 9
M  V30 19 1 22 4
M  V30 20 1 22 20
M  V30 21 1 23 5
M  V30 22 1 23 10
M  V30 23 1 24 23
M  V30 24 1 25 5
M  V30 25 1 25 17
M  V30 26 2 25 18
M  V30 27 1 1 26 CFG=1
M  V30 28 1 27 2
M  V30 29 1 28 2
M  V30 30 1 29 3
M  V30 31 1 30 4
M  V30 32 1 31 4
M  V30 33 1 32 4
M  V30 34 1 33 5
M  V30 35 1 34 5
M  V30 36 1 35 6
M  V30 37 1 36 6
M  V30 38 1 37 9
M  V30 39 1 38 11
M  V30 40 1 39 12
M  V30 41 1 40 12
M  V30 42 1 41 13
M  V30 43 1 42 13
M  V30 44 1 43 14
M  V30 45 1 44 15
M  V30 46 1 45 15
M  V30 47 1 46 16
M  V30 48 1 47 22
M  V30 49 1 48 22
M  V30 50 1 23 49 CFG=3
M  V30 51 1 50 24
M  V30 END BOND
M  V30 END CTAB
M  END
>  <i_epik_Tot_Q>  (1) 
0

>  <i_epik_Tot_abs_Q>  (1) 
0

>  <i_i_glide_confnum>  (1) 
756

>  <i_i_glide_lignum>  (1) 
88

>  <i_i_glide_posenum>  (1) 
210

>  <i_i_glide_rotatable_bonds>  (1) 
13

>  <i_lp_mmshare_version>  (1) 
72125

>  <i_m_source_file_index>  (1) 
35

>  <i_f3d_flags>  (1) 
0

>  <num_sample>  (1) 
50

>  <b_lp_Chiralities_Consistent>  (1) 
1

>  <r_epik_Charging_Adjusted_Penalty>  (1) 
0.012701380709717016

>  <r_epik_Ionization_Penalty>  (1) 
0.012701608846652416

>  <r_epik_Ionization_Penalty_Charging>  (1) 
0

>  <r_epik_Ionization_Penalty_Neutral>  (1) 
0.012701608846652416

>  <r_epik_State_Penalty>  (1) 
0.012701380709717016

>  <r_glide_ring_energy>  (1) 
0

>  <r_i_docking_score>  (1) 
-6.8902467110119812

>  <r_i_glide_ecoul>  (1) 
-9.8319069166894124

>  <r_i_glide_eff_state_penalty>  (1) 
0.012701380709717016

>  <r_i_glide_einternal>  (1) 
10.835174551456166

>  <r_i_glide_emodel>  (1) 
-59.327499549452682

>  <r_i_glide_emodel_strain>  (1) 
0.59172669464483363

>  <r_i_glide_energy>  (1) 
-45.37780203189412

>  <r_i_glide_erotb>  (1) 
1.4185672597553849

>  <r_i_glide_esite>  (1) 
0

>  <r_i_glide_evdw>  (1) 
-35.545895115204708

>  <r_i_glide_gscore>  (1) 
-6.9029480917216981

>  <r_i_glide_gscore_strain>  (1) 
0

>  <r_i_glide_hbond>  (1) 
-0.40925334993336032

>  <r_i_glide_ligand_efficiency>  (1) 
-0.27560986844047924

>  <r_i_glide_ligand_efficiency_ln>  (1) 
-1.6331949545415299

>  <r_i_glide_ligand_efficiency_sa>  (1) 
-0.8058881441464758

>  <r_i_glide_lipo>  (1) 
-2.1434320297122871

>  <r_i_glide_metal>  (1) 
-0

>  <r_i_glide_rewards>  (1) 
-2.5167491785677885

>  <r_lp_Energy>  (1) 
18.317083999999998

>  <s_epik_Chemistry_Notes>  (1) 
This compound has an ester and may undergo hydrolysis at high or low pH. This compound has an imine and may undergo hydrolysis.

>  <s_epik_cmdline>  (1) 
J2VwaWtfcHl0aG9uJywgJy1waHQnLCAnMS4wJywgJy1waCcsICc3LjQnLCAnLXRuJywgJzgnLCAnLW1hJywgJzUwMCcsICctaW1hZScsICc8aW5maWxlLm1hZT4nLCAnLW9tYWUnLCAnPG91dGZpbGUubWFlPic=

>  <s_epik_input>  (1) 
Tz1bQ0hdQzE9W0NIXU49QyhbQ0BIXTEyKUMoW0NIMl1bQ0gzXSk9QyhbQ0hdPVtDSF0yKVtDQEBIXShbT0hdKVtDSDJdQyg9TylPW0NIMl1bQ0gyXVtDSDJdW0NIMl1bQ0gyXVtPSF0=

>  <s_glide_docking_method>  (1) 
confgen

>  <s_i_glide_gridfile>  (1) 
gpcr_5ht2c_6bqh_protein_autoprepared_prepared

>  <s_lp_Force_Field>  (1) 
S-OPLS

>  <s_lp_Variant>  (1) 
DiffSBDD_34_num_sample_50-2

>  <s_m_source_file>  (1) 
generated__ligand_DiffSBDD_2026-05-06_prepared.sdf

>  <GenAI_Model>  (1) 
DiffSBDD

>  <Protein>  (1) 
GPCR_5HT2C

$$$$
DiffSBDD_15_num_sample_50
     RDKit          3D

  0  0  0  0  0  0  0  0  0  0999 V3000
M  V30 BEGIN CTAB
M  V30 COUNTS 46 47 0 0 1
M  V30 BEGIN ATOM
M  V30 1 S 39.801782 28.096570 56.699366 0
M  V30 2 C 39.321174 27.741651 51.811020 0
M  V30 3 C 40.140003 29.970230 51.208422 0
M  V30 4 C 39.861264 28.626322 50.849906 0
M  V30 5 C 40.555299 28.497387 59.925177 0
M  V30 6 C 37.750465 31.006638 57.678068 0
M  V30 7 C 39.317848 29.501522 53.439996 0
M  V30 8 C 40.598929 28.547515 61.462036 0
M  V30 9 O 37.867404 32.375611 57.375550 0
M  V30 10 C 38.610633 28.514386 55.383260 0 CFG=1
M  V30 11 C 37.144179 26.823309 53.989585 0
M  V30 12 N 39.058542 28.966230 57.988002 0
M  V30 13 C 39.123861 30.421431 57.972480 0
M  V30 14 O 41.067398 31.202883 61.453513 0
M  V30 15 N 39.009814 29.795894 54.731546 0
M  V30 16 C 39.067405 28.223591 53.104807 0
M  V30 17 C 40.721572 30.087424 63.867388 0
M  V30 18 C 38.548175 27.378736 54.224747 0 CFG=1
M  V30 19 C 39.867406 30.414074 52.523785 0
M  V30 20 F 40.663961 30.821436 50.296705 0
M  V30 21 C 39.124140 28.451929 59.351202 0
M  V30 22 O 38.734721 30.421419 62.080988 0
M  V30 23 S 40.191842 30.226512 62.117053 0
M  V30 24 H 39.117798 26.711991 51.556812 0
M  V30 25 H 40.067599 28.279459 49.853517 0
M  V30 26 H 41.099138 27.621451 59.573304 0
M  V30 27 H 41.111870 29.348879 59.532788 0
M  V30 28 H 37.078862 30.878283 58.527866 0
M  V30 29 H 37.282047 30.518120 56.825911 0
M  V30 30 H 39.908238 27.831612 61.905109 0
M  V30 31 H 41.600059 28.291509 61.809200 0
M  V30 32 H 36.991479 32.621359 57.075414 0
M  V30 33 H 37.621902 28.620995 55.826498 0
M  V30 34 H 37.126130 26.123999 53.154540 0
M  V30 35 H 36.801395 26.291930 54.878000 0
M  V30 36 H 36.435392 27.621444 53.771846 0
M  V30 37 H 39.839424 30.741554 57.214952 0
M  V30 38 H 39.467399 30.819814 58.927112 0
M  V30 39 H 39.562569 30.471128 55.239946 0
M  V30 40 H 40.411363 30.981726 64.406424 0
M  V30 41 H 40.267404 29.209671 64.324054 0
M  V30 42 H 41.805668 29.996263 63.910308 0
M  V30 43 H 39.252210 26.570028 54.424187 0
M  V30 44 H 40.071162 31.433591 52.814085 0
M  V30 45 H 38.438122 29.030442 59.969647 0
M  V30 46 H 38.750846 27.427670 59.367261 0
M  V30 END ATOM
M  V30 BEGIN BOND
M  V30 1 2 4 2
M  V30 2 1 4 3
M  V30 3 1 8 5
M  V30 4 1 9 6
M  V30 5 1 10 1
M  V30 6 1 12 1
M  V30 7 1 13 6
M  V30 8 1 13 12
M  V30 9 1 15 7
M  V30 10 1 15 10
M  V30 11 1 16 2
M  V30 12 2 16 7
M  V30 13 1 18 10
M  V30 14 1 18 11
M  V30 15 1 18 16
M  V30 16 2 19 3
M  V30 17 1 19 7
M  V30 18 1 20 3
M  V30 19 1 21 5
M  V30 20 1 21 12
M  V30 21 1 23 8
M  V30 22 2 23 14
M  V30 23 1 23 17
M  V30 24 2 23 22
M  V30 25 1 24 2
M  V30 26 1 25 4
M  V30 27 1 26 5
M  V30 28 1 27 5
M  V30 29 1 28 6
M  V30 30 1 29 6
M  V30 31 1 30 8
M  V30 32 1 31 8
M  V30 33 1 32 9
M  V30 34 1 10 33 CFG=1
M  V30 35 1 34 11
M  V30 36 1 35 11
M  V30 37 1 36 11
M  V30 38 1 37 13
M  V30 39 1 38 13
M  V30 40 1 39 15
M  V30 41 1 40 17
M  V30 42 1 41 17
M  V30 43 1 42 17
M  V30 44 1 18 43 CFG=1
M  V30 45 1 44 19
M  V30 46 1 45 21
M  V30 47 1 46 21
M  V30 END BOND
M  V30 END CTAB
M  END
>  <i_epik_Tot_Q>  (1) 
0

>  <i_epik_Tot_abs_Q>  (1) 
0

>  <i_i_glide_confnum>  (1) 
86

>  <i_i_glide_lignum>  (1) 
45

>  <i_i_glide_posenum>  (1) 
274

>  <i_i_glide_rotatable_bonds>  (1) 
9

>  <i_lp_mmshare_version>  (1) 
72125

>  <i_m_source_file_index>  (1) 
16

>  <i_f3d_flags>  (1) 
0

>  <num_sample>  (1) 
50

>  <b_lp_Chiralities_Consistent>  (1) 
1

>  <r_epik_Charging_Adjusted_Penalty>  (1) 
0

>  <r_epik_Ionization_Penalty>  (1) 
0.0018364177228642131

>  <r_epik_Ionization_Penalty_Charging>  (1) 
0

>  <r_epik_Ionization_Penalty_Neutral>  (1) 
0.0018364177228642131

>  <r_epik_State_Penalty>  (1) 
-0

>  <r_glide_ring_energy>  (1) 
0

>  <r_i_docking_score>  (1) 
-6.8741885677252563

>  <r_i_glide_ecoul>  (1) 
-7.2520300530040469

>  <r_i_glide_eff_state_penalty>  (1) 
-0

>  <r_i_glide_einternal>  (1) 
15.15431990114805

>  <r_i_glide_emodel>  (1) 
-51.751708928983369

>  <r_i_glide_emodel_strain>  (1) 
0.30268483438901939

>  <r_i_glide_energy>  (1) 
-40.997658925131184

>  <r_i_glide_erotb>  (1) 
1.0229839614613039

>  <r_i_glide_esite>  (1) 
-0.024566674105174491

>  <r_i_glide_evdw>  (1) 
-33.745628872127135

>  <r_i_glide_gscore>  (1) 
-6.8741885677252563

>  <r_i_glide_gscore_strain>  (1) 
0

>  <r_i_glide_hbond>  (1) 
-0.12546742069864295

>  <r_i_glide_ligand_efficiency>  (1) 
-0.29887776381414161

>  <r_i_glide_ligand_efficiency_ln>  (1) 
-1.6622411273717101

>  <r_i_glide_ligand_efficiency_sa>  (1) 
-0.84996860352291237

>  <r_i_glide_lipo>  (1) 
-3.024033347624937

>  <r_i_glide_metal>  (1) 
-0

>  <r_i_glide_rewards>  (1) 
-1.948019135200842

>  <r_lp_Energy>  (1) 
-13.942229999999999

>  <r_lp_tautomer_probability>  (1) 
1

>  <s_epik_Chemistry_Notes>  (1) 
This compound contains an acetal/aminal-like group ( X-CH(R)-Y where X, Y are N, S, or O) that may be acid/base labile, releasing an aldehyde. This compound has a N-S or N-O group and may undergo hydrolysis at high or low pH.

>  <s_epik_cmdline>  (1) 
J2VwaWtfcHl0aG9uJywgJy1waHQnLCAnMS4wJywgJy1waCcsICc3LjQnLCAnLXRuJywgJzgnLCAnLW1hJywgJzUwMCcsICctaW1hZScsICc8aW5maWxlLm1hZT4nLCAnLW9tYWUnLCAnPG91dGZpbGUubWFlPic=

>  <s_epik_input>  (1) 
Tz1TKD1PKShbQ0gzXSlbQ0gyXVtDSDJdW0NIMl1OKFtDSDJdW0NIMl1bT0hdKVNbQ0BASF0oW05IXTEpW0NAQEhdKFtDSDNdKWMoYzEyKVtjSF1bY0hdYyhGKVtjSF0y

>  <s_glide_docking_method>  (1) 
confgen

>  <s_i_glide_gridfile>  (1) 
gpcr_5ht2c_6bqh_protein_autoprepared_prepared

>  <s_lp_Force_Field>  (1) 
S-OPLS

>  <s_lp_Variant>  (1) 
DiffSBDD_15_num_sample_50-1

>  <s_m_source_file>  (1) 
generated__ligand_DiffSBDD_2026-05-06_prepared.sdf

>  <GenAI_Model>  (1) 
DiffSBDD

>  <Protein>  (1) 
GPCR_5HT2C

$$$$
DiffSBDD_28_num_sample_50
     RDKit          3D

  0  0  0  0  0  0  0  0  0  0999 V3000
M  V30 BEGIN CTAB
M  V30 COUNTS 94 99 0 0 1
M  V30 BEGIN ATOM
M  V30 1 C 39.800217 28.444613 50.517607 0
M  V30 2 C 38.896263 29.478446 60.171981 0
M  V30 3 O 44.536488 32.822910 66.762519 0
M  V30 4 C 38.153293 36.178002 62.119375 0 CFG=1
M  V30 5 C 38.823459 30.541144 61.281428 0 CFG=2
M  V30 6 C 37.281593 38.368015 61.058938 0
M  V30 7 C 38.202996 28.115572 55.033100 0
M  V30 8 O 41.055313 34.822496 62.644769 0
M  V30 9 C 39.280304 27.047522 50.809753 0
M  V30 10 C 43.205260 32.471608 66.466380 0 CFG=2
M  V30 11 C 38.203554 27.278552 56.189055 0
M  V30 12 N 38.088153 32.858946 60.183266 0
M  V30 13 C 41.108571 33.426812 67.126519 0
M  V30 14 C 34.475615 33.255210 60.181403 0
M  V30 15 C 41.421884 32.317760 68.129170 0
M  V30 16 C 38.313544 30.483113 59.167133 0 CFG=1
M  V30 17 C 38.412194 29.392322 55.476134 0
M  V30 18 O 36.706902 32.555312 60.445273 0
M  V30 19 O 41.467421 35.221195 61.312887 0
M  V30 20 O 39.939400 31.693406 63.115902 0
M  V30 21 C 38.013143 27.692680 53.611883 0
M  V30 22 C 37.211175 37.395778 62.245397 0
M  V30 23 C 37.814751 35.144206 61.000497 0 CFG=2
M  V30 24 C 41.264765 35.442823 64.928470 0
M  V30 25 O 40.051938 36.842204 63.366966 0
M  V30 26 N 38.532696 29.372609 56.855295 0
M  V30 27 C 38.404216 28.064384 57.285320 0
M  V30 28 C 38.805833 31.580018 60.144316 0 CFG=2
M  V30 29 C 36.299070 34.896894 60.869039 0
M  V30 30 C 42.664294 31.102905 66.126339 0
M  V30 31 C 39.950951 30.530606 62.316690 0
M  V30 32 C 35.936435 33.668169 60.005947 0 CFG=2
M  V30 33 O 36.118279 34.021285 58.653572 0
M  V30 34 O 39.223164 32.476900 56.323719 0
M  V30 35 N 42.383294 33.707961 66.422616 0 CFG=2 CHG=1
M  V30 36 C 38.438045 31.903596 57.078733 0
M  V30 37 C 38.794535 30.544067 57.699941 0 CFG=1
M  V30 38 C 42.618516 31.616441 67.552810 0 CFG=1
M  V30 39 C 38.489775 33.772604 61.236269 0
M  V30 40 C 41.163146 35.956191 63.482677 0 CFG=2
M  V30 41 C 38.623538 28.238680 51.426827 0
M  V30 42 C 42.230019 34.238594 65.047297 0
M  V30 43 O 39.455431 36.716559 61.985996 0
M  V30 44 O 38.927763 28.392730 52.789448 0
M  V30 45 H 39.604022 28.862410 49.532893 0
M  V30 46 H 40.729705 28.759220 50.987404 0
M  V30 47 H 39.918353 29.186432 59.924428 0
M  V30 48 H 38.272723 28.603615 60.351959 0
M  V30 49 H 44.883833 32.211795 67.396903 0
M  V30 50 H 38.134419 35.631332 63.053679 0
M  V30 51 H 37.842914 30.505865 61.757699 0
M  V30 52 H 36.567761 39.182788 61.189624 0
M  V30 53 H 38.274363 38.810492 60.967230 0
M  V30 54 H 37.051325 37.870920 60.116757 0
M  V30 55 H 39.857260 26.409058 51.471058 0
M  V30 56 H 38.667837 26.528441 50.079228 0
M  V30 57 H 38.067396 26.207340 56.212691 0
M  V30 58 H 40.703460 34.320102 67.603630 0
M  V30 59 H 40.373230 33.065486 66.404121 0
M  V30 60 H 34.254904 32.331060 59.644857 0
M  V30 61 H 34.267204 33.097285 61.238758 0
M  V30 62 H 33.791533 34.019153 59.817496 0
M  V30 63 H 41.687137 32.734341 69.101448 0
M  V30 64 H 40.596790 31.622494 68.253481 0
M  V30 65 H 37.224879 30.410109 59.212033 0
M  V30 66 H 38.490444 30.321300 54.927394 0
M  V30 67 H 40.703012 35.705879 61.029177 0
M  V30 68 H 40.098730 32.439077 62.557276 0
M  V30 69 H 38.142133 26.614723 53.502533 0
M  V30 70 H 36.986374 27.933597 53.329733 0
M  V30 71 H 36.185577 37.074646 62.401999 0
M  V30 72 H 37.453714 37.943321 63.153490 0
M  V30 73 H 38.164202 35.536411 60.045411 0
M  V30 74 H 41.581432 36.251407 65.589767 0
M  V30 75 H 40.267596 35.162316 65.260313 0
M  V30 76 H 38.470776 27.809610 58.328885 0
M  V30 77 H 39.840745 31.836617 59.926707 0
M  V30 78 H 35.866474 34.778854 61.864646 0
M  V30 79 H 35.867669 35.779014 60.405274 0
M  V30 80 H 43.389663 30.326837 65.890784 0
M  V30 81 H 41.730514 31.045273 65.569752 0
M  V30 82 H 39.860296 29.665140 62.972829 0
M  V30 83 H 40.925447 30.453213 61.834162 0
M  V30 84 H 35.867768 33.284333 58.103600 0
M  V30 85 H 37.467536 32.303971 57.351212 0
M  V30 86 H 39.868059 30.559291 57.737906 0
M  V30 87 H 43.273743 31.119297 68.267522 0
M  V30 88 H 39.563004 33.844851 61.173641 0
M  V30 89 H 38.226428 33.363097 62.211422 0
M  V30 90 H 42.080177 36.494196 63.238798 0
M  V30 91 H 37.623142 28.514587 51.128851 0
M  V30 92 H 41.886027 33.413685 64.420809 0
M  V30 93 H 43.212406 34.521877 64.670453 0
M  V30 94 H 42.881297 34.394917 66.969816 0
M  V30 END ATOM
M  V30 BEGIN BOND
M  V30 1 1 5 2
M  V30 2 1 9 1
M  V30 3 1 10 3 CFG=1
M  V30 4 1 11 7
M  V30 5 1 15 13
M  V30 6 1 16 2
M  V30 7 2 17 7
M  V30 8 1 18 12
M  V30 9 1 19 8
M  V30 10 1 21 7
M  V30 11 1 22 4
M  V30 12 1 22 6
M  V30 13 1 23 4
M  V30 14 1 26 17
M  V30 15 2 27 11
M  V30 16 1 27 26
M  V30 17 1 28 5
M  V30 18 1 28 12
M  V30 19 1 28 16
M  V30 20 1 29 23
M  V30 21 1 30 10
M  V30 22 1 31 5
M  V30 23 1 31 20
M  V30 24 1 32 14
M  V30 25 1 32 18
M  V30 26 1 32 29
M  V30 27 1 32 33 CFG=3
M  V30 28 1 35 10
M  V30 29 1 35 13
M  V30 30 2 36 34
M  V30 31 1 37 16
M  V30 32 1 37 26
M  V30 33 1 37 36
M  V30 34 1 38 10
M  V30 35 1 38 15
M  V30 36 1 38 30
M  V30 37 1 39 12
M  V30 38 1 39 23
M  V30 39 1 40 8
M  V30 40 1 40 24
M  V30 41 1 40 25
M  V30 42 1 41 1
M  V30 43 1 41 9
M  V30 44 1 42 24
M  V30 45 1 42 35
M  V30 46 1 43 4
M  V30 47 1 43 25
M  V30 48 1 44 21
M  V30 49 1 44 41
M  V30 50 1 45 1
M  V30 51 1 46 1
M  V30 52 1 47 2
M  V30 53 1 48 2
M  V30 54 1 49 3
M  V30 55 1 4 50 CFG=1
M  V30 56 1 5 51 CFG=1
M  V30 57 1 52 6
M  V30 58 1 53 6
M  V30 59 1 54 6
M  V30 60 1 55 9
M  V30 61 1 56 9
M  V30 62 1 57 11
M  V30 63 1 58 13
M  V30 64 1 59 13
M  V30 65 1 60 14
M  V30 66 1 61 14
M  V30 67 1 62 14
M  V30 68 1 63 15
M  V30 69 1 64 15
M  V30 70 1 16 65 CFG=3
M  V30 71 1 66 17
M  V30 72 1 67 19
M  V30 73 1 68 20
M  V30 74 1 69 21
M  V30 75 1 70 21
M  V30 76 1 71 22
M  V30 77 1 72 22
M  V30 78 1 23 73 CFG=3
M  V30 79 1 74 24
M  V30 80 1 75 24
M  V30 81 1 76 27
M  V30 82 1 28 77 CFG=3
M  V30 83 1 78 29
M  V30 84 1 79 29
M  V30 85 1 80 30
M  V30 86 1 81 30
M  V30 87 1 82 31
M  V30 88 1 83 31
M  V30 89 1 84 33
M  V30 90 1 85 36
M  V30 91 1 37 86 CFG=1
M  V30 92 1 38 87 CFG=1
M  V30 93 1 88 39
M  V30 94 1 89 39
M  V30 95 1 40 90 CFG=3
M  V30 96 1 91 41
M  V30 97 1 92 42
M  V30 98 1 93 42
M  V30 99 1 35 94 CFG=1
M  V30 END BOND
M  V30 END CTAB
M  END
>  <i_epik_Tot_Q>  (1) 
1

>  <i_epik_Tot_abs_Q>  (1) 
1

>  <i_i_glide_confnum>  (1) 
7597

>  <i_i_glide_lignum>  (1) 
72

>  <i_i_glide_posenum>  (1) 
45

>  <i_i_glide_rotatable_bonds>  (1) 
21

>  <i_lp_mmshare_version>  (1) 
72125

>  <i_m_source_file_index>  (1) 
29

>  <i_f3d_flags>  (1) 
2

>  <num_sample>  (1) 
50

>  <b_lp_Chiralities_Consistent>  (1) 
0

>  <r_epik_Charging_Adjusted_Penalty>  (1) 
1.2455417737221615

>  <r_epik_Ionization_Penalty>  (1) 
0.6411459992377706

>  <r_epik_Ionization_Penalty_Charging>  (1) 
0.62277088686108073

>  <r_epik_Ionization_Penalty_Neutral>  (1) 
0.018375112376689838

>  <r_epik_State_Penalty>  (1) 
0.62277088686108073

>  <r_glide_ring_energy>  (1) 
0

>  <r_i_docking_score>  (1) 
-6.8741522214732473

>  <r_i_glide_ecoul>  (1) 
-4.1833276409698108

>  <r_i_glide_eff_state_penalty>  (1) 
0.62277088686108073

>  <r_i_glide_einternal>  (1) 
21.953111673769321

>  <r_i_glide_emodel>  (1) 
-61.21641798079439

>  <r_i_glide_emodel_strain>  (1) 
3.5444329293339933

>  <r_i_glide_energy>  (1) 
-55.335941741569727

>  <r_i_glide_erotb>  (1) 
0.67661073285980611

>  <r_i_glide_esite>  (1) 
-0.13220504914278361

>  <r_i_glide_evdw>  (1) 
-51.152614100599919

>  <r_i_glide_gscore>  (1) 
-7.496923108334328

>  <r_i_glide_gscore_strain>  (1) 
0

>  <r_i_glide_hbond>  (1) 
-0.16

>  <r_i_glide_ligand_efficiency>  (1) 
-0.15623073230621018

>  <r_i_glide_ligand_efficiency_ln>  (1) 
-1.4368477730769427

>  <r_i_glide_ligand_efficiency_sa>  (1) 
-0.55154890572400095

>  <r_i_glide_lipo>  (1) 
-3.9712816697486524

>  <r_i_glide_metal>  (1) 
-0

>  <r_i_glide_rewards>  (1) 
-0.72491727112722848

>  <r_lp_Energy>  (1) 
40.866444999999999

>  <s_epik_Chemistry_Notes>  (1) 
This compound contains an acetal/aminal-like group ( X-CH(R)-Y where X, Y are N, S, or O) that may be acid/base labile, releasing an aldehyde. This compound has a N-S or N-O group and may undergo hydrolysis at high or low pH.

>  <s_epik_cmdline>  (1) 
J2VwaWtfcHl0aG9uJywgJy1waHQnLCAnMS4wJywgJy1waCcsICc3LjQnLCAnLXRuJywgJzgnLCAnLW1hJywgJzUwMCcsICctaW1hZScsICc8aW5maWxlLm1hZT4nLCAnLW9tYWUnLCAnPG91dGZpbGUubWFlPic=

>  <s_epik_input>  (1) 
W0NIMl0xW0NIMl1bQ0hdMU9bQ0gyXWMyW2NIXVtjSF1uKFtjSF0yKVtDQEBIXShbQ0hdPU8pW0NAQEhdKFtDSDJdW0NASF0zW0NIMl1bT0hdKVtDQEhdM04oT1tDQF00KFtDSDNdKVtPSF0pW0NIMl1bQ0BASF0oW0NIMl00KVtDQEhdKFtDSDJdW0NIM10pT09bQ0BIXShPW09IXSlbQ0gyXVtDSDJdTjVbQ0gyXVtDSDJdW0NASF0oW0NIMl02KVtDQEBdNTZbT0hd

>  <s_glide_docking_method>  (1) 
confgen

>  <s_i_glide_gridfile>  (1) 
gpcr_5ht2c_6bqh_protein_autoprepared_prepared

>  <s_lp_Force_Field>  (1) 
S-OPLS

>  <s_lp_Variant>  (1) 
DiffSBDD_28_num_sample_50-2

>  <s_m_source_file>  (1) 
generated__ligand_DiffSBDD_2026-05-06_prepared.sdf

>  <GenAI_Model>  (1) 
DiffSBDD

>  <Protein>  (1) 
GPCR_5HT2C

$$$$
DiffSBDD_19_num_sample_50
     RDKit          3D

  0  0  0  0  0  0  0  0  0  0999 V3000
M  V30 BEGIN CTAB
M  V30 COUNTS 46 49 0 0 1
M  V30 BEGIN ATOM
M  V30 1 N 38.102125 34.825724 60.280522 0
M  V30 2 C 38.296416 31.869161 57.163773 0
M  V30 3 C 37.445287 36.109683 60.532013 0
M  V30 4 C 38.444285 30.339792 59.283044 0
M  V30 5 N 38.991256 29.377498 58.477804 0
M  V30 6 C 38.188152 30.582303 56.367404 0
M  V30 7 C 37.878015 31.616571 58.617482 0 CFG=1
M  V30 8 F 37.087891 37.733370 62.170623 0
M  V30 9 O 36.306201 33.882798 59.090245 0
M  V30 10 O 38.380366 30.217411 60.507712 0
M  V30 11 N 39.021578 36.516001 62.368004 0
M  V30 12 N 38.468122 25.906430 56.222654 0
M  V30 13 C 39.254075 28.222005 56.158561 0 CFG=1
M  V30 14 O 38.258790 32.744198 59.408895 0
M  V30 15 C 38.430209 27.930444 54.892259 0
M  V30 16 O 39.080250 36.821285 63.782825 0
M  V30 17 C 39.588631 35.175605 62.235769 0
M  V30 18 C 39.125902 29.544332 56.988430 0 CFG=2
M  V30 19 C 39.526440 28.122489 59.070193 0
M  V30 20 C 37.604259 36.516354 62.005293 0 CFG=2
M  V30 21 C 38.944869 26.984996 56.937150 0
M  V30 22 C 39.072316 26.934015 58.259719 0
M  V30 23 C 39.482300 34.665620 60.784686 0
M  V30 24 C 37.445604 33.819223 59.549539 0
M  V30 25 C 38.194296 26.446745 55.112093 0
M  V30 26 H 37.654592 32.632437 56.720881 0
M  V30 27 H 39.315234 32.256333 57.116932 0
M  V30 28 H 37.895211 36.860530 59.881999 0
M  V30 29 H 36.384497 36.086255 60.278137 0
M  V30 30 H 38.455997 30.771450 55.327395 0
M  V30 31 H 37.156149 30.227272 56.373447 0
M  V30 32 H 36.796696 31.471995 58.653437 0
M  V30 33 H 38.980610 28.120472 53.970485 0
M  V30 34 H 39.757725 37.482255 63.819650 0
M  V30 35 H 40.633897 35.187981 62.547548 0
M  V30 36 H 39.067406 34.486880 62.901811 0
M  V30 37 H 40.113790 29.996432 56.902185 0
M  V30 38 H 40.615959 28.154964 59.091975 0
M  V30 39 H 39.191552 27.962723 60.095984 0
M  V30 40 H 37.036807 35.848127 62.653337 0
M  V30 41 H 38.828995 26.029959 58.798244 0
M  V30 42 H 40.147151 35.249628 60.148487 0
M  V30 43 H 39.873944 33.649475 60.776558 0
M  V30 44 H 37.781477 25.890982 54.265752 0
M  V30 45 H 40.307071 28.118680 55.888284 0
M  V30 46 H 37.470931 28.445823 54.862693 0
M  V30 END ATOM
M  V30 BEGIN BOND
M  V30 1 1 3 1
M  V30 2 1 5 4
M  V30 3 1 6 2
M  V30 4 1 7 2
M  V30 5 1 7 4
M  V30 6 2 10 4
M  V30 7 1 14 7
M  V30 8 1 15 13
M  V30 9 1 16 11
M  V30 10 1 17 11
M  V30 11 1 18 5
M  V30 12 1 18 6
M  V30 13 1 18 13
M  V30 14 1 19 5
M  V30 15 1 20 3
M  V30 16 1 20 8
M  V30 17 1 20 11
M  V30 18 1 21 12
M  V30 19 1 21 13
M  V30 20 1 22 19
M  V30 21 2 22 21
M  V30 22 1 23 1
M  V30 23 1 23 17
M  V30 24 1 24 1
M  V30 25 2 24 9
M  V30 26 1 24 14
M  V30 27 2 25 12
M  V30 28 1 25 15
M  V30 29 1 26 2
M  V30 30 1 27 2
M  V30 31 1 28 3
M  V30 32 1 29 3
M  V30 33 1 30 6
M  V30 34 1 31 6
M  V30 35 1 7 32 CFG=3
M  V30 36 1 33 15
M  V30 37 1 34 16
M  V30 38 1 35 17
M  V30 39 1 36 17
M  V30 40 1 18 37 CFG=1
M  V30 41 1 38 19
M  V30 42 1 39 19
M  V30 43 1 20 40 CFG=1
M  V30 44 1 41 22
M  V30 45 1 42 23
M  V30 46 1 43 23
M  V30 47 1 44 25
M  V30 48 1 13 45 CFG=3
M  V30 49 1 46 15
M  V30 END BOND
M  V30 END CTAB
M  END
>  <i_epik_Tot_Q>  (1) 
0

>  <i_epik_Tot_abs_Q>  (1) 
0

>  <i_i_glide_confnum>  (1) 
9

>  <i_i_glide_lignum>  (1) 
52

>  <i_i_glide_posenum>  (1) 
225

>  <i_i_glide_rotatable_bonds>  (1) 
4

>  <i_lp_mmshare_version>  (1) 
72125

>  <i_m_source_file_index>  (1) 
20

>  <i_f3d_flags>  (1) 
0

>  <num_sample>  (1) 
50

>  <b_lp_Chiralities_Consistent>  (1) 
1

>  <r_epik_Charging_Adjusted_Penalty>  (1) 
0

>  <r_epik_Ionization_Penalty>  (1) 
0.00023690808741792311

>  <r_epik_Ionization_Penalty_Charging>  (1) 
0

>  <r_epik_Ionization_Penalty_Neutral>  (1) 
0.00023690808741792311

>  <r_epik_State_Penalty>  (1) 
-0

>  <r_glide_ring_energy>  (1) 
0

>  <r_i_docking_score>  (1) 
-6.8730971018315365

>  <r_i_glide_ecoul>  (1) 
-1.7271640816928111

>  <r_i_glide_eff_state_penalty>  (1) 
-0

>  <r_i_glide_einternal>  (1) 
3.1665870379334544

>  <r_i_glide_emodel>  (1) 
-60.106760172860561

>  <r_i_glide_emodel_strain>  (1) 
0.043292470987353227

>  <r_i_glide_energy>  (1) 
-43.564471339366726

>  <r_i_glide_erotb>  (1) 
0.46110279215177946

>  <r_i_glide_esite>  (1) 
-0.015201305629177554

>  <r_i_glide_evdw>  (1) 
-41.837307257673913

>  <r_i_glide_gscore>  (1) 
-6.8730971018315365

>  <r_i_glide_gscore_strain>  (1) 
0

>  <r_i_glide_hbond>  (1) 
0

>  <r_i_glide_ligand_efficiency>  (1) 
-0.27492388407326146

>  <r_i_glide_ligand_efficiency_ln>  (1) 
-1.6291299832334492

>  <r_i_glide_ligand_efficiency_sa>  (1) 
-0.8038823136885942

>  <r_i_glide_lipo>  (1) 
-1.9672766563775719

>  <r_i_glide_metal>  (1) 
-0

>  <r_i_glide_rewards>  (1) 
-3.0007819568389484

>  <r_lp_Energy>  (1) 
47.194033999999995

>  <r_lp_tautomer_probability>  (1) 
1

>  <s_epik_Chemistry_Notes>  (1) 
This compound has an ester and may undergo hydrolysis at high or low pH. This compound has an imine and may undergo hydrolysis. This compound has a N-S or N-O group and may undergo hydrolysis at high or low pH.

>  <s_epik_cmdline>  (1) 
J2VwaWtfcHl0aG9uJywgJy1waHQnLCAnMS4wJywgJy1waCcsICc3LjQnLCAnLXRuJywgJzgnLCAnLW1hJywgJzUwMCcsICctaW1hZScsICc8aW5maWxlLm1hZT4nLCAnLW9tYWUnLCAnPG91dGZpbGUubWFlPic=

>  <s_epik_input>  (1) 
W0NIMl0xW0NIMl1OKFtPSF0pW0NAQEhdKEYpW0NIMl1OMUMoPU8pT1tDQEhdKEMyPU8pW0NIMl1bQ0gyXVtDQEBIXShOMjMpQz00QyhbQ0gyXVtDSDJdMyk9TltDSDJdW0NIXTQ=

>  <s_glide_docking_method>  (1) 
confgen

>  <s_i_glide_gridfile>  (1) 
gpcr_5ht2c_6bqh_protein_autoprepared_prepared

>  <s_lp_Force_Field>  (1) 
S-OPLS

>  <s_lp_Variant>  (1) 
DiffSBDD_19_num_sample_50-1

>  <s_m_source_file>  (1) 
generated__ligand_DiffSBDD_2026-05-06_prepared.sdf

>  <GenAI_Model>  (1) 
DiffSBDD

>  <Protein>  (1) 
GPCR_5HT2C

$$$$
DiffSBDD_18_num_sample_50
     RDKit          3D

  0  0  0  0  0  0  0  0  0  0999 V3000
M  V30 BEGIN CTAB
M  V30 COUNTS 73 75 0 0 1
M  V30 BEGIN ATOM
M  V30 1 C 38.093517 26.467434 54.353641 0
M  V30 2 C 37.914898 26.058851 55.822796 0 CFG=1
M  V30 3 C 40.162126 29.692737 51.020528 0
M  V30 4 F 39.676609 37.362506 62.780800 0
M  V30 5 C 39.223594 32.864521 60.788443 0
M  V30 6 C 38.748599 30.970525 57.378269 0 CFG=2
M  V30 7 C 39.604133 28.349416 50.549042 0
M  V30 8 C 39.870036 33.826891 61.759714 0
M  V30 9 F 41.316603 32.084254 62.584924 0
M  V30 10 C 38.523068 27.933317 54.201760 0
M  V30 11 C 41.501907 34.266940 63.532058 0
M  V30 12 C 38.022262 31.052400 56.019296 0
M  V30 13 C 38.158084 33.492840 59.904461 0 CFG=2
M  V30 14 N 36.816747 33.462786 60.478316 0
M  V30 15 C 39.397056 29.578171 57.580604 0
M  V30 16 C 38.391475 28.444811 57.891421 0
M  V30 17 O 37.867634 32.370129 55.541165 0
M  V30 18 C 41.089135 35.610220 63.581905 0
M  V30 19 O 39.553968 31.677880 60.743079 0
M  V30 20 C 39.457517 35.185900 61.821227 0
M  V30 21 S 39.467393 30.020520 52.661685 0
M  V30 22 C 40.281647 26.889894 58.653909 0
M  V30 23 C 39.333526 27.510982 51.793712 0
M  V30 24 C 40.901820 33.373996 62.625435 0
M  V30 25 C 37.605247 24.554599 55.924256 0
M  V30 26 N 39.144138 26.414543 56.566965 0 CHG=1
M  V30 27 F 37.350721 28.556654 52.325569 0
M  V30 28 C 37.583908 32.694660 58.718440 0 CFG=2
M  V30 29 C 36.209360 33.160804 59.193465 0
M  V30 30 C 37.466697 24.026999 57.359068 0
M  V30 31 C 38.958588 27.003162 57.910251 0 CFG=2
M  V30 32 C 38.598233 28.430595 52.760968 0 CFG=1
M  V30 33 C 40.070369 36.068768 62.728651 0
M  V30 34 N 37.867372 31.269981 58.509519 0
M  V30 35 H 38.845290 25.832234 53.889449 0
M  V30 36 H 37.166170 26.295937 53.805326 0
M  V30 37 H 37.068059 26.607637 56.227314 0
M  V30 38 H 39.917707 30.499057 50.328947 0
M  V30 39 H 41.247145 29.643075 51.103871 0
M  V30 40 H 39.546483 31.706472 57.349680 0
M  V30 41 H 38.667341 28.502324 50.018519 0
M  V30 42 H 40.267569 27.849776 49.854946 0
M  V30 43 H 37.814092 28.554589 54.744854 0
M  V30 44 H 39.498834 28.090359 54.657635 0
M  V30 45 H 42.285288 33.919405 64.189993 0
M  V30 46 H 37.067193 30.531257 56.030411 0
M  V30 47 H 38.641143 30.563251 55.274398 0
M  V30 48 H 38.419009 34.478485 59.523678 0
M  V30 49 H 36.532449 34.387441 60.785231 0
M  V30 50 H 39.987991 29.321330 56.701795 0
M  V30 51 H 40.112868 29.643834 58.400917 0
M  V30 52 H 37.976375 28.637861 58.881655 0
M  V30 53 H 37.538881 28.512201 57.218760 0
M  V30 54 H 36.971597 32.641164 55.744248 0
M  V30 55 H 41.555373 36.291273 64.277238 0
M  V30 56 H 38.675092 35.554871 61.180758 0
M  V30 57 H 40.186346 27.225174 59.686461 0
M  V30 58 H 40.597205 25.848109 58.653231 0
M  V30 59 H 41.080253 27.464898 58.184040 0
M  V30 60 H 40.267489 27.196771 52.254768 0
M  V30 61 H 38.756730 26.621273 51.550061 0
M  V30 62 H 36.677275 24.349322 55.386864 0
M  V30 63 H 38.379581 23.998569 55.402512 0
M  V30 64 H 39.662326 27.084951 56.019492 0
M  V30 65 H 37.812692 33.247238 57.809616 0
M  V30 66 H 35.858361 34.053791 58.672114 0
M  V30 67 H 35.447626 32.381408 59.230375 0
M  V30 68 H 37.067310 23.014280 57.381935 0
M  V30 69 H 38.436745 23.998987 57.853311 0
M  V30 70 H 36.790816 24.651089 57.943771 0
M  V30 71 H 38.242798 26.383037 58.448527 0
M  V30 72 H 38.299334 30.922421 59.362425 0
M  V30 73 H 39.709224 25.582127 56.651340 0
M  V30 END ATOM
M  V30 BEGIN BOND
M  V30 1 1 2 1
M  V30 2 1 7 3
M  V30 3 1 8 5
M  V30 4 1 10 1
M  V30 5 1 12 6
M  V30 6 1 13 5
M  V30 7 1 14 13
M  V30 8 1 15 6
M  V30 9 1 16 15
M  V30 10 1 17 12
M  V30 11 2 18 11
M  V30 12 2 19 5
M  V30 13 1 20 8
M  V30 14 1 21 3
M  V30 15 1 23 7
M  V30 16 2 24 8
M  V30 17 1 24 9
M  V30 18 1 24 11
M  V30 19 1 25 2
M  V30 20 1 26 2
M  V30 21 1 28 13
M  V30 22 1 29 14
M  V30 23 1 29 28
M  V30 24 1 30 25
M  V30 25 1 31 16
M  V30 26 1 31 22
M  V30 27 1 31 26
M  V30 28 1 32 10
M  V30 29 1 32 21
M  V30 30 1 32 23
M  V30 31 1 32 27 CFG=3
M  V30 32 1 33 4
M  V30 33 1 33 18
M  V30 34 2 33 20
M  V30 35 1 34 6
M  V30 36 1 34 28
M  V30 37 1 35 1
M  V30 38 1 36 1
M  V30 39 1 2 37 CFG=1
M  V30 40 1 38 3
M  V30 41 1 39 3
M  V30 42 1 6 40 CFG=3
M  V30 43 1 41 7
M  V30 44 1 42 7
M  V30 45 1 43 10
M  V30 46 1 44 10
M  V30 47 1 45 11
M  V30 48 1 46 12
M  V30 49 1 47 12
M  V30 50 1 13 48 CFG=3
M  V30 51 1 49 14
M  V30 52 1 50 15
M  V30 53 1 51 15
M  V30 54 1 52 16
M  V30 55 1 53 16
M  V30 56 1 54 17
M  V30 57 1 55 18
M  V30 58 1 56 20
M  V30 59 1 57 22
M  V30 60 1 58 22
M  V30 61 1 59 22
M  V30 62 1 60 23
M  V30 63 1 61 23
M  V30 64 1 62 25
M  V30 65 1 63 25
M  V30 66 1 64 26
M  V30 67 1 28 65 CFG=3
M  V30 68 1 66 29
M  V30 69 1 67 29
M  V30 70 1 68 30
M  V30 71 1 69 30
M  V30 72 1 70 30
M  V30 73 1 31 71 CFG=1
M  V30 74 1 72 34
M  V30 75 1 73 26
M  V30 END BOND
M  V30 END CTAB
M  END
>  <i_epik_Tot_Q>  (1) 
1

>  <i_epik_Tot_abs_Q>  (1) 
1

>  <i_i_glide_confnum>  (1) 
5914

>  <i_i_glide_lignum>  (1) 
51

>  <i_i_glide_posenum>  (1) 
211

>  <i_i_glide_rotatable_bonds>  (1) 
15

>  <i_lp_mmshare_version>  (1) 
72125

>  <i_m_source_file_index>  (1) 
19

>  <i_f3d_flags>  (1) 
0

>  <num_sample>  (1) 
50

>  <b_lp_Chiralities_Consistent>  (1) 
1

>  <r_epik_Charging_Adjusted_Penalty>  (1) 
1.2230517339192002

>  <r_epik_Ionization_Penalty>  (1) 
1.2279427693353704

>  <r_epik_Ionization_Penalty_Charging>  (1) 
0.0005303694580283578

>  <r_epik_Ionization_Penalty_Neutral>  (1) 
1.2274123998773421

>  <r_epik_State_Penalty>  (1) 
1.2225213644611719

>  <r_glide_ring_energy>  (1) 
0

>  <r_i_docking_score>  (1) 
-6.8656989747024317

>  <r_i_glide_ecoul>  (1) 
-4.191139476999453

>  <r_i_glide_eff_state_penalty>  (1) 
1.2225213644611719

>  <r_i_glide_einternal>  (1) 
19.071174037370358

>  <r_i_glide_emodel>  (1) 
-65.055125442964282

>  <r_i_glide_emodel_strain>  (1) 
2.4492500193151869

>  <r_i_glide_energy>  (1) 
-49.710036576576492

>  <r_i_glide_erotb>  (1) 
0.97048419377231765

>  <r_i_glide_esite>  (1) 
0

>  <r_i_glide_evdw>  (1) 
-45.518897099577039

>  <r_i_glide_gscore>  (1) 
-8.0882203391636036

>  <r_i_glide_gscore_strain>  (1) 
0

>  <r_i_glide_hbond>  (1) 
-0.24519148265134685

>  <r_i_glide_ligand_efficiency>  (1) 
-0.20193232278536563

>  <r_i_glide_ligand_efficiency_ln>  (1) 
-1.5168254798450125

>  <r_i_glide_ligand_efficiency_sa>  (1) 
-0.65418233595484465

>  <r_i_glide_lipo>  (1) 
-4.7358457891605736

>  <r_i_glide_metal>  (1) 
-0

>  <r_i_glide_rewards>  (1) 
-1.1730514845952302

>  <r_lp_Energy>  (1) 
36.781953999999999

>  <r_lp_tautomer_probability>  (1) 
0.99990000499974985

>  <s_epik_cmdline>  (1) 
J2VwaWtfcHl0aG9uJywgJy1waHQnLCAnMS4wJywgJy1waCcsICc3LjQnLCAnLXRuJywgJzgnLCAnLW1hJywgJzUwMCcsICctaW1hZScsICc8aW5maWxlLm1hZT4nLCAnLW9tYWUnLCAnPG91dGZpbGUubWFlPic=

>  <s_epik_input>  (1) 
W0NIMl0xW0NIMl1bQ0gyXVNbQ0BdMShGKVtDSDJdW0NIMl1bQ0BASF0oW0NIMl1bQ0gzXSlbTkhdW0NAQEhdKFtDSDNdKVtDSDJdW0NIMl1bQ0BASF0oW0NIMl1bT0hdKVtOSF1bQ0BIXTJbQ0gyXVtOSF1bQ0BIXTJDKD1PKWMzW2NIXWMoRilbY0hdW2NIXWMzRg==

>  <s_glide_docking_method>  (1) 
confgen

>  <s_i_glide_gridfile>  (1) 
gpcr_5ht2c_6bqh_protein_autoprepared_prepared

>  <s_lp_Force_Field>  (1) 
S-OPLS

>  <s_lp_Variant>  (1) 
DiffSBDD_18_num_sample_50-2

>  <s_m_source_file>  (1) 
generated__ligand_DiffSBDD_2026-05-06_prepared.sdf

>  <GenAI_Model>  (1) 
DiffSBDD

>  <Protein>  (1) 
GPCR_5HT2C

$$$$
DiffSBDD_13_num_sample_50
     RDKit          3D

  0  0  0  0  0  0  0  0  0  0999 V3000
M  V30 BEGIN CTAB
M  V30 COUNTS 68 71 0 0 1
M  V30 BEGIN ATOM
M  V30 1 C 39.947736 28.501415 59.327066 0
M  V30 2 C 38.402090 25.084788 56.424470 0
M  V30 3 N 38.887793 34.612867 60.753665 0
M  V30 4 C 38.625434 27.148444 54.539541 0
M  V30 5 C 37.028486 35.697644 61.129445 0
M  V30 6 N 39.177916 29.609150 54.089950 0 CFG=1 CHG=1
M  V30 7 F 37.867414 24.626150 58.562923 0
M  V30 8 C 38.207070 32.310935 61.365670 0
M  V30 9 C 40.126829 29.974680 51.800081 0 CFG=1
M  V30 10 C 40.093765 29.994381 62.233993 0
M  V30 11 C 39.651410 30.625156 53.114964 0
M  V30 12 C 37.905504 33.810026 61.189498 0
M  V30 13 C 39.047914 29.637899 59.882944 0 CFG=1
M  V30 14 N 40.134959 34.514528 61.405883 0
M  V30 15 N 39.217316 28.969859 51.306521 0
M  V30 16 O 37.392842 31.527331 61.853536 0
M  V30 17 O 39.178388 27.473819 58.740534 0
M  V30 18 C 38.715393 28.283285 53.543057 0 CFG=1
M  V30 19 C 38.553710 30.411252 57.545568 0
M  V30 20 C 38.264660 24.013576 57.458127 0
M  V30 21 C 39.786461 26.505230 55.013682 0
M  V30 22 C 40.308955 30.816344 50.559431 0
M  V30 23 C 39.673597 25.474773 55.963046 0
M  V30 24 C 39.728752 29.754986 55.460763 0
M  V30 25 N 36.745044 34.254571 61.443047 0
M  V30 26 C 40.223588 29.766495 49.453432 0
M  V30 27 C 37.373646 26.739741 54.993538 0
M  V30 28 C 37.257178 25.712446 55.931419 0
M  V30 29 O 38.422370 35.911095 60.675287 0
M  V30 30 C 38.702645 30.537883 56.252047 0
M  V30 31 C 39.872867 30.573667 60.823489 0 CFG=1
M  V30 32 O 39.435946 31.940444 60.902112 0
M  V30 33 C 39.318780 27.841666 52.204609 0
M  V30 34 C 38.267583 30.427207 58.824086 0
M  V30 35 O 39.864018 28.559833 50.103618 0
M  V30 36 H 40.532015 28.044977 60.126196 0
M  V30 37 H 40.672334 28.880003 58.602704 0
M  V30 38 H 36.345018 36.056282 60.357668 0
M  V30 39 H 36.848421 36.310504 62.014264 0
M  V30 40 H 41.067400 29.473111 51.981133 0
M  V30 41 H 40.564884 29.011972 62.204108 0
M  V30 42 H 40.735499 30.649190 62.823529 0
M  V30 43 H 39.154368 29.882930 62.775172 0
M  V30 44 H 38.835443 31.341602 53.053401 0
M  V30 45 H 40.483468 31.210430 53.508538 0
M  V30 46 H 38.274131 29.170178 60.490780 0
M  V30 47 H 40.554011 33.613273 61.182142 0
M  V30 48 H 40.740928 35.258366 61.067708 0
M  V30 49 H 38.625364 27.846962 58.071613 0
M  V30 50 H 37.679086 28.511171 53.283330 0
M  V30 51 H 37.467319 23.314439 57.204255 0
M  V30 52 H 39.193841 23.479781 57.651686 0
M  V30 53 H 40.756799 26.810664 54.663269 0
M  V30 54 H 39.520595 31.563393 50.452177 0
M  V30 55 H 41.280775 31.302130 50.549506 0
M  V30 56 H 40.559430 24.991014 56.342502 0
M  V30 57 H 40.661078 30.315945 55.444047 0
M  V30 58 H 39.966953 28.826080 55.970317 0
M  V30 59 H 41.166895 29.628306 48.930721 0
M  V30 60 H 39.467880 30.023722 48.714898 0
M  V30 61 H 36.488672 27.225530 54.626437 0
M  V30 62 H 36.280921 25.412962 56.285270 0
M  V30 63 H 38.079400 31.223611 55.692916 0
M  V30 64 H 40.859820 30.654627 60.371878 0
M  V30 65 H 38.739665 27.015000 51.790151 0
M  V30 66 H 40.340279 27.487712 52.290224 0
M  V30 67 H 37.441907 31.020719 59.185670 0
M  V30 68 H 38.260117 29.984450 54.283554 0
M  V30 END ATOM
M  V30 BEGIN BOND
M  V30 1 1 11 6
M  V30 2 1 11 9
M  V30 3 1 12 3
M  V30 4 1 12 8
M  V30 5 1 13 1
M  V30 6 1 14 3
M  V30 7 1 15 9
M  V30 8 2 16 8
M  V30 9 1 17 1
M  V30 10 1 18 4
M  V30 11 1 18 6
M  V30 12 1 20 2
M  V30 13 1 20 7
M  V30 14 1 21 4
M  V30 15 1 22 9
M  V30 16 1 23 2
M  V30 17 2 23 21
M  V30 18 1 24 6
M  V30 19 1 25 5
M  V30 20 2 25 12
M  V30 21 1 26 22
M  V30 22 2 27 4
M  V30 23 2 28 2
M  V30 24 1 28 27
M  V30 25 1 29 3
M  V30 26 1 29 5
M  V30 27 2 30 19
M  V30 28 1 30 24
M  V30 29 1 31 10
M  V30 30 1 31 13
M  V30 31 1 32 8
M  V30 32 1 32 31
M  V30 33 1 33 15
M  V30 34 1 33 18
M  V30 35 1 34 13
M  V30 36 2 34 19
M  V30 37 1 35 15
M  V30 38 1 35 26
M  V30 39 1 36 1
M  V30 40 1 37 1
M  V30 41 1 38 5
M  V30 42 1 39 5
M  V30 43 1 9 40 CFG=1
M  V30 44 1 41 10
M  V30 45 1 42 10
M  V30 46 1 43 10
M  V30 47 1 44 11
M  V30 48 1 45 11
M  V30 49 1 13 46 CFG=1
M  V30 50 1 47 14
M  V30 51 1 48 14
M  V30 52 1 49 17
M  V30 53 1 18 50 CFG=3
M  V30 54 1 51 20
M  V30 55 1 52 20
M  V30 56 1 53 21
M  V30 57 1 54 22
M  V30 58 1 55 22
M  V30 59 1 56 23
M  V30 60 1 57 24
M  V30 61 1 58 24
M  V30 62 1 59 26
M  V30 63 1 60 26
M  V30 64 1 61 27
M  V30 65 1 62 28
M  V30 66 1 63 30
M  V30 67 1 31 64 CFG=3
M  V30 68 1 65 33
M  V30 69 1 66 33
M  V30 70 1 67 34
M  V30 71 1 6 68 CFG=1
M  V30 END BOND
M  V30 END CTAB
M  END
>  <i_epik_Tot_Q>  (1) 
1

>  <i_epik_Tot_abs_Q>  (1) 
1

>  <i_i_glide_confnum>  (1) 
524

>  <i_i_glide_lignum>  (1) 
43

>  <i_i_glide_posenum>  (1) 
245

>  <i_i_glide_rotatable_bonds>  (1) 
11

>  <i_lp_mmshare_version>  (1) 
72125

>  <i_m_source_file_index>  (1) 
14

>  <i_f3d_flags>  (1) 
0

>  <num_sample>  (1) 
50

>  <b_lp_Chiralities_Consistent>  (1) 
1

>  <r_epik_Charging_Adjusted_Penalty>  (1) 
1.4651263053542571

>  <r_epik_Ionization_Penalty>  (1) 
0.72306607658712641

>  <r_epik_Ionization_Penalty_Charging>  (1) 
0.72300917426663169

>  <r_epik_Ionization_Penalty_Neutral>  (1) 
5.6902320494737884e-05

>  <r_epik_State_Penalty>  (1) 
0.74211713108762534

>  <r_glide_ring_energy>  (1) 
0

>  <r_i_docking_score>  (1) 
-6.8647193124467192

>  <r_i_glide_ecoul>  (1) 
-3.0145928730087328

>  <r_i_glide_eff_state_penalty>  (1) 
0.74211713108762534

>  <r_i_glide_einternal>  (1) 
10.267383915015236

>  <r_i_glide_emodel>  (1) 
-60.875509386736852

>  <r_i_glide_emodel_strain>  (1) 
10.089099434082371

>  <r_i_glide_energy>  (1) 
-45.824088026087196

>  <r_i_glide_erotb>  (1) 
0.76112016271400151

>  <r_i_glide_esite>  (1) 
0

>  <r_i_glide_evdw>  (1) 
-42.809495153078466

>  <r_i_glide_gscore>  (1) 
-7.6068364435343447

>  <r_i_glide_gscore_strain>  (1) 
1.5222748585205927

>  <r_i_glide_hbond>  (1) 
-0.32000000000000001

>  <r_i_glide_ligand_efficiency>  (1) 
-0.19613483749847768

>  <r_i_glide_ligand_efficiency_ln>  (1) 
-1.5069582433185655

>  <r_i_glide_ligand_efficiency_sa>  (1) 
-0.64157005919558419

>  <r_i_glide_lipo>  (1) 
-4.5310809294657295

>  <r_i_glide_metal>  (1) 
-0

>  <r_i_glide_rewards>  (1) 
-2.446486846697975

>  <r_lp_Energy>  (1) 
-4.4146960000000002

>  <s_epik_Chemistry_Notes>  (1) 
This compound has an ester and may undergo hydrolysis at high or low pH. This compound has an imine and may undergo hydrolysis. This compound contains an acetal/aminal-like group ( X-CH(R)-Y where X, Y are N, S, or O) that may be acid/base labile, releasing an aldehyde. This compound has a N-S or N-O group and may undergo hydrolysis at high or low pH.

>  <s_epik_cmdline>  (1) 
J2VwaWtfcHl0aG9uJywgJy1waHQnLCAnMS4wJywgJy1waCcsICc3LjQnLCAnLXRuJywgJzgnLCAnLW1hJywgJzUwMCcsICctaW1hZScsICc8aW5maWxlLm1hZT4nLCAnLW9tYWUnLCAnPG91dGZpbGUubWFlPic=

>  <s_epik_input>  (1) 
TzFbQ0gyXU49QyhOMVtOSDJdKUMoPU8pT1tDQEBIXShbQ0gzXSlbQ0BIXShbQ0gyXVtPSF0pW0NIXT1DPVtDSF1bQ0gyXU4oW0NIMl0yKVtDQEhdKGMoW2NIXVtjSF0zKVtjSF1bY0hdYzNbQ0gyXUYpW0NIMl1OKFtDQEhdMjQpT1tDSDJdW0NIMl00

>  <s_glide_docking_method>  (1) 
confgen

>  <s_i_glide_gridfile>  (1) 
gpcr_5ht2c_6bqh_protein_autoprepared_prepared

>  <s_lp_Force_Field>  (1) 
S-OPLS

>  <s_lp_Variant>  (1) 
DiffSBDD_13_num_sample_50-2

>  <s_m_source_file>  (1) 
generated__ligand_DiffSBDD_2026-05-06_prepared.sdf

>  <GenAI_Model>  (1) 
DiffSBDD

>  <Protein>  (1) 
GPCR_5HT2C

$$$$
DiffSBDD_10_num_sample_50
     RDKit          3D

  0  0  0  0  0  0  0  0  0  0999 V3000
M  V30 BEGIN CTAB
M  V30 COUNTS 65 67 0 0 1
M  V30 BEGIN ATOM
M  V30 1 C 38.464654 25.790384 58.387841 0
M  V30 2 C 37.153741 25.851029 57.584415 0
M  V30 3 C 38.873853 27.944957 51.654780 0
M  V30 4 N 38.408647 27.022655 55.791386 0 CFG=2 CHG=1
M  V30 5 O 39.783497 31.370445 63.393457 0 CHG=-1
M  V30 6 O 40.416179 29.485280 58.872828 0
M  V30 7 C 41.009230 35.243352 62.219298 0
M  V30 8 C 38.126883 28.782376 52.484755 0
M  V30 9 C 38.763219 34.394586 60.738475 0
M  V30 10 O 39.067404 29.565727 61.755012 0
M  V30 11 N 41.869158 32.979793 62.236518 0
M  V30 12 C 37.983037 28.486570 53.844574 0
M  V30 13 C 38.693821 31.705300 59.446618 0
M  V30 14 C 40.885256 33.887368 61.853482 0
M  V30 15 C 37.423274 25.927770 56.073891 0 CFG=1
M  V30 16 C 36.667464 23.483533 55.666321 0
M  V30 17 C 38.592174 27.349033 54.354731 0
M  V30 18 O 37.467403 31.520656 62.253501 0
M  V30 19 C 39.663722 26.975433 56.578953 0
M  V30 20 N 38.601611 28.218367 58.439764 0
M  V30 21 C 37.755387 24.547589 55.451804 0
M  V30 22 P 38.902268 31.166541 62.222698 0
M  V30 23 C 37.818744 36.742833 60.727708 0
M  V30 24 C 40.016362 36.168957 61.853463 0
M  V30 25 C 39.201642 29.354798 58.801036 0
M  V30 26 N 38.318986 30.329762 59.077392 0
M  V30 27 C 39.467402 26.805220 52.181449 0
M  V30 28 O 37.255803 29.299511 54.653819 0 CHG=-1
M  V30 29 F 39.018081 28.236278 50.342308 0
M  V30 30 C 39.347291 26.505454 53.546304 0
M  V30 31 C 39.757825 33.452630 61.102817 0
M  V30 32 C 39.341282 27.005295 58.079878 0 CFG=1
M  V30 33 C 39.612350 31.962831 60.696937 0 CFG=2
M  V30 34 C 38.892587 35.745603 61.115830 0
M  V30 35 H 39.001178 24.875432 58.140933 0
M  V30 36 H 38.267411 25.757173 59.453294 0
M  V30 37 H 36.513299 25.012711 57.848094 0
M  V30 38 H 36.579139 26.734114 57.853509 0
M  V30 39 H 41.866816 35.572998 62.788372 0
M  V30 40 H 37.663316 29.621430 52.079654 0
M  V30 41 H 37.898766 34.085287 60.176897 0
M  V30 42 H 38.684170 29.528850 60.894637 0
M  V30 43 H 42.525347 33.263661 62.948349 0
M  V30 44 H 41.624431 31.998824 62.271279 0
M  V30 45 H 37.713244 32.138285 59.631028 0
M  V30 46 H 39.067414 32.219457 58.562178 0
M  V30 47 H 36.499046 26.243211 55.593924 0
M  V30 48 H 36.833497 22.626666 55.014237 0
M  V30 49 H 36.667404 23.108314 56.688130 0
M  V30 50 H 35.674566 23.874593 55.443652 0
M  V30 51 H 40.290758 27.828584 56.311401 0
M  V30 52 H 40.233852 26.079789 56.327167 0
M  V30 53 H 37.594092 28.183999 58.409183 0
M  V30 54 H 37.832863 24.647681 54.372779 0
M  V30 55 H 38.717055 24.180699 55.809300 0
M  V30 56 H 37.922278 37.675516 61.282282 0
M  V30 57 H 37.867401 36.965340 59.661251 0
M  V30 58 H 36.831399 36.332119 60.940207 0
M  V30 59 H 40.116041 37.205386 62.139999 0
M  V30 60 H 37.332442 30.132077 58.986528 0
M  V30 61 H 39.998003 26.140823 51.537948 0
M  V30 62 H 39.813037 25.621431 53.954311 0
M  V30 63 H 40.266870 26.932834 58.654127 0
M  V30 64 H 40.595529 31.528141 60.544901 0
M  V30 65 H 37.945132 27.850830 56.148984 0
M  V30 END ATOM
M  V30 BEGIN BOND
M  V30 1 1 2 1
M  V30 2 2 8 3
M  V30 3 1 12 8
M  V30 4 1 14 7
M  V30 5 1 14 11
M  V30 6 1 15 2
M  V30 7 1 15 4
M  V30 8 1 17 4
M  V30 9 2 17 12
M  V30 10 1 19 4
M  V30 11 1 21 15
M  V30 12 1 21 16
M  V30 13 1 22 5
M  V30 14 1 22 10
M  V30 15 2 22 18
M  V30 16 2 24 7
M  V30 17 2 25 6
M  V30 18 1 25 20
M  V30 19 1 26 13
M  V30 20 1 26 25
M  V30 21 1 27 3
M  V30 22 1 28 12
M  V30 23 1 29 3
M  V30 24 1 30 17
M  V30 25 2 30 27
M  V30 26 1 31 9
M  V30 27 2 31 14
M  V30 28 1 32 1
M  V30 29 1 32 19
M  V30 30 1 32 20
M  V30 31 1 33 13
M  V30 32 1 33 22
M  V30 33 1 33 31
M  V30 34 2 34 9
M  V30 35 1 34 23
M  V30 36 1 34 24
M  V30 37 1 35 1
M  V30 38 1 36 1
M  V30 39 1 37 2
M  V30 40 1 38 2
M  V30 41 1 39 7
M  V30 42 1 40 8
M  V30 43 1 41 9
M  V30 44 1 42 10
M  V30 45 1 43 11
M  V30 46 1 44 11
M  V30 47 1 45 13
M  V30 48 1 46 13
M  V30 49 1 15 47 CFG=3
M  V30 50 1 48 16
M  V30 51 1 49 16
M  V30 52 1 50 16
M  V30 53 1 51 19
M  V30 54 1 52 19
M  V30 55 1 53 20
M  V30 56 1 54 21
M  V30 57 1 55 21
M  V30 58 1 56 23
M  V30 59 1 57 23
M  V30 60 1 58 23
M  V30 61 1 59 24
M  V30 62 1 60 26
M  V30 63 1 61 27
M  V30 64 1 62 30
M  V30 65 1 32 63 CFG=1
M  V30 66 1 33 64 CFG=3
M  V30 67 1 4 65 CFG=1
M  V30 END BOND
M  V30 END CTAB
M  END
>  <i_epik_Tot_Q>  (1) 
-1

>  <i_epik_Tot_abs_Q>  (1) 
3

>  <i_i_glide_confnum>  (1) 
6

>  <i_i_glide_lignum>  (1) 
37

>  <i_i_glide_posenum>  (1) 
193

>  <i_i_glide_rotatable_bonds>  (1) 
10

>  <i_lp_mmshare_version>  (1) 
72125

>  <i_m_source_file_index>  (1) 
11

>  <i_f3d_flags>  (1) 
0

>  <num_sample>  (1) 
50

>  <b_lp_Chiralities_Consistent>  (1) 
1

>  <r_epik_Charging_Adjusted_Penalty>  (1) 
0.95893062563682818

>  <r_epik_Ionization_Penalty>  (1) 
0.45630296270815951

>  <r_epik_Ionization_Penalty_Charging>  (1) 
0.042165092744118775

>  <r_epik_Ionization_Penalty_Neutral>  (1) 
0.41413786996404073

>  <r_epik_State_Penalty>  (1) 
0.91676553289270946

>  <r_glide_ring_energy>  (1) 
0

>  <r_i_docking_score>  (1) 
-6.8536720252965999

>  <r_i_glide_ecoul>  (1) 
-3.2175038205845299

>  <r_i_glide_eff_state_penalty>  (1) 
0.91676553289270946

>  <r_i_glide_einternal>  (1) 
2.5655963212781678

>  <r_i_glide_emodel>  (1) 
-52.316644633225877

>  <r_i_glide_emodel_strain>  (1) 
2.6016570644717518

>  <r_i_glide_energy>  (1) 
-34.975746442172678

>  <r_i_glide_erotb>  (1) 
0.66918926381983879

>  <r_i_glide_esite>  (1) 
-0.011243358741871649

>  <r_i_glide_evdw>  (1) 
-31.758242621588149

>  <r_i_glide_gscore>  (1) 
-7.7704375581893093

>  <r_i_glide_gscore_strain>  (1) 
0

>  <r_i_glide_hbond>  (1) 
-0.13717024172751927

>  <r_i_glide_ligand_efficiency>  (1) 
-0.20157858897931177

>  <r_i_glide_ligand_efficiency_ln>  (1) 
-1.5141683893767601

>  <r_i_glide_ligand_efficiency_sa>  (1) 
-0.65303637574224171

>  <r_i_glide_lipo>  (1) 
-5.007271680067757

>  <r_i_glide_metal>  (1) 
-0

>  <r_i_glide_rewards>  (1) 
-1.2134038373049127

>  <r_lp_Energy>  (1) 
25.832879999999999

>  <s_epik_cmdline>  (1) 
J2VwaWtfcHl0aG9uJywgJy1waHQnLCAnMS4wJywgJy1waCcsICc3LjQnLCAnLXRuJywgJzgnLCAnLW1hJywgJzUwMCcsICctaW1hZScsICc8aW5maWxlLm1hZT4nLCAnLW9tYWUnLCAnPG91dGZpbGUubWFlPic=

>  <s_epik_input>  (1) 
RmMxW2NIXWMoW09IXSljKFtjSF1bY0hdMSlOMltDQEBIXShbQ0gyXVtDSDNdKVtDSDJdW0NIMl1bQ0BASF0oW0NIMl0yKVtOSF1DKD1PKVtOSF1bQ0gyXVtDQEhdKFAoPU8pKFtPSF0pW09IXSljM1tjSF1jKFtDSDNdKVtjSF1bY0hdYzNbTkgyXQ==

>  <s_glide_docking_method>  (1) 
confgen

>  <s_i_glide_gridfile>  (1) 
gpcr_5ht2c_6bqh_protein_autoprepared_prepared

>  <s_lp_Force_Field>  (1) 
S-OPLS

>  <s_lp_Variant>  (1) 
DiffSBDD_10_num_sample_50-6

>  <s_m_source_file>  (1) 
generated__ligand_DiffSBDD_2026-05-06_prepared.sdf

>  <GenAI_Model>  (1) 
DiffSBDD

>  <Protein>  (1) 
GPCR_5HT2C

$$$$
DiffSBDD_20_num_sample_50
     RDKit          3D

  0  0  0  0  0  0  0  0  0  0999 V3000
M  V30 BEGIN CTAB
M  V30 COUNTS 77 81 0 0 1
M  V30 BEGIN ATOM
M  V30 1 C 40.847725 35.324688 64.324399 0
M  V30 2 C 41.316994 34.614336 66.609909 0
M  V30 3 C 39.273102 32.987468 62.092325 0 CFG=2
M  V30 4 C 39.540020 26.567379 57.174778 0
M  V30 5 C 41.386458 33.276429 66.191495 0
M  V30 6 C 38.060944 31.011192 59.017128 0
M  V30 7 C 41.528131 30.583622 65.378236 0
M  V30 8 C 38.725953 29.639016 59.255810 0 CFG=1
M  V30 9 C 39.653100 29.640813 56.819058 0
M  V30 10 C 38.967763 28.806225 57.952662 0 CFG=2
M  V30 11 C 40.009484 29.806494 60.087266 0
M  V30 12 F 37.067384 25.221462 53.968723 0
M  V30 13 C 39.907535 30.822929 61.230321 0
M  V30 14 C 41.656621 32.263549 67.134601 0
M  V30 15 O 37.080708 31.237775 61.246637 0
M  V30 16 C 37.664133 28.137342 57.457977 0
M  V30 17 C 40.866274 34.882469 61.442013 0
M  V30 18 C 37.932458 31.855533 60.292444 0 CFG=1
M  V30 19 C 40.667422 33.654659 62.374509 0 CFG=1
M  V30 20 C 41.258909 31.588568 64.429540 0
M  V30 21 C 38.288734 32.041542 54.078673 0
M  V30 22 F 38.912265 24.821531 55.047417 0
M  V30 23 C 39.375731 31.309355 54.866368 0
M  V30 24 O 37.793834 26.731290 55.505520 0
M  V30 25 C 41.051936 35.631360 65.682366 0
M  V30 26 C 40.905922 33.981695 63.875775 0
M  V30 27 C 38.708923 30.317759 55.811510 0
M  V30 28 C 36.929793 24.709460 56.250181 0
M  V30 29 C 37.191609 25.594846 57.453368 0
M  V30 30 C 37.705889 25.377579 55.120011 0
M  V30 31 N 39.257378 32.099686 60.903744 0
M  V30 32 C 38.037785 26.753290 56.898981 0 CFG=1
M  V30 33 C 41.726127 30.920593 66.727582 0
M  V30 34 C 39.844086 27.573246 58.267913 0
M  V30 35 O 38.332862 34.020171 61.851917 0
M  V30 36 C 41.183671 32.943872 64.825751 0
M  V30 37 H 40.641685 36.123387 63.632342 0
M  V30 38 H 41.467064 34.861960 67.648878 0
M  V30 39 H 38.934928 32.412361 62.954742 0
M  V30 40 H 40.121163 26.807493 56.283770 0
M  V30 41 H 39.815045 25.551473 57.462735 0
M  V30 42 H 37.078571 30.875826 58.562096 0
M  V30 43 H 38.643303 31.605067 58.314155 0
M  V30 44 H 41.581969 29.550253 65.067924 0
M  V30 45 H 38.044105 29.072346 59.890085 0
M  V30 46 H 40.267385 30.407592 57.277796 0
M  V30 47 H 40.348390 29.032335 56.243196 0
M  V30 48 H 40.863318 30.021436 59.453589 0
M  V30 49 H 40.265623 28.851918 60.546819 0
M  V30 50 H 40.939784 31.012162 61.501716 0
M  V30 51 H 39.408697 30.359127 62.083452 0
M  V30 52 H 41.810073 32.518895 68.173298 0
M  V30 53 H 36.192855 31.403127 60.964698 0
M  V30 54 H 36.953662 28.012694 58.253483 0
M  V30 55 H 37.075378 28.754798 56.786444 0
M  V30 56 H 41.867406 35.292274 61.509291 0
M  V30 57 H 40.667301 34.624821 60.406269 0
M  V30 58 H 40.175754 35.698952 61.649274 0
M  V30 59 H 37.479889 32.802195 59.995944 0
M  V30 60 H 41.468465 32.973564 62.096246 0
M  V30 61 H 41.113244 31.316487 63.412904 0
M  V30 62 H 38.667340 32.421435 53.134103 0
M  V30 63 H 37.465838 31.365699 53.853501 0
M  V30 64 H 37.867678 32.870595 54.649698 0
M  V30 65 H 39.982837 32.026600 55.420816 0
M  V30 66 H 40.044080 30.778343 54.185931 0
M  V30 67 H 41.000938 36.658806 66.012905 0
M  V30 68 H 38.240749 29.552791 55.190940 0
M  V30 69 H 37.900074 30.831867 56.329504 0
M  V30 70 H 35.867376 24.709917 56.027781 0
M  V30 71 H 37.232182 23.674431 56.407923 0
M  V30 72 H 37.698832 25.056457 58.253524 0
M  V30 73 H 36.242274 25.945438 57.853470 0
M  V30 74 H 41.932598 30.147286 67.452317 0
M  V30 75 H 40.910041 27.801009 58.324475 0
M  V30 76 H 39.550950 27.131019 59.221421 0
M  V30 77 H 37.872868 34.204371 62.653505 0
M  V30 END ATOM
M  V30 BEGIN BOND
M  V30 1 1 5 2
M  V30 2 1 8 6
M  V30 3 1 10 8
M  V30 4 1 10 9 CFG=3
M  V30 5 1 11 8
M  V30 6 1 13 11
M  V30 7 2 14 5
M  V30 8 1 16 10
M  V30 9 1 18 6
M  V30 10 1 18 15
M  V30 11 1 19 3
M  V30 12 1 19 17
M  V30 13 1 20 7
M  V30 14 1 23 21
M  V30 15 1 25 1
M  V30 16 2 25 2
M  V30 17 2 26 1
M  V30 18 1 26 19
M  V30 19 1 27 9
M  V30 20 1 27 23
M  V30 21 1 29 28
M  V30 22 1 30 12
M  V30 23 1 30 22
M  V30 24 1 30 24
M  V30 25 1 30 28
M  V30 26 1 31 3
M  V30 27 1 31 13
M  V30 28 1 31 18
M  V30 29 1 32 4
M  V30 30 1 32 16
M  V30 31 1 32 24 CFG=3
M  V30 32 1 32 29
M  V30 33 2 33 7
M  V30 34 1 33 14
M  V30 35 1 34 4
M  V30 36 1 34 10
M  V30 37 1 35 3
M  V30 38 1 36 5
M  V30 39 2 36 20
M  V30 40 1 36 26
M  V30 41 1 37 1
M  V30 42 1 38 2
M  V30 43 1 3 39 CFG=1
M  V30 44 1 40 4
M  V30 45 1 41 4
M  V30 46 1 42 6
M  V30 47 1 43 6
M  V30 48 1 44 7
M  V30 49 1 8 45 CFG=1
M  V30 50 1 46 9
M  V30 51 1 47 9
M  V30 52 1 48 11
M  V30 53 1 49 11
M  V30 54 1 50 13
M  V30 55 1 51 13
M  V30 56 1 52 14
M  V30 57 1 53 15
M  V30 58 1 54 16
M  V30 59 1 55 16
M  V30 60 1 56 17
M  V30 61 1 57 17
M  V30 62 1 58 17
M  V30 63 1 18 59 CFG=3
M  V30 64 1 19 60 CFG=3
M  V30 65 1 61 20
M  V30 66 1 62 21
M  V30 67 1 63 21
M  V30 68 1 64 21
M  V30 69 1 65 23
M  V30 70 1 66 23
M  V30 71 1 67 25
M  V30 72 1 68 27
M  V30 73 1 69 27
M  V30 74 1 70 28
M  V30 75 1 71 28
M  V30 76 1 72 29
M  V30 77 1 73 29
M  V30 78 1 74 33
M  V30 79 1 75 34
M  V30 80 1 76 34
M  V30 81 1 77 35
M  V30 END BOND
M  V30 END CTAB
M  END
>  <i_epik_Tot_Q>  (1) 
0

>  <i_epik_Tot_abs_Q>  (1) 
0

>  <i_i_glide_confnum>  (1) 
920

>  <i_i_glide_lignum>  (1) 
56

>  <i_i_glide_posenum>  (1) 
229

>  <i_i_glide_rotatable_bonds>  (1) 
9

>  <i_lp_mmshare_version>  (1) 
72125

>  <i_m_source_file_index>  (1) 
21

>  <i_f3d_flags>  (1) 
0

>  <num_sample>  (1) 
50

>  <b_lp_Chiralities_Consistent>  (1) 
1

>  <r_epik_Charging_Adjusted_Penalty>  (1) 
0.32925283897171748

>  <r_epik_Ionization_Penalty>  (1) 
0.0090765548759611635

>  <r_epik_Ionization_Penalty_Charging>  (1) 
0

>  <r_epik_Ionization_Penalty_Neutral>  (1) 
0.0090765548759611635

>  <r_epik_State_Penalty>  (1) 
0.32925283897171748

>  <r_glide_ring_energy>  (1) 
1.522030075593225

>  <r_i_docking_score>  (1) 
-6.8303183397450127

>  <r_i_glide_ecoul>  (1) 
-1.2195691529852106

>  <r_i_glide_eff_state_penalty>  (1) 
0.32925283897171748

>  <r_i_glide_einternal>  (1) 
4.8315223564802459

>  <r_i_glide_emodel>  (1) 
-32.281423676188005

>  <r_i_glide_emodel_strain>  (1) 
3.5605315693039188

>  <r_i_glide_energy>  (1) 
-37.685145754916995

>  <r_i_glide_erotb>  (1) 
0.48702584280874928

>  <r_i_glide_esite>  (1) 
-0.0030918756317913445

>  <r_i_glide_evdw>  (1) 
-36.465576601931787

>  <r_i_glide_gscore>  (1) 
-7.15957117871673

>  <r_i_glide_gscore_strain>  (1) 
0

>  <r_i_glide_hbond>  (1) 
-0.32000000000000001

>  <r_i_glide_ligand_efficiency>  (1) 
-0.18973106499291703

>  <r_i_glide_ligand_efficiency_ln>  (1) 
-1.490190927856339

>  <r_i_glide_ligand_efficiency_sa>  (1) 
-0.62647817346191026

>  <r_i_glide_lipo>  (1) 
-4.0798971693826473

>  <r_i_glide_metal>  (1) 
-0

>  <r_i_glide_rewards>  (1) 
-1.2373937734666685

>  <r_lp_Energy>  (1) 
40.512656

>  <s_epik_Chemistry_Notes>  (1) 
This compound contains an acetal/aminal-like group ( X-CH(R)-Y where X, Y are N, S, or O) that may be acid/base labile, releasing an aldehyde.

>  <s_epik_cmdline>  (1) 
J2VwaWtfcHl0aG9uJywgJy1waHQnLCAnMS4wJywgJy1waCcsICc3LjQnLCAnLXRuJywgJzgnLCAnLW1hJywgJzUwMCcsICctaW1hZScsICc8aW5maWxlLm1hZT4nLCAnLW9tYWUnLCAnPG91dGZpbGUubWFlPic=

>  <s_epik_input>  (1) 
W2NIXTFbY0hdW2NIXVtjSF1jKGMxMiljKFtjSF1bY0hdW2NIXTIpW0NASF0oW0NIM10pW0NAQEhdKFtPSF0pTihbQ0gyXVtDSDJdMylbQ0BIXShbT0hdKVtDSDJdW0NASF0zW0NAQF0oW0NIMl00KShbQ0gyXVtDSDJdW0NIMl1bQ0gzXSlbQ0gyXVtDSDJdW0NAXTQ1T0MoRikoRilbQ0gyXVtDSDJdNQ==

>  <s_glide_docking_method>  (1) 
confgen

>  <s_i_glide_gridfile>  (1) 
gpcr_5ht2c_6bqh_protein_autoprepared_prepared

>  <s_lp_Force_Field>  (1) 
S-OPLS

>  <s_lp_Variant>  (1) 
DiffSBDD_20_num_sample_50-1

>  <s_m_source_file>  (1) 
generated__ligand_DiffSBDD_2026-05-06_prepared.sdf

>  <GenAI_Model>  (1) 
DiffSBDD

>  <Protein>  (1) 
GPCR_5HT2C

$$$$
DiffSBDD_12_num_sample_50
     RDKit          3D

  0  0  0  0  0  0  0  0  0  0999 V3000
M  V30 BEGIN CTAB
M  V30 COUNTS 70 72 0 0 1
M  V30 BEGIN ATOM
M  V30 1 C 40.496055 35.582722 61.512036 0
M  V30 2 C 38.267446 28.088184 55.757119 0
M  V30 3 C 38.109800 30.342533 58.220291 0
M  V30 4 O 37.875449 32.763060 58.580759 0
M  V30 5 N 38.169476 29.483257 55.811332 0
M  V30 6 F 39.870835 29.366554 49.335918 0
M  V30 7 N 38.079766 29.392726 59.055544 0
M  V30 8 C 38.077453 36.423245 61.441543 0
M  V30 9 C 39.408160 25.552628 57.472562 0
M  V30 10 C 39.520129 36.673563 61.853681 0
M  V30 11 C 39.578361 34.581483 60.810556 0
M  V30 12 C 37.207054 34.519779 60.002037 0
M  V30 13 C 39.824045 29.059237 50.635960 0
M  V30 14 C 39.867373 30.413595 52.751831 0
M  V30 15 N 37.867426 27.415039 56.904831 0
M  V30 16 N 38.710714 30.271295 54.791000 0
M  V30 17 C 38.775090 31.665247 58.524384 0
M  V30 18 C 37.669640 37.359175 60.278215 0
M  V30 19 N 38.713545 27.476201 54.703161 0
M  V30 20 O 35.302589 32.076614 61.075451 0
M  V30 21 C 38.997642 27.468422 52.364870 0
M  V30 22 C 37.467449 30.243930 56.847365 0
M  V30 23 O 40.267408 25.565810 56.356749 0
M  V30 24 C 37.200440 32.981004 59.814434 0 CFG=1
M  V30 25 C 37.140601 36.635504 62.651191 0
M  V30 26 C 39.020381 28.186791 53.530371 0
M  V30 27 C 39.163983 27.960680 50.997619 0
M  V30 28 C 39.218196 29.665304 53.660410 0
M  V30 29 C 40.575936 29.900549 51.554145 0
M  V30 30 C 34.791141 33.221162 61.735190 0
M  V30 31 C 37.990365 25.969764 57.047729 0
M  V30 32 C 35.794034 32.349554 59.768093 0
M  V30 33 O 39.867183 37.700564 62.428552 0
M  V30 34 N 38.157987 34.976865 61.056144 0 CFG=2 CHG=1
M  V30 35 H 40.926648 35.173194 62.426284 0
M  V30 36 H 41.294662 35.948406 60.866259 0
M  V30 37 H 38.550389 29.605459 59.924018 0
M  V30 38 H 36.458800 29.846989 56.959829 0
M  V30 39 H 39.796993 26.195668 58.263194 0
M  V30 40 H 39.388142 24.532805 57.853492 0
M  V30 41 H 39.762603 33.570980 61.174590 0
M  V30 42 H 39.799229 34.576998 59.744730 0
M  V30 43 H 37.443492 34.997277 59.049732 0
M  V30 44 H 36.212418 34.882141 60.252491 0
M  V30 45 H 39.962581 31.475669 52.927286 0
M  V30 46 H 37.561363 27.907797 57.737143 0
M  V30 47 H 38.697552 31.275691 54.894969 0
M  V30 48 H 39.359510 31.592763 59.444509 0
M  V30 49 H 37.789601 38.407176 60.554738 0
M  V30 50 H 38.264890 37.194865 59.381975 0
M  V30 51 H 36.622760 37.227428 60.002563 0
M  V30 52 H 38.759830 26.421466 52.462455 0
M  V30 53 H 39.467339 31.874302 57.707946 0
M  V30 54 H 37.355863 31.258047 56.468815 0
M  V30 55 H 41.166171 25.398417 56.630400 0
M  V30 56 H 37.740156 32.506021 60.634632 0
M  V30 57 H 36.806518 37.671056 62.713423 0
M  V30 58 H 36.250539 36.013873 62.585040 0
M  V30 59 H 37.623391 36.420860 63.605840 0
M  V30 60 H 38.714048 27.376927 50.212501 0
M  V30 61 H 41.382180 29.230533 51.853448 0
M  V30 62 H 41.023020 30.733505 51.010920 0
M  V30 63 H 34.090229 32.936854 62.519663 0
M  V30 64 H 35.589666 33.799983 62.197049 0
M  V30 65 H 34.267437 33.856243 61.027180 0
M  V30 66 H 37.284251 25.665614 57.820197 0
M  V30 67 H 37.685622 25.457183 56.134015 0
M  V30 68 H 35.097095 32.936430 59.167432 0
M  V30 69 H 35.841677 31.377278 59.283277 0
M  V30 70 H 37.902217 34.485550 61.901119 0
M  V30 END ATOM
M  V30 BEGIN BOND
M  V30 1 1 5 2
M  V30 2 2 7 3
M  V30 3 1 10 1
M  V30 4 1 10 8
M  V30 5 1 11 1
M  V30 6 1 13 6
M  V30 7 1 15 2
M  V30 8 1 16 5
M  V30 9 1 17 3
M  V30 10 1 17 4
M  V30 11 1 18 8
M  V30 12 2 19 2
M  V30 13 1 22 3
M  V30 14 1 22 5
M  V30 15 1 23 9
M  V30 16 1 24 4
M  V30 17 1 24 12
M  V30 18 1 25 8
M  V30 19 1 26 19
M  V30 20 2 26 21
M  V30 21 2 27 13
M  V30 22 1 27 21
M  V30 23 2 28 14
M  V30 24 1 28 16
M  V30 25 1 28 26
M  V30 26 1 29 13
M  V30 27 1 29 14
M  V30 28 1 30 20
M  V30 29 1 31 9
M  V30 30 1 31 15
M  V30 31 1 32 20
M  V30 32 1 32 24
M  V30 33 2 33 10
M  V30 34 1 34 8
M  V30 35 1 34 11
M  V30 36 1 34 12
M  V30 37 1 35 1
M  V30 38 1 36 1
M  V30 39 1 37 7
M  V30 40 1 38 22
M  V30 41 1 39 9
M  V30 42 1 40 9
M  V30 43 1 41 11
M  V30 44 1 42 11
M  V30 45 1 43 12
M  V30 46 1 44 12
M  V30 47 1 45 14
M  V30 48 1 46 15
M  V30 49 1 47 16
M  V30 50 1 48 17
M  V30 51 1 49 18
M  V30 52 1 50 18
M  V30 53 1 51 18
M  V30 54 1 52 21
M  V30 55 1 53 17
M  V30 56 1 54 22
M  V30 57 1 55 23
M  V30 58 1 24 56 CFG=1
M  V30 59 1 57 25
M  V30 60 1 58 25
M  V30 61 1 59 25
M  V30 62 1 60 27
M  V30 63 1 61 29
M  V30 64 1 62 29
M  V30 65 1 63 30
M  V30 66 1 64 30
M  V30 67 1 65 30
M  V30 68 1 66 31
M  V30 69 1 67 31
M  V30 70 1 68 32
M  V30 71 1 69 32
M  V30 72 1 34 70 CFG=1
M  V30 END BOND
M  V30 END CTAB
M  END
>  <i_epik_Tot_Q>  (1) 
1

>  <i_epik_Tot_abs_Q>  (1) 
1

>  <i_i_glide_confnum>  (1) 
727

>  <i_i_glide_lignum>  (1) 
41

>  <i_i_glide_posenum>  (1) 
267

>  <i_i_glide_rotatable_bonds>  (1) 
13

>  <i_lp_mmshare_version>  (1) 
72125

>  <i_m_source_file_index>  (1) 
13

>  <i_f3d_flags>  (1) 
0

>  <num_sample>  (1) 
50

>  <b_lp_Chiralities_Consistent>  (1) 
1

>  <r_epik_Charging_Adjusted_Penalty>  (1) 
2.2216491605189868

>  <r_epik_Ionization_Penalty>  (1) 
0.91881204336881139

>  <r_epik_Ionization_Penalty_Charging>  (1) 
0.90548466078319156

>  <r_epik_Ionization_Penalty_Neutral>  (1) 
0.013327382585619883

>  <r_epik_State_Penalty>  (1) 
1.3161644997357953

>  <r_glide_ring_energy>  (1) 
0

>  <r_i_docking_score>  (1) 
-6.8047460797705979

>  <r_i_glide_ecoul>  (1) 
-6.4471137668164191

>  <r_i_glide_eff_state_penalty>  (1) 
1.3161644997357953

>  <r_i_glide_einternal>  (1) 
6.0629126030424558

>  <r_i_glide_emodel>  (1) 
-68.118136664278722

>  <r_i_glide_emodel_strain>  (1) 
2.9722536166203071

>  <r_i_glide_energy>  (1) 
-50.006328211100964

>  <r_i_glide_erotb>  (1) 
0.96958307808003152

>  <r_i_glide_esite>  (1) 
-0.064541040499209931

>  <r_i_glide_evdw>  (1) 
-43.559214444284542

>  <r_i_glide_gscore>  (1) 
-8.1209105795063934

>  <r_i_glide_gscore_strain>  (1) 
0

>  <r_i_glide_hbond>  (1) 
-0.32000000000000001

>  <r_i_glide_ligand_efficiency>  (1) 
-0.20013959058148817

>  <r_i_glide_ligand_efficiency_ln>  (1) 
-1.5033592756837779

>  <r_i_glide_ligand_efficiency_sa>  (1) 
-0.64837457955063305

>  <r_i_glide_lipo>  (1) 
-4.0569274189927462

>  <r_i_glide_metal>  (1) 
-0

>  <r_i_glide_rewards>  (1) 
-1.5039974108577772

>  <r_lp_Energy>  (1) 
33.115794999999999

>  <r_lp_tautomer_probability>  (1) 
0.49996700039999997

>  <s_epik_Chemistry_Notes>  (1) 
This compound has an imine and may undergo hydrolysis.

>  <s_epik_cmdline>  (1) 
J2VwaWtfcHl0aG9uJywgJy1waHQnLCAnMS4wJywgJy1waCcsICc3LjQnLCAnLXRuJywgJzgnLCAnLW1hJywgJzUwMCcsICctaW1hZScsICc8aW5maWxlLm1hZT4nLCAnLW9tYWUnLCAnPG91dGZpbGUubWFlPic=

>  <s_epik_input>  (1) 
W0NIM11DMShbQ0gzXSlDKD1PKVtDSDJdW0NIMl1OMVtDSDJdW0NAQEhdKFtDSDJdT1tDSDNdKU8vW0NIXT1DKFxbTkgyXSlbQ0gyXU4oQyg9TjIpW05IXVtDSDJdW0NIMl1bT0hdKVtOSF1DKEMyMyk9W0NIXVtDSDJdQyhGKT1bQ0hdW0NIXT0z

>  <s_glide_docking_method>  (1) 
confgen

>  <s_i_glide_gridfile>  (1) 
gpcr_5ht2c_6bqh_protein_autoprepared_prepared

>  <s_lp_Force_Field>  (1) 
S-OPLS

>  <s_lp_Variant>  (1) 
DiffSBDD_12_num_sample_50-3

>  <s_m_source_file>  (1) 
generated__ligand_DiffSBDD_2026-05-06_prepared.sdf

>  <GenAI_Model>  (1) 
DiffSBDD

>  <Protein>  (1) 
GPCR_5HT2C

$$$$
DiffSBDD_22_num_sample_50
     RDKit          3D

  0  0  0  0  0  0  0  0  0  0999 V3000
M  V30 BEGIN CTAB
M  V30 COUNTS 70 72 0 0 1
M  V30 BEGIN ATOM
M  V30 1 O 39.467331 33.742512 62.500617 0
M  V30 2 C 41.012764 28.458896 63.213177 0
M  V30 3 N 37.797683 35.415410 61.414493 0
M  V30 4 O 40.025331 34.821427 60.256556 0
M  V30 5 C 40.926903 35.621438 64.717227 0
M  V30 6 C 38.648744 30.387868 59.504303 0 CFG=2
M  V30 7 C 39.322843 37.334173 62.989608 0
M  V30 8 C 37.467403 32.984988 58.317876 0
M  V30 9 C 37.894356 26.482980 57.754189 0
M  V30 10 C 37.139348 32.438541 59.505175 0
M  V30 11 C 38.292026 27.567215 56.941346 0
M  V30 12 C 38.281477 27.428304 55.537534 0
M  V30 13 C 41.282145 28.567909 58.994504 0
M  V30 14 C 37.481800 25.274082 57.166417 0
M  V30 15 N 36.878967 34.735746 60.590546 0
M  V30 16 F 39.393170 36.049362 66.460035 0
M  V30 17 C 35.215594 32.989887 61.048763 0
M  V30 18 C 41.328084 35.969760 63.261786 0
M  V30 19 C 37.463405 25.141912 55.767388 0
M  V30 20 Cl 36.937667 23.668104 55.053504 0
M  V30 21 C 37.208473 30.930563 59.747541 0 CFG=1
M  V30 22 C 39.912072 28.322820 59.668742 0 CFG=2
M  V30 23 S 39.436656 34.902089 61.597163 0
M  V30 24 C 37.867402 26.216265 54.951553 0
M  V30 25 C 38.714630 28.895244 57.564948 0
M  V30 26 N 40.152974 36.261904 62.422512 0
M  V30 27 C 39.865792 36.567560 65.326376 0
M  V30 28 O 41.114345 28.420934 61.799202 0
M  V30 29 N 38.758271 28.992701 59.039052 0
M  V30 30 C 36.047319 30.193152 59.052525 0
M  V30 31 S 39.591118 30.531139 61.053577 0
M  V30 32 C 39.912800 28.769132 61.136685 0 CFG=1
M  V30 33 C 36.680218 33.287344 60.691666 0 CFG=1
M  V30 34 C 38.745520 36.874647 64.328607 0
M  V30 35 H 41.972371 28.189614 63.654820 0
M  V30 36 H 40.744004 29.453370 63.570872 0
M  V30 37 H 40.269706 27.745347 63.571654 0
M  V30 38 H 37.746293 36.417928 61.245271 0
M  V30 39 H 41.815126 35.615582 65.349966 0
M  V30 40 H 40.555146 34.598674 64.733524 0
M  V30 41 H 39.158191 31.024095 58.783970 0
M  V30 42 H 39.943718 38.218506 63.138877 0
M  V30 43 H 38.544853 37.636360 62.292147 0
M  V30 44 H 37.787724 32.368453 57.491400 0
M  V30 45 H 37.416692 34.051571 58.159065 0
M  V30 46 H 37.896614 26.579523 58.824393 0
M  V30 47 H 38.583160 28.254965 54.910655 0
M  V30 48 H 42.069621 28.023230 59.511304 0
M  V30 49 H 41.312889 28.195730 57.971668 0
M  V30 50 H 41.553585 29.621426 58.986842 0
M  V30 51 H 37.172155 24.448848 57.790518 0
M  V30 52 H 35.991764 35.229800 60.520212 0
M  V30 53 H 35.067387 31.943927 61.313749 0
M  V30 54 H 34.890375 33.586298 61.902066 0
M  V30 55 H 34.552063 33.220564 60.213961 0
M  V30 56 H 41.867435 35.132880 62.822898 0
M  V30 57 H 42.003259 36.821429 63.238248 0
M  V30 58 H 37.004923 30.778748 60.807328 0
M  V30 59 H 39.762758 27.244329 59.648195 0
M  V30 60 H 37.852965 26.113180 53.876192 0
M  V30 61 H 38.019737 29.630771 57.168401 0
M  V30 62 H 39.660055 29.207447 57.124646 0
M  V30 63 H 40.267404 37.523989 65.639055 0
M  V30 64 H 35.125453 30.771141 59.125158 0
M  V30 65 H 36.204981 30.021436 57.991497 0
M  V30 66 H 35.870916 29.221434 59.505152 0
M  V30 67 H 39.067404 28.290865 61.633052 0
M  V30 68 H 37.278751 32.948582 61.536761 0
M  V30 69 H 38.082586 37.621429 64.741722 0
M  V30 70 H 38.117675 36.021431 64.143303 0
M  V30 END ATOM
M  V30 BEGIN BOND
M  V30 1 2 10 8
M  V30 2 1 11 9
M  V30 3 2 12 11
M  V30 4 2 14 9
M  V30 5 1 15 3
M  V30 6 1 18 5
M  V30 7 1 19 14
M  V30 8 1 20 19
M  V30 9 1 21 6
M  V30 10 1 21 10
M  V30 11 1 22 13
M  V30 12 2 23 1
M  V30 13 1 23 3
M  V30 14 2 23 4
M  V30 15 1 24 12
M  V30 16 2 24 19
M  V30 17 1 25 11
M  V30 18 1 26 7
M  V30 19 1 26 18
M  V30 20 1 26 23
M  V30 21 1 27 5
M  V30 22 1 27 16
M  V30 23 1 28 2
M  V30 24 1 29 6
M  V30 25 1 29 22
M  V30 26 1 29 25
M  V30 27 1 30 21
M  V30 28 1 31 6
M  V30 29 1 32 22
M  V30 30 1 32 28
M  V30 31 1 32 31
M  V30 32 1 33 10
M  V30 33 1 33 15
M  V30 34 1 33 17
M  V30 35 1 34 7
M  V30 36 1 34 27
M  V30 37 1 35 2
M  V30 38 1 36 2
M  V30 39 1 37 2
M  V30 40 1 38 3
M  V30 41 1 39 5
M  V30 42 1 40 5
M  V30 43 1 6 41 CFG=3
M  V30 44 1 42 7
M  V30 45 1 43 7
M  V30 46 1 44 8
M  V30 47 1 45 8
M  V30 48 1 46 9
M  V30 49 1 47 12
M  V30 50 1 48 13
M  V30 51 1 49 13
M  V30 52 1 50 13
M  V30 53 1 51 14
M  V30 54 1 52 15
M  V30 55 1 53 17
M  V30 56 1 54 17
M  V30 57 1 55 17
M  V30 58 1 56 18
M  V30 59 1 57 18
M  V30 60 1 21 58 CFG=1
M  V30 61 1 22 59 CFG=1
M  V30 62 1 60 24
M  V30 63 1 61 25
M  V30 64 1 62 25
M  V30 65 1 63 27
M  V30 66 1 64 30
M  V30 67 1 65 30
M  V30 68 1 66 30
M  V30 69 1 32 67 CFG=1
M  V30 70 1 33 68 CFG=1
M  V30 71 1 69 34
M  V30 72 1 70 34
M  V30 END BOND
M  V30 END CTAB
M  END
>  <i_epik_Tot_Q>  (1) 
0

>  <i_epik_Tot_abs_Q>  (1) 
0

>  <i_i_glide_confnum>  (1) 
487

>  <i_i_glide_lignum>  (1) 
61

>  <i_i_glide_posenum>  (1) 
137

>  <i_i_glide_rotatable_bonds>  (1) 
10

>  <i_lp_mmshare_version>  (1) 
72125

>  <i_m_source_file_index>  (1) 
23

>  <i_f3d_flags>  (1) 
0

>  <num_sample>  (1) 
50

>  <b_lp_Chiralities_Consistent>  (1) 
1

>  <r_epik_Charging_Adjusted_Penalty>  (1) 
0.021675413420737664

>  <r_epik_Ionization_Penalty>  (1) 
0.0077503222149327006

>  <r_epik_Ionization_Penalty_Charging>  (1) 
0

>  <r_epik_Ionization_Penalty_Neutral>  (1) 
0.0077503222149327006

>  <r_epik_State_Penalty>  (1) 
0.021675413420737664

>  <r_glide_ring_energy>  (1) 
0

>  <r_i_docking_score>  (1) 
-6.8018483181162033

>  <r_i_glide_ecoul>  (1) 
-3.008001129574811

>  <r_i_glide_eff_state_penalty>  (1) 
0.021675413420737664

>  <r_i_glide_einternal>  (1) 
25.104088519231098

>  <r_i_glide_emodel>  (1) 
-51.387682505637841

>  <r_i_glide_emodel_strain>  (1) 
5.605397197548136

>  <r_i_glide_energy>  (1) 
-51.064567644175163

>  <r_i_glide_erotb>  (1) 
0.57664372935484776

>  <r_i_glide_esite>  (1) 
0

>  <r_i_glide_evdw>  (1) 
-48.056566514600355

>  <r_i_glide_gscore>  (1) 
-6.823523731536941

>  <r_i_glide_gscore_strain>  (1) 
0.40134929938703401

>  <r_i_glide_hbond>  (1) 
-0.082730935767988151

>  <r_i_glide_ligand_efficiency>  (1) 
-0.2000543622975354

>  <r_i_glide_ligand_efficiency_ln>  (1) 
-1.502719078854861

>  <r_i_glide_ligand_efficiency_sa>  (1) 
-0.64809847299613699

>  <r_i_glide_lipo>  (1) 
-3.5631720076994107

>  <r_i_glide_metal>  (1) 
-0

>  <r_i_glide_rewards>  (1) 
-1.3015853216451836

>  <r_lp_Energy>  (1) 
18.856047999999998

>  <s_epik_Chemistry_Notes>  (1) 
This compound contains an acetal/aminal-like group ( X-CH(R)-Y where X, Y are N, S, or O) that may be acid/base labile, releasing an aldehyde.

>  <s_epik_cmdline>  (1) 
J2VwaWtfcHl0aG9uJywgJy1waHQnLCAnMS4wJywgJy1waCcsICc3LjQnLCAnLXRuJywgJzgnLCAnLW1hJywgJzUwMCcsICctaW1hZScsICc8aW5maWxlLm1hZT4nLCAnLW9tYWUnLCAnPG91dGZpbGUubWFlPic=

>  <s_epik_input>  (1) 
W0NIMl0xW0NIMl1bQ0hdKEYpW0NIMl1bQ0gyXU4xUyg9TykoPU8pW05IXVtOSF1bQ0BASF0oW0NIM10pQyg9W0NIMl0pW0NAQEhdKFtDSDNdKVtDQEBIXTJOKFtDQEBIXShbQ0gzXSlbQ0BIXShTMilPW0NIM10pW0NIMl1jM1tjSF1bY0hdYyhDbClbY0hdW2NIXTM=

>  <s_glide_docking_method>  (1) 
confgen

>  <s_i_glide_gridfile>  (1) 
gpcr_5ht2c_6bqh_protein_autoprepared_prepared

>  <s_lp_Force_Field>  (1) 
S-OPLS

>  <s_lp_Variant>  (1) 
DiffSBDD_22_num_sample_50-1

>  <s_m_source_file>  (1) 
generated__ligand_DiffSBDD_2026-05-06_prepared.sdf

>  <GenAI_Model>  (1) 
DiffSBDD

>  <Protein>  (1) 
GPCR_5HT2C

$$$$
DiffSBDD_13_num_sample_50
     RDKit          3D

  0  0  0  0  0  0  0  0  0  0999 V3000
M  V30 BEGIN CTAB
M  V30 COUNTS 68 71 0 0 1
M  V30 BEGIN ATOM
M  V30 1 C 40.357521 28.127149 59.176289 0
M  V30 2 C 38.081460 25.111550 56.246019 0
M  V30 3 N 37.928825 34.416727 61.068486 0
M  V30 4 C 38.607254 27.195361 54.445908 0
M  V30 5 C 35.867461 33.760003 61.342850 0
M  V30 6 N 39.251465 29.660865 54.068765 0 CFG=1 CHG=1
M  V30 7 F 36.728493 23.337599 56.653699 0
M  V30 8 C 39.142815 32.269617 61.193714 0
M  V30 9 C 40.115214 30.105109 51.750876 0 CFG=1
M  V30 10 C 40.503853 29.326362 62.129355 0
M  V30 11 C 39.702033 30.700148 53.103895 0
M  V30 12 C 37.837705 33.088373 61.221489 0
M  V30 13 C 39.287521 29.013446 59.861617 0 CFG=1
M  V30 14 N 38.925921 35.091820 61.800585 0
M  V30 15 N 39.258861 29.047327 51.281710 0
M  V30 16 O 40.259567 32.779014 61.053438 0
M  V30 17 O 39.740077 27.034606 58.530027 0
M  V30 18 C 38.836404 28.338926 53.489770 0 CFG=1
M  V30 19 C 38.597046 29.930175 57.620968 0
M  V30 20 C 37.748916 24.018312 57.217067 0
M  V30 21 C 39.685283 26.495309 55.036817 0
M  V30 22 C 40.171375 30.984967 50.529238 0
M  V30 23 C 39.419510 25.445597 55.945318 0
M  V30 24 C 39.802513 29.772905 55.443139 0
M  V30 25 N 36.716049 32.510204 61.368905 0
M  V30 26 C 40.205008 29.928281 49.437036 0
M  V30 27 C 37.303438 26.828181 54.739159 0
M  V30 28 C 37.043145 25.799072 55.635811 0
M  V30 29 O 36.679016 34.989332 61.185270 0
M  V30 30 C 38.672550 30.238316 56.347138 0
M  V30 31 C 39.918102 30.002294 60.878891 0 CFG=1
M  V30 32 O 38.929903 30.936520 61.318581 0
M  V30 33 C 39.467229 27.917687 52.163008 0
M  V30 34 C 38.352051 29.763399 58.902321 0
M  V30 35 O 39.867765 28.695760 50.044554 0
M  V30 36 H 41.047102 27.709641 59.907351 0
M  V30 37 H 40.966974 28.695346 58.471231 0
M  V30 38 H 35.160925 33.710676 60.512880 0
M  V30 39 H 35.270516 33.844491 62.252806 0
M  V30 40 H 41.071675 29.640877 51.869626 0
M  V30 41 H 41.326185 28.652671 61.889462 0
M  V30 42 H 40.894526 30.068740 62.827241 0
M  V30 43 H 39.744445 28.745226 62.653329 0
M  V30 44 H 38.918490 31.451628 53.048207 0
M  V30 45 H 40.577115 31.223894 53.481433 0
M  V30 46 H 38.638927 28.346622 60.429991 0
M  V30 47 H 39.809286 34.594451 61.688766 0
M  V30 48 H 39.027834 36.029386 61.418167 0
M  V30 49 H 39.146073 27.364074 57.872021 0
M  V30 50 H 37.823122 28.604269 53.179200 0
M  V30 51 H 38.592670 23.371394 57.453944 0
M  V30 52 H 37.376538 24.445253 58.149361 0
M  V30 53 H 40.701262 26.765448 54.805354 0
M  V30 54 H 39.286055 31.612963 50.428475 0
M  V30 55 H 41.053046 31.621421 50.497132 0
M  V30 56 H 40.234443 24.909758 56.411367 0
M  V30 57 H 40.582897 30.533650 55.453415 0
M  V30 58 H 40.273740 28.866155 55.814201 0
M  V30 59 H 41.196505 29.845055 48.994221 0
M  V30 60 H 39.468313 30.134340 48.662077 0
M  V30 61 H 36.483698 27.357390 54.278612 0
M  V30 62 H 36.022886 25.535984 55.863757 0
M  V30 63 H 37.909980 30.853263 55.886797 0
M  V30 64 H 40.728753 30.521208 60.367473 0
M  V30 65 H 38.928975 27.061801 51.752004 0
M  V30 66 H 40.510530 27.621446 52.253466 0
M  V30 67 H 37.450795 30.168228 59.341225 0
M  V30 68 H 38.327226 30.013981 54.268971 0
M  V30 END ATOM
M  V30 BEGIN BOND
M  V30 1 1 11 6
M  V30 2 1 11 9
M  V30 3 1 12 3
M  V30 4 1 12 8
M  V30 5 1 13 1
M  V30 6 1 14 3
M  V30 7 1 15 9
M  V30 8 2 16 8
M  V30 9 1 17 1
M  V30 10 1 18 4
M  V30 11 1 18 6
M  V30 12 1 20 2
M  V30 13 1 20 7
M  V30 14 1 21 4
M  V30 15 1 22 9
M  V30 16 1 23 2
M  V30 17 2 23 21
M  V30 18 1 24 6
M  V30 19 1 25 5
M  V30 20 2 25 12
M  V30 21 1 26 22
M  V30 22 2 27 4
M  V30 23 2 28 2
M  V30 24 1 28 27
M  V30 25 1 29 3
M  V30 26 1 29 5
M  V30 27 2 30 19
M  V30 28 1 30 24
M  V30 29 1 31 10
M  V30 30 1 31 13
M  V30 31 1 32 8
M  V30 32 1 32 31
M  V30 33 1 33 15
M  V30 34 1 33 18
M  V30 35 1 34 13
M  V30 36 2 34 19
M  V30 37 1 35 15
M  V30 38 1 35 26
M  V30 39 1 36 1
M  V30 40 1 37 1
M  V30 41 1 38 5
M  V30 42 1 39 5
M  V30 43 1 9 40 CFG=1
M  V30 44 1 41 10
M  V30 45 1 42 10
M  V30 46 1 43 10
M  V30 47 1 44 11
M  V30 48 1 45 11
M  V30 49 1 13 46 CFG=1
M  V30 50 1 47 14
M  V30 51 1 48 14
M  V30 52 1 49 17
M  V30 53 1 18 50 CFG=3
M  V30 54 1 51 20
M  V30 55 1 52 20
M  V30 56 1 53 21
M  V30 57 1 54 22
M  V30 58 1 55 22
M  V30 59 1 56 23
M  V30 60 1 57 24
M  V30 61 1 58 24
M  V30 62 1 59 26
M  V30 63 1 60 26
M  V30 64 1 61 27
M  V30 65 1 62 28
M  V30 66 1 63 30
M  V30 67 1 31 64 CFG=3
M  V30 68 1 65 33
M  V30 69 1 66 33
M  V30 70 1 67 34
M  V30 71 1 6 68 CFG=1
M  V30 END BOND
M  V30 END CTAB
M  END
>  <i_epik_Tot_Q>  (1) 
1

>  <i_epik_Tot_abs_Q>  (1) 
1

>  <i_i_glide_confnum>  (1) 
37

>  <i_i_glide_lignum>  (1) 
43

>  <i_i_glide_posenum>  (1) 
262

>  <i_i_glide_rotatable_bonds>  (1) 
11

>  <i_lp_mmshare_version>  (1) 
72125

>  <i_m_source_file_index>  (1) 
14

>  <i_f3d_flags>  (1) 
0

>  <num_sample>  (1) 
50

>  <b_lp_Chiralities_Consistent>  (1) 
1

>  <r_epik_Charging_Adjusted_Penalty>  (1) 
1.4651263053542571

>  <r_epik_Ionization_Penalty>  (1) 
0.72306607658712641

>  <r_epik_Ionization_Penalty_Charging>  (1) 
0.72300917426663169

>  <r_epik_Ionization_Penalty_Neutral>  (1) 
5.6902320494737884e-05

>  <r_epik_State_Penalty>  (1) 
0.74211713108762534

>  <r_glide_ring_energy>  (1) 
0

>  <r_i_docking_score>  (1) 
-6.8003074397509868

>  <r_i_glide_ecoul>  (1) 
-2.1798017220190742

>  <r_i_glide_eff_state_penalty>  (1) 
0.74211713108762534

>  <r_i_glide_einternal>  (1) 
5.6047063237433115

>  <r_i_glide_emodel>  (1) 
-64.097941665600487

>  <r_i_glide_emodel_strain>  (1) 
7.7150531644389417

>  <r_i_glide_energy>  (1) 
-44.597486056760218

>  <r_i_glide_erotb>  (1) 
0.76112016271400151

>  <r_i_glide_esite>  (1) 
0

>  <r_i_glide_evdw>  (1) 
-42.417684334741146

>  <r_i_glide_gscore>  (1) 
-7.5424245708386124

>  <r_i_glide_gscore_strain>  (1) 
0.92876329110973543

>  <r_i_glide_hbond>  (1) 
0

>  <r_i_glide_ligand_efficiency>  (1) 
-0.19429449827859963

>  <r_i_glide_ligand_efficiency_ln>  (1) 
-1.4928184077173596

>  <r_i_glide_ligand_efficiency_sa>  (1) 
-0.63555018757412229

>  <r_i_glide_lipo>  (1) 
-4.593413381960989

>  <r_i_glide_metal>  (1) 
-0

>  <r_i_glide_rewards>  (1) 
-2.191040167661443

>  <r_lp_Energy>  (1) 
-4.4146960000000002

>  <s_epik_Chemistry_Notes>  (1) 
This compound has an ester and may undergo hydrolysis at high or low pH. This compound has an imine and may undergo hydrolysis. This compound contains an acetal/aminal-like group ( X-CH(R)-Y where X, Y are N, S, or O) that may be acid/base labile, releasing an aldehyde. This compound has a N-S or N-O group and may undergo hydrolysis at high or low pH.

>  <s_epik_cmdline>  (1) 
J2VwaWtfcHl0aG9uJywgJy1waHQnLCAnMS4wJywgJy1waCcsICc3LjQnLCAnLXRuJywgJzgnLCAnLW1hJywgJzUwMCcsICctaW1hZScsICc8aW5maWxlLm1hZT4nLCAnLW9tYWUnLCAnPG91dGZpbGUubWFlPic=

>  <s_epik_input>  (1) 
TzFbQ0gyXU49QyhOMVtOSDJdKUMoPU8pT1tDQEBIXShbQ0gzXSlbQ0BIXShbQ0gyXVtPSF0pW0NIXT1DPVtDSF1bQ0gyXU4oW0NIMl0yKVtDQEhdKGMoW2NIXVtjSF0zKVtjSF1bY0hdYzNbQ0gyXUYpW0NIMl1OKFtDQEhdMjQpT1tDSDJdW0NIMl00

>  <s_glide_docking_method>  (1) 
confgen

>  <s_i_glide_gridfile>  (1) 
gpcr_5ht2c_6bqh_protein_autoprepared_prepared

>  <s_lp_Force_Field>  (1) 
S-OPLS

>  <s_lp_Variant>  (1) 
DiffSBDD_13_num_sample_50-2

>  <s_m_source_file>  (1) 
generated__ligand_DiffSBDD_2026-05-06_prepared.sdf

>  <GenAI_Model>  (1) 
DiffSBDD

>  <Protein>  (1) 
GPCR_5HT2C

$$$$
DiffSBDD_5_num_sample_50
     RDKit          3D

  0  0  0  0  0  0  0  0  0  0999 V3000
M  V30 BEGIN CTAB
M  V30 COUNTS 80 82 0 0 1
M  V30 BEGIN ATOM
M  V30 1 C 37.860888 31.209155 59.466830 0
M  V30 2 C 38.264825 30.664105 57.120229 0 CFG=2
M  V30 3 N 40.251100 36.555753 63.687887 0
M  V30 4 F 37.067420 23.293232 55.053495 0
M  V30 5 C 37.777919 34.325468 60.658086 0
M  V30 6 N 38.411237 31.999084 60.331553 0 CHG=1
M  V30 7 C 37.290508 36.851120 61.234865 0 CFG=1
M  V30 8 C 37.927242 24.634859 56.812618 0 CFG=2
M  V30 9 C 38.488489 30.087464 54.714218 0
M  V30 10 C 37.450453 32.868775 61.037615 0 CFG=2
M  V30 11 N 36.565817 31.323009 59.453473 0
M  V30 12 C 37.076979 29.514389 54.489958 0
M  V30 13 C 39.316399 28.004817 57.914717 0 CFG=2
M  V30 14 C 39.454964 29.599599 53.632862 0
M  V30 15 N 40.023434 25.722995 57.445095 0 CHG=1
M  V30 16 C 38.885006 36.817898 63.250872 0
M  V30 17 C 38.467112 32.183674 56.909567 0
M  V30 18 C 36.050662 32.323147 60.405658 0
M  V30 19 C 38.637981 30.289160 58.566750 0 CFG=2
M  V30 20 C 39.354477 24.947053 56.378711 0
M  V30 21 O 40.292663 34.384749 63.053176 0
M  V30 22 C 36.916669 24.463109 55.665688 0
M  V30 23 C 42.233517 35.233269 64.166035 0
M  V30 24 C 40.835709 35.356227 63.580532 0
M  V30 25 S 37.467265 26.005290 57.851039 0
M  V30 26 C 38.365290 28.819470 58.825385 0
M  V30 27 C 39.170688 28.397700 56.417418 0
M  V30 28 C 35.800584 38.688298 61.624359 0
M  V30 29 O 36.426268 37.530646 62.143970 0
M  V30 30 O 39.067414 38.438859 61.453501 0
M  V30 31 N 39.005277 29.857073 56.102935 0 CFG=2 CHG=1
M  V30 32 C 38.738297 37.092646 61.740562 0 CFG=2
M  V30 33 N 39.047926 26.574636 58.111204 0
M  V30 34 C 36.813034 35.371345 61.241212 0
M  V30 35 H 37.204283 30.440619 57.016536 0
M  V30 36 H 40.763718 37.316748 64.128092 0
M  V30 37 H 37.823120 34.439611 59.574168 0
M  V30 38 H 38.788190 34.500930 61.012166 0
M  V30 39 H 37.192488 37.228519 60.215026 0
M  V30 40 H 37.917387 23.749619 57.451651 0
M  V30 41 H 38.430149 31.157585 54.530197 0
M  V30 42 H 37.504499 32.705498 62.114553 0
M  V30 43 H 35.958789 30.840505 58.799482 0
M  V30 44 H 36.821841 29.621398 53.453507 0
M  V30 45 H 36.989964 28.444589 54.653122 0
M  V30 46 H 36.309107 30.027312 55.069755 0
M  V30 47 H 40.340422 28.207225 58.232651 0
M  V30 48 H 39.124306 29.924564 52.645279 0
M  V30 49 H 40.449589 30.021416 53.783103 0
M  V30 50 H 39.492695 28.511405 53.603498 0
M  V30 51 H 40.778818 26.293272 57.088461 0
M  V30 52 H 38.474624 37.621423 63.850692 0
M  V30 53 H 38.267382 35.975180 63.525708 0
M  V30 54 H 38.060592 32.765009 57.734691 0
M  V30 55 H 39.520650 32.446179 56.818059 0
M  V30 56 H 37.942749 32.555846 56.030362 0
M  V30 57 H 35.410324 31.855055 61.153878 0
M  V30 58 H 35.488421 33.096583 59.880387 0
M  V30 59 H 39.700806 30.421384 58.744038 0
M  V30 60 H 39.867398 24.021429 56.218417 0
M  V30 61 H 39.368632 25.518901 55.450482 0
M  V30 62 H 35.891010 24.478629 56.034204 0
M  V30 63 H 37.013739 25.244399 54.911229 0
M  V30 64 H 42.846864 36.081533 63.860056 0
M  V30 65 H 42.178629 35.232593 65.255576 0
M  V30 66 H 42.702226 34.302218 63.852137 0
M  V30 67 H 38.539203 28.579733 59.875606 0
M  V30 68 H 37.313996 28.621360 58.621056 0
M  V30 69 H 40.036892 28.032219 55.864560 0
M  V30 70 H 38.329881 27.841330 56.026533 0
M  V30 71 H 35.199075 39.156179 62.402491 0
M  V30 72 H 36.530181 39.419461 61.277205 0
M  V30 73 H 35.131166 38.421420 60.807198 0
M  V30 74 H 38.910337 38.597040 60.535270 0
M  V30 75 H 39.441787 36.488245 61.171237 0
M  V30 76 H 36.556089 35.084934 62.253511 0
M  V30 77 H 35.876371 35.300582 60.687718 0
M  V30 78 H 40.368980 25.097766 58.161078 0
M  V30 79 H 39.406672 32.057932 60.491386 0
M  V30 80 H 39.938832 30.241757 56.113144 0
M  V30 END ATOM
M  V30 BEGIN BOND
M  V30 1 2 6 1
M  V30 2 1 10 5
M  V30 3 1 10 6
M  V30 4 1 11 1
M  V30 5 1 12 9
M  V30 6 1 14 9
M  V30 7 1 16 3
M  V30 8 1 17 2
M  V30 9 1 18 10
M  V30 10 1 18 11
M  V30 11 1 19 1
M  V30 12 1 19 2
M  V30 13 1 20 8
M  V30 14 1 20 15
M  V30 15 1 22 4
M  V30 16 1 22 8
M  V30 17 1 24 3
M  V30 18 2 24 21
M  V30 19 1 24 23
M  V30 20 1 25 8
M  V30 21 1 26 13
M  V30 22 1 26 19
M  V30 23 1 27 13
M  V30 24 1 29 7
M  V30 25 1 29 28
M  V30 26 1 31 2
M  V30 27 1 31 9
M  V30 28 1 31 27
M  V30 29 1 32 7
M  V30 30 1 32 16
M  V30 31 1 32 30
M  V30 32 1 33 13
M  V30 33 1 33 15
M  V30 34 1 33 25
M  V30 35 1 34 5
M  V30 36 1 34 7
M  V30 37 1 2 35 CFG=1
M  V30 38 1 36 3
M  V30 39 1 37 5
M  V30 40 1 38 5
M  V30 41 1 7 39 CFG=3
M  V30 42 1 8 40 CFG=1
M  V30 43 1 41 9
M  V30 44 1 10 42 CFG=1
M  V30 45 1 43 11
M  V30 46 1 44 12
M  V30 47 1 45 12
M  V30 48 1 46 12
M  V30 49 1 13 47 CFG=1
M  V30 50 1 48 14
M  V30 51 1 49 14
M  V30 52 1 50 14
M  V30 53 1 51 15
M  V30 54 1 52 16
M  V30 55 1 53 16
M  V30 56 1 54 17
M  V30 57 1 55 17
M  V30 58 1 56 17
M  V30 59 1 57 18
M  V30 60 1 58 18
M  V30 61 1 19 59 CFG=3
M  V30 62 1 60 20
M  V30 63 1 61 20
M  V30 64 1 62 22
M  V30 65 1 63 22
M  V30 66 1 64 23
M  V30 67 1 65 23
M  V30 68 1 66 23
M  V30 69 1 67 26
M  V30 70 1 68 26
M  V30 71 1 69 27
M  V30 72 1 70 27
M  V30 73 1 71 28
M  V30 74 1 72 28
M  V30 75 1 73 28
M  V30 76 1 74 30
M  V30 77 1 32 75 CFG=3
M  V30 78 1 76 34
M  V30 79 1 77 34
M  V30 80 1 78 15
M  V30 81 1 79 6
M  V30 82 1 31 80 CFG=3
M  V30 END BOND
M  V30 END CTAB
M  END
>  <i_epik_Tot_Q>  (1) 
3

>  <i_epik_Tot_abs_Q>  (1) 
3

>  <i_i_glide_confnum>  (1) 
1632

>  <i_i_glide_lignum>  (1) 
15

>  <i_i_glide_posenum>  (1) 
373

>  <i_i_glide_rotatable_bonds>  (1) 
13

>  <i_lp_mmshare_version>  (1) 
72125

>  <i_m_source_file_index>  (1) 
6

>  <i_f3d_flags>  (1) 
0

>  <num_sample>  (1) 
50

>  <b_lp_Chiralities_Consistent>  (1) 
1

>  <r_epik_Charging_Adjusted_Penalty>  (1) 
0.16301919670703535

>  <r_epik_Ionization_Penalty>  (1) 
0.082191666583868089

>  <r_epik_Ionization_Penalty_Charging>  (1) 
0.082191230012028396

>  <r_epik_Ionization_Penalty_Neutral>  (1) 
4.3657183969654913e-07

>  <r_epik_State_Penalty>  (1) 
0.080827966695006942

>  <r_glide_ring_energy>  (1) 
0

>  <r_i_docking_score>  (1) 
-6.7942413209176866

>  <r_i_glide_ecoul>  (1) 
-7.6448686235108783

>  <r_i_glide_eff_state_penalty>  (1) 
0.080827966695006942

>  <r_i_glide_einternal>  (1) 
16.449108858090796

>  <r_i_glide_emodel>  (1) 
-52.146465360173046

>  <r_i_glide_emodel_strain>  (1) 
2.9952712383327338

>  <r_i_glide_energy>  (1) 
-37.904256967084194

>  <r_i_glide_erotb>  (1) 
0.63983490757673345

>  <r_i_glide_esite>  (1) 
-0.14216782667534891

>  <r_i_glide_evdw>  (1) 
-30.259388343573317

>  <r_i_glide_gscore>  (1) 
-6.8750692876126935

>  <r_i_glide_gscore_strain>  (1) 
0

>  <r_i_glide_hbond>  (1) 
-0.36728477996348391

>  <r_i_glide_ligand_efficiency>  (1) 
-0.19983062708581431

>  <r_i_glide_ligand_efficiency_ln>  (1) 
-1.5010384798046645

>  <r_i_glide_ligand_efficiency_sa>  (1) 
-0.647373657763884

>  <r_i_glide_lipo>  (1) 
-3.3646879808641867

>  <r_i_glide_metal>  (1) 
-0

>  <r_i_glide_rewards>  (1) 
-0.98106389698110852

>  <r_lp_Energy>  (1) 
42.756794999999997

>  <s_epik_Chemistry_Notes>  (1) 
This compound has an imine and may undergo hydrolysis. This compound has a N-S or N-O group and may undergo hydrolysis at high or low pH.

>  <s_epik_cmdline>  (1) 
J2VwaWtfcHl0aG9uJywgJy1waHQnLCAnMS4wJywgJy1waCcsICc3LjQnLCAnLXRuJywgJzgnLCAnLW1hJywgJzUwMCcsICctaW1hZScsICc8aW5maWxlLm1hZT4nLCAnLW9tYWUnLCAnPG91dGZpbGUubWFlPic=

>  <s_epik_input>  (1) 
RltDSDJdW0NASF0xW0NIMl1bTkhdTihTMSlbQ0BASF0oW0NIMl1OMltDSF0oW0NIM10pW0NIM10pW0NIMl1bQ0BASF0oW0NASF0yW0NIM10pQzM9TltDQEhdKFtDSDJdW05IXTMpW0NIMl1bQ0gyXVtDQEBIXShPW0NIM10pW0NAQEhdKFtPSF0pW0NIMl1bTkhdQyg9TylbQ0gzXQ==

>  <s_glide_docking_method>  (1) 
confgen

>  <s_i_glide_gridfile>  (1) 
gpcr_5ht2c_6bqh_protein_autoprepared_prepared

>  <s_lp_Force_Field>  (1) 
S-OPLS

>  <s_lp_Variant>  (1) 
DiffSBDD_5_num_sample_50-2

>  <s_m_source_file>  (1) 
generated__ligand_DiffSBDD_2026-05-06_prepared.sdf

>  <GenAI_Model>  (1) 
DiffSBDD

>  <Protein>  (1) 
GPCR_5HT2C

$$$$
DiffSBDD_22_num_sample_50
     RDKit          3D

  0  0  0  0  0  0  0  0  0  0999 V3000
M  V30 BEGIN CTAB
M  V30 COUNTS 70 72 0 0 1
M  V30 BEGIN ATOM
M  V30 1 O 38.209741 32.470105 62.253481 0
M  V30 2 C 36.267156 23.097889 55.621792 0
M  V30 3 N 39.067342 31.934742 59.884027 0
M  V30 4 O 40.528482 33.277703 61.506364 0
M  V30 5 C 38.247637 36.212449 62.156526 0
M  V30 6 C 38.242081 27.349242 57.037333 0 CFG=2
M  V30 7 C 36.967011 34.414057 60.219377 0
M  V30 8 C 38.846647 28.074988 59.872504 0
M  V30 9 C 39.466990 27.635700 52.633103 0
M  V30 10 C 37.983504 28.858613 59.198666 0
M  V30 11 C 39.443958 28.652995 53.615230 0
M  V30 12 C 39.623900 30.000448 53.229573 0
M  V30 13 C 39.691247 25.384353 55.141335 0
M  V30 14 C 39.686840 27.956242 51.301231 0
M  V30 15 N 37.894104 31.413230 59.361578 0
M  V30 16 F 36.177600 36.457810 63.203116 0
M  V30 17 C 35.869942 30.161149 59.853285 0
M  V30 18 C 38.917952 35.725313 60.863785 0
M  V30 19 C 39.909047 29.276801 50.928233 0
M  V30 20 Cl 40.267324 29.621473 49.321385 0
M  V30 21 C 37.517923 28.535785 57.756430 0 CFG=1
M  V30 22 C 38.297871 26.066709 55.034454 0 CFG=2
M  V30 23 S 39.113503 32.998824 61.221457 0
M  V30 24 C 39.867423 30.308183 51.881879 0
M  V30 25 C 39.333392 28.298049 55.086500 0
M  V30 26 N 38.417151 34.397706 60.464385 0
M  V30 27 C 36.719889 36.172965 62.021375 0
M  V30 28 O 37.383293 23.917544 55.359676 0
M  V30 29 N 38.253071 27.423422 55.565642 0
M  V30 30 C 37.429810 29.808380 56.898233 0
M  V30 31 S 37.482517 25.730043 57.456864 0
M  V30 32 C 37.237687 25.272687 55.749000 0 CFG=1
M  V30 33 C 37.401862 30.131062 59.835305 0 CFG=1
M  V30 34 C 36.235274 34.803595 61.500137 0
M  V30 35 H 36.349787 22.174583 55.053790 0
M  V30 36 H 36.267425 22.807695 56.660864 0
M  V30 37 H 35.321421 23.580909 55.375860 0
M  V30 38 H 39.661943 32.283210 59.134375 0
M  V30 39 H 38.559897 37.236315 62.370235 0
M  V30 40 H 38.587645 35.615222 63.000805 0
M  V30 41 H 39.280007 27.303232 57.360927 0
M  V30 42 H 36.739058 35.125006 59.422583 0
M  V30 43 H 36.598432 33.454458 59.874095 0
M  V30 44 H 39.255997 27.180153 59.435435 0
M  V30 45 H 39.152155 28.326690 60.879092 0
M  V30 46 H 39.360878 26.610957 52.899700 0
M  V30 47 H 39.620411 30.785957 53.971149 0
M  V30 48 H 39.661736 24.421616 54.653595 0
M  V30 49 H 40.491147 25.926894 54.642396 0
M  V30 50 H 40.007648 25.229982 56.170909 0
M  V30 51 H 39.723177 27.172423 50.558127 0
M  V30 52 H 37.153746 32.112075 59.378449 0
M  V30 53 H 35.467417 29.156431 59.841169 0
M  V30 54 H 35.511690 30.673520 60.747500 0
M  V30 55 H 35.436394 30.693605 59.010374 0
M  V30 56 H 40.003191 35.714598 60.955042 0
M  V30 57 H 38.667701 36.422219 60.067762 0
M  V30 58 H 36.482847 28.221501 57.863658 0
M  V30 59 H 37.931525 26.058204 54.012333 0
M  V30 60 H 40.040138 31.331303 51.581219 0
M  V30 61 H 39.348941 29.243373 55.604332 0
M  V30 62 H 40.296045 27.885418 55.385631 0
M  V30 63 H 36.403930 36.961113 61.335606 0
M  V30 64 H 36.667411 30.421466 57.316195 0
M  V30 65 H 38.341160 30.406452 56.907202 0
M  V30 66 H 37.094477 29.650192 55.874281 0
M  V30 67 H 36.268282 25.653363 55.453424 0
M  V30 68 H 37.690661 30.078835 60.885572 0
M  V30 69 H 35.182571 34.790319 61.266298 0
M  V30 70 H 36.321099 34.029519 62.253553 0
M  V30 END ATOM
M  V30 BEGIN BOND
M  V30 1 2 10 8
M  V30 2 1 11 9
M  V30 3 2 12 11
M  V30 4 2 14 9
M  V30 5 1 15 3
M  V30 6 1 18 5
M  V30 7 1 19 14
M  V30 8 1 20 19
M  V30 9 1 21 6
M  V30 10 1 21 10
M  V30 11 1 22 13
M  V30 12 2 23 1
M  V30 13 1 23 3
M  V30 14 2 23 4
M  V30 15 1 24 12
M  V30 16 2 24 19
M  V30 17 1 25 11
M  V30 18 1 26 7
M  V30 19 1 26 18
M  V30 20 1 26 23
M  V30 21 1 27 5
M  V30 22 1 27 16
M  V30 23 1 28 2
M  V30 24 1 29 6
M  V30 25 1 29 22
M  V30 26 1 29 25
M  V30 27 1 30 21
M  V30 28 1 31 6
M  V30 29 1 32 22
M  V30 30 1 32 28
M  V30 31 1 32 31
M  V30 32 1 33 10
M  V30 33 1 33 15
M  V30 34 1 33 17
M  V30 35 1 34 7
M  V30 36 1 34 27
M  V30 37 1 35 2
M  V30 38 1 36 2
M  V30 39 1 37 2
M  V30 40 1 38 3
M  V30 41 1 39 5
M  V30 42 1 40 5
M  V30 43 1 6 41 CFG=1
M  V30 44 1 42 7
M  V30 45 1 43 7
M  V30 46 1 44 8
M  V30 47 1 45 8
M  V30 48 1 46 9
M  V30 49 1 47 12
M  V30 50 1 48 13
M  V30 51 1 49 13
M  V30 52 1 50 13
M  V30 53 1 51 14
M  V30 54 1 52 15
M  V30 55 1 53 17
M  V30 56 1 54 17
M  V30 57 1 55 17
M  V30 58 1 56 18
M  V30 59 1 57 18
M  V30 60 1 21 58 CFG=1
M  V30 61 1 22 59 CFG=3
M  V30 62 1 60 24
M  V30 63 1 61 25
M  V30 64 1 62 25
M  V30 65 1 63 27
M  V30 66 1 64 30
M  V30 67 1 65 30
M  V30 68 1 66 30
M  V30 69 1 32 67 CFG=3
M  V30 70 1 33 68 CFG=1
M  V30 71 1 69 34
M  V30 72 1 70 34
M  V30 END BOND
M  V30 END CTAB
M  END
>  <i_epik_Tot_Q>  (1) 
0

>  <i_epik_Tot_abs_Q>  (1) 
0

>  <i_i_glide_confnum>  (1) 
1545

>  <i_i_glide_lignum>  (1) 
61

>  <i_i_glide_posenum>  (1) 
153

>  <i_i_glide_rotatable_bonds>  (1) 
10

>  <i_lp_mmshare_version>  (1) 
72125

>  <i_m_source_file_index>  (1) 
23

>  <i_f3d_flags>  (1) 
0

>  <num_sample>  (1) 
50

>  <b_lp_Chiralities_Consistent>  (1) 
1

>  <r_epik_Charging_Adjusted_Penalty>  (1) 
0.021675413420737664

>  <r_epik_Ionization_Penalty>  (1) 
0.0077503222149327006

>  <r_epik_Ionization_Penalty_Charging>  (1) 
0

>  <r_epik_Ionization_Penalty_Neutral>  (1) 
0.0077503222149327006

>  <r_epik_State_Penalty>  (1) 
0.021675413420737664

>  <r_glide_ring_energy>  (1) 
0

>  <r_i_docking_score>  (1) 
-6.7931334137751946

>  <r_i_glide_ecoul>  (1) 
-1.7549618005677277

>  <r_i_glide_eff_state_penalty>  (1) 
0.021675413420737664

>  <r_i_glide_einternal>  (1) 
30.718258558513746

>  <r_i_glide_emodel>  (1) 
-31.241432386556909

>  <r_i_glide_emodel_strain>  (1) 
4.5140713832863213

>  <r_i_glide_energy>  (1) 
-32.65767982571046

>  <r_i_glide_erotb>  (1) 
0.57664372935484776

>  <r_i_glide_esite>  (1) 
-0.0076834981185338663

>  <r_i_glide_evdw>  (1) 
-30.902718025142729

>  <r_i_glide_gscore>  (1) 
-6.8148088271959324

>  <r_i_glide_gscore_strain>  (1) 
0.12851784582158032

>  <r_i_glide_hbond>  (1) 
0

>  <r_i_glide_ligand_efficiency>  (1) 
-0.19979804158162337

>  <r_i_glide_ligand_efficiency_ln>  (1) 
-1.5007937120411452

>  <r_i_glide_ligand_efficiency_sa>  (1) 
-0.6472680933799565

>  <r_i_glide_lipo>  (1) 
-4.4619969648912576

>  <r_i_glide_metal>  (1) 
-0

>  <r_i_glide_rewards>  (1) 
-1.2419097680202729

>  <r_lp_Energy>  (1) 
18.856047999999998

>  <s_epik_Chemistry_Notes>  (1) 
This compound contains an acetal/aminal-like group ( X-CH(R)-Y where X, Y are N, S, or O) that may be acid/base labile, releasing an aldehyde.

>  <s_epik_cmdline>  (1) 
J2VwaWtfcHl0aG9uJywgJy1waHQnLCAnMS4wJywgJy1waCcsICc3LjQnLCAnLXRuJywgJzgnLCAnLW1hJywgJzUwMCcsICctaW1hZScsICc8aW5maWxlLm1hZT4nLCAnLW9tYWUnLCAnPG91dGZpbGUubWFlPic=

>  <s_epik_input>  (1) 
W0NIMl0xW0NIMl1bQ0hdKEYpW0NIMl1bQ0gyXU4xUyg9TykoPU8pW05IXVtOSF1bQ0BASF0oW0NIM10pQyg9W0NIMl0pW0NAQEhdKFtDSDNdKVtDQEBIXTJOKFtDQEBIXShbQ0gzXSlbQ0BIXShTMilPW0NIM10pW0NIMl1jM1tjSF1bY0hdYyhDbClbY0hdW2NIXTM=

>  <s_glide_docking_method>  (1) 
confgen

>  <s_i_glide_gridfile>  (1) 
gpcr_5ht2c_6bqh_protein_autoprepared_prepared

>  <s_lp_Force_Field>  (1) 
S-OPLS

>  <s_lp_Variant>  (1) 
DiffSBDD_22_num_sample_50-1

>  <s_m_source_file>  (1) 
generated__ligand_DiffSBDD_2026-05-06_prepared.sdf

>  <GenAI_Model>  (1) 
DiffSBDD

>  <Protein>  (1) 
GPCR_5HT2C

$$$$
DiffSBDD_17_num_sample_50
     RDKit          3D

  0  0  0  0  0  0  0  0  0  0999 V3000
M  V30 BEGIN CTAB
M  V30 COUNTS 67 69 0 0 1
M  V30 BEGIN ATOM
M  V30 1 C 39.014253 31.754677 55.438073 0
M  V30 2 S 38.041171 36.015704 61.054412 0
M  V30 3 C 37.268768 25.215155 54.648529 0
M  V30 4 O 39.784335 28.911036 60.785450 0
M  V30 5 C 39.855746 29.065252 59.571299 0
M  V30 6 C 37.381497 25.255597 57.453463 0
M  V30 7 N 38.999154 29.936574 58.923905 0
M  V30 8 C 37.972041 30.976931 61.195957 0 CFG=2
M  V30 9 O 36.835535 31.652248 61.752662 0
M  V30 10 C 40.231839 33.435031 63.019640 0
M  V30 11 C 40.215103 34.947166 63.230192 0
M  V30 12 C 38.597158 31.490227 56.894686 0
M  V30 13 C 39.254272 31.557822 61.828871 0
M  V30 14 O 37.867404 38.860063 60.109590 0 CHG=-1
M  V30 15 C 37.467400 26.427283 55.319961 0
M  V30 16 C 39.025656 30.099989 57.430678 0 CFG=2
M  V30 17 C 38.348115 28.921688 56.656497 0
M  V30 18 C 37.119677 24.021401 55.373947 0
M  V30 19 C 36.061029 32.513388 60.922651 0
M  V30 20 N 39.269009 33.026858 61.963095 0 CFG=2 CHG=1
M  V30 21 C 40.545949 35.681611 61.935928 0 CFG=1
M  V30 22 C 39.544051 33.691973 60.668278 0
M  V30 23 C 38.782233 37.494086 61.826146 0 CFG=2
M  V30 24 C 38.667407 38.821429 61.053502 0
M  V30 25 C 37.685167 27.771749 57.467210 0
M  V30 26 C 39.643643 35.219777 60.792828 0 CFG=1
M  V30 27 C 37.932276 30.703358 59.653290 0
M  V30 28 O 39.422066 39.754309 61.412042 0
M  V30 29 C 40.279624 37.173023 62.087476 0
M  V30 30 S 41.094040 28.103045 58.697285 0 CHG=-1
M  V30 31 C 37.512103 26.453811 56.727304 0
M  V30 32 C 37.181240 24.042007 56.777260 0
M  V30 33 H 38.762908 32.774777 55.148444 0
M  V30 34 H 38.507938 31.086931 54.742007 0
M  V30 35 H 40.089477 31.628157 55.303561 0
M  V30 36 H 37.217345 25.205404 53.571654 0
M  V30 37 H 37.428379 25.269730 58.529339 0
M  V30 38 H 37.867400 30.021429 61.678440 0
M  V30 39 H 41.238120 33.108634 62.751087 0
M  V30 40 H 39.980518 32.944549 63.960952 0
M  V30 41 H 39.226468 35.263289 63.550000 0
M  V30 42 H 40.908820 35.235275 64.021037 0
M  V30 43 H 39.059833 32.270135 57.500508 0
M  V30 44 H 37.517298 31.615694 56.979368 0
M  V30 45 H 39.323913 31.121819 62.826877 0
M  V30 46 H 40.160420 31.242105 61.314608 0
M  V30 47 H 37.566205 27.340654 54.754988 0
M  V30 48 H 40.066155 30.115006 57.119832 0
M  V30 49 H 37.611526 29.309761 55.953504 0
M  V30 50 H 39.134267 28.486190 56.038964 0
M  V30 51 H 36.960105 23.088455 54.853004 0
M  V30 52 H 35.282307 32.985248 61.522502 0
M  V30 53 H 35.563312 31.965881 60.121366 0
M  V30 54 H 36.655166 33.312221 60.485779 0
M  V30 55 H 41.593007 35.505068 61.685049 0
M  V30 56 H 40.465922 33.268549 60.285251 0
M  V30 57 H 38.787708 33.452749 59.927949 0
M  V30 58 H 38.273862 37.621421 62.781482 0
M  V30 59 H 38.244838 27.492030 58.347888 0
M  V30 60 H 36.720947 28.104662 57.853501 0
M  V30 61 H 40.047913 35.616606 59.863490 0
M  V30 62 H 37.805655 31.672894 59.192795 0
M  V30 63 H 37.004628 30.171211 59.442110 0
M  V30 64 H 40.610814 37.554602 63.053483 0
M  V30 65 H 40.920870 37.621434 61.334979 0
M  V30 66 H 37.067401 23.126832 57.338175 0
M  V30 67 H 38.346735 33.310369 62.264789 0
M  V30 END ATOM
M  V30 BEGIN BOND
M  V30 1 2 5 4
M  V30 2 1 7 5
M  V30 3 1 9 8
M  V30 4 1 11 10
M  V30 5 1 12 1
M  V30 6 1 13 8
M  V30 7 1 15 3
M  V30 8 1 16 7
M  V30 9 1 16 12
M  V30 10 1 17 16
M  V30 11 2 18 3
M  V30 12 1 19 9
M  V30 13 1 20 10
M  V30 14 1 20 13
M  V30 15 1 21 11
M  V30 16 1 22 20
M  V30 17 1 23 2
M  V30 18 1 24 14
M  V30 19 1 24 23
M  V30 20 1 25 17
M  V30 21 1 26 2
M  V30 22 1 26 21
M  V30 23 1 26 22
M  V30 24 1 27 7
M  V30 25 1 27 8
M  V30 26 2 28 24
M  V30 27 1 29 21
M  V30 28 1 29 23
M  V30 29 1 30 5
M  V30 30 1 31 6
M  V30 31 2 31 15
M  V30 32 1 31 25
M  V30 33 2 32 6
M  V30 34 1 32 18
M  V30 35 1 33 1
M  V30 36 1 34 1
M  V30 37 1 35 1
M  V30 38 1 36 3
M  V30 39 1 37 6
M  V30 40 1 8 38 CFG=1
M  V30 41 1 39 10
M  V30 42 1 40 10
M  V30 43 1 41 11
M  V30 44 1 42 11
M  V30 45 1 43 12
M  V30 46 1 44 12
M  V30 47 1 45 13
M  V30 48 1 46 13
M  V30 49 1 47 15
M  V30 50 1 16 48 CFG=3
M  V30 51 1 49 17
M  V30 52 1 50 17
M  V30 53 1 51 18
M  V30 54 1 52 19
M  V30 55 1 53 19
M  V30 56 1 54 19
M  V30 57 1 21 55 CFG=3
M  V30 58 1 56 22
M  V30 59 1 57 22
M  V30 60 1 23 58 CFG=1
M  V30 61 1 59 25
M  V30 62 1 60 25
M  V30 63 1 26 61 CFG=3
M  V30 64 1 62 27
M  V30 65 1 63 27
M  V30 66 1 64 29
M  V30 67 1 65 29
M  V30 68 1 66 32
M  V30 69 1 20 67 CFG=1
M  V30 END BOND
M  V30 END CTAB
M  END
>  <i_epik_Tot_Q>  (1) 
-1

>  <i_epik_Tot_abs_Q>  (1) 
3

>  <i_i_glide_confnum>  (1) 
305

>  <i_i_glide_lignum>  (1) 
49

>  <i_i_glide_posenum>  (1) 
146

>  <i_i_glide_rotatable_bonds>  (1) 
12

>  <i_lp_mmshare_version>  (1) 
72125

>  <i_m_source_file_index>  (1) 
18

>  <i_f3d_flags>  (1) 
0

>  <num_sample>  (1) 
50

>  <b_lp_Chiralities_Consistent>  (1) 
1

>  <r_epik_Charging_Adjusted_Penalty>  (1) 
0.068943464179595071

>  <r_epik_Ionization_Penalty>  (1) 
0.034590213650767733

>  <r_epik_Ionization_Penalty_Charging>  (1) 
0.034589667735814351

>  <r_epik_Ionization_Penalty_Neutral>  (1) 
5.4591495337813188e-07

>  <r_epik_State_Penalty>  (1) 
0.034353796443780713

>  <r_glide_ring_energy>  (1) 
0

>  <r_i_docking_score>  (1) 
-6.7919822515684709

>  <r_i_glide_ecoul>  (1) 
-7.2329631352546517

>  <r_i_glide_eff_state_penalty>  (1) 
0.034353796443780713

>  <r_i_glide_einternal>  (1) 
30.998339248062525

>  <r_i_glide_emodel>  (1) 
-35.982746117082101

>  <r_i_glide_emodel_strain>  (1) 
4.9434424522644775

>  <r_i_glide_energy>  (1) 
-33.488668971403783

>  <r_i_glide_erotb>  (1) 
0.61675831554288163

>  <r_i_glide_esite>  (1) 
0

>  <r_i_glide_evdw>  (1) 
-26.255705836149129

>  <r_i_glide_gscore>  (1) 
-6.8263360480122515

>  <r_i_glide_gscore_strain>  (1) 
0.23586061306611938

>  <r_i_glide_hbond>  (1) 
-0.47999999999999998

>  <r_i_glide_ligand_efficiency>  (1) 
-0.21224944536151472

>  <r_i_glide_ligand_efficiency_ln>  (1) 
-1.5209099685698695

>  <r_i_glide_ligand_efficiency_sa>  (1) 
-0.67384998569307075

>  <r_i_glide_lipo>  (1) 
-3.8783159481590976

>  <r_i_glide_metal>  (1) 
-0

>  <r_i_glide_rewards>  (1) 
-0.92290926636650128

>  <r_lp_Energy>  (1) 
36.015979000000002

>  <s_epik_cmdline>  (1) 
J2VwaWtfcHl0aG9uJywgJy1waHQnLCAnMS4wJywgJy1waCcsICc3LjQnLCAnLXRuJywgJzgnLCAnLW1hJywgJzUwMCcsICctaW1hZScsICc8aW5maWxlLm1hZT4nLCAnLW9tYWUnLCAnPG91dGZpbGUubWFlPic=

>  <s_epik_input>  (1) 
W2NIXTFbY0hdW2NIXVtjSF1bY0hdYzFbQ0gyXVtDSDJdW0NAQEhdKFtDSDJdW0NIM10pTihDKD1PKVtTSF0pW0NIMl1bQ0hdKE9bQ0gzXSlbQ0gyXU4oW0NIMl1bQ0gyXTIpW0NIMl1bQ0BIXShbQ0BIXTIzKVNbQ0BASF0oW0NIMl0zKUMoPU8pW09IXQ==

>  <s_glide_docking_method>  (1) 
confgen

>  <s_i_glide_gridfile>  (1) 
gpcr_5ht2c_6bqh_protein_autoprepared_prepared

>  <s_lp_Force_Field>  (1) 
S-OPLS

>  <s_lp_Variant>  (1) 
DiffSBDD_17_num_sample_50-2

>  <s_m_source_file>  (1) 
generated__ligand_DiffSBDD_2026-05-06_prepared.sdf

>  <GenAI_Model>  (1) 
DiffSBDD

>  <Protein>  (1) 
GPCR_5HT2C

$$$$
DiffSBDD_19_num_sample_50
     RDKit          3D

  0  0  0  0  0  0  0  0  0  0999 V3000
M  V30 BEGIN CTAB
M  V30 COUNTS 46 49 0 0 1
M  V30 BEGIN ATOM
M  V30 1 N 38.656677 31.867177 59.664973 0
M  V30 2 C 39.078367 27.537524 58.609596 0
M  V30 3 C 38.877541 32.696882 60.852347 0
M  V30 4 C 39.183274 28.858788 56.420132 0
M  V30 5 N 39.295095 27.666066 55.768942 0
M  V30 6 C 39.947733 26.475660 57.969728 0
M  V30 7 C 39.431927 28.873630 57.947843 0 CFG=1
M  V30 8 F 36.615855 33.003227 61.453494 0
M  V30 9 O 39.339275 29.845548 60.658914 0
M  V30 10 O 38.887154 29.904347 55.838903 0
M  V30 11 N 37.434227 34.412460 59.832703 0
M  V30 12 N 36.805198 24.547496 54.806910 0
M  V30 13 C 38.812324 25.177954 56.043067 0 CFG=2
M  V30 14 O 38.670589 29.949791 58.486235 0
M  V30 15 C 37.843486 24.460301 56.990806 0
M  V30 16 O 36.267520 35.221471 60.090012 0
M  V30 17 C 37.067428 33.523337 58.738619 0
M  V30 18 C 39.684389 26.399229 56.458709 0 CFG=1
M  V30 19 C 38.994831 27.560981 54.320441 0
M  V30 20 C 37.705080 33.673450 61.062143 0 CFG=2
M  V30 21 C 37.840212 25.441468 54.933888 0
M  V30 22 C 37.921290 26.518070 54.149413 0
M  V30 23 C 38.219019 32.556787 58.431967 0
M  V30 24 C 38.922300 30.487215 59.694689 0
M  V30 25 C 36.824133 24.021430 55.951083 0
M  V30 26 H 39.266896 27.553239 59.681678 0
M  V30 27 H 38.021048 27.309936 58.474209 0
M  V30 28 H 39.015342 32.100750 61.755200 0
M  V30 29 H 39.802589 33.255835 60.707140 0
M  V30 30 H 39.808208 25.512202 58.454473 0
M  V30 31 H 40.995548 26.730188 58.140162 0
M  V30 32 H 40.491892 29.091172 58.095944 0
M  V30 33 H 37.367787 25.134115 57.703385 0
M  V30 34 H 35.627030 34.562263 60.317766 0
M  V30 35 H 36.169400 32.955204 58.987845 0
M  V30 36 H 36.833064 34.111905 57.853195 0
M  V30 37 H 40.663782 26.187998 56.023663 0
M  V30 38 H 38.648170 28.493945 53.873942 0
M  V30 39 H 39.867403 27.234696 53.760307 0
M  V30 40 H 37.944511 34.382304 61.853592 0
M  V30 41 H 37.188322 26.684290 53.372125 0
M  V30 42 H 37.876345 31.918039 57.618020 0
M  V30 43 H 39.069431 33.113670 58.037413 0
M  V30 44 H 36.129873 23.234811 56.253486 0
M  V30 45 H 39.496563 24.421430 55.655679 0
M  V30 46 H 38.295706 23.621429 57.517551 0
M  V30 END ATOM
M  V30 BEGIN BOND
M  V30 1 1 3 1
M  V30 2 1 5 4
M  V30 3 1 6 2
M  V30 4 1 7 2
M  V30 5 1 7 4
M  V30 6 2 10 4
M  V30 7 1 14 7
M  V30 8 1 15 13
M  V30 9 1 16 11
M  V30 10 1 17 11
M  V30 11 1 18 5
M  V30 12 1 18 6
M  V30 13 1 18 13
M  V30 14 1 19 5
M  V30 15 1 20 3
M  V30 16 1 20 8
M  V30 17 1 20 11
M  V30 18 1 21 12
M  V30 19 1 21 13
M  V30 20 1 22 19
M  V30 21 2 22 21
M  V30 22 1 23 1
M  V30 23 1 23 17
M  V30 24 1 24 1
M  V30 25 2 24 9
M  V30 26 1 24 14
M  V30 27 2 25 12
M  V30 28 1 25 15
M  V30 29 1 26 2
M  V30 30 1 27 2
M  V30 31 1 28 3
M  V30 32 1 29 3
M  V30 33 1 30 6
M  V30 34 1 31 6
M  V30 35 1 7 32 CFG=3
M  V30 36 1 33 15
M  V30 37 1 34 16
M  V30 38 1 35 17
M  V30 39 1 36 17
M  V30 40 1 18 37 CFG=3
M  V30 41 1 38 19
M  V30 42 1 39 19
M  V30 43 1 20 40 CFG=1
M  V30 44 1 41 22
M  V30 45 1 42 23
M  V30 46 1 43 23
M  V30 47 1 44 25
M  V30 48 1 13 45 CFG=3
M  V30 49 1 46 15
M  V30 END BOND
M  V30 END CTAB
M  END
>  <i_epik_Tot_Q>  (1) 
0

>  <i_epik_Tot_abs_Q>  (1) 
0

>  <i_i_glide_confnum>  (1) 
8

>  <i_i_glide_lignum>  (1) 
55

>  <i_i_glide_posenum>  (1) 
94

>  <i_i_glide_rotatable_bonds>  (1) 
4

>  <i_lp_mmshare_version>  (1) 
72125

>  <i_m_source_file_index>  (1) 
20

>  <i_f3d_flags>  (1) 
0

>  <num_sample>  (1) 
50

>  <b_lp_Chiralities_Consistent>  (1) 
1

>  <r_epik_Charging_Adjusted_Penalty>  (1) 
0

>  <r_epik_Ionization_Penalty>  (1) 
0.00023690808741792311

>  <r_epik_Ionization_Penalty_Charging>  (1) 
0

>  <r_epik_Ionization_Penalty_Neutral>  (1) 
0.00023690808741792311

>  <r_epik_State_Penalty>  (1) 
-0

>  <r_glide_ring_energy>  (1) 
0.27322882293606887

>  <r_i_docking_score>  (1) 
-6.7817191909049965

>  <r_i_glide_ecoul>  (1) 
-0.42262056311792401

>  <r_i_glide_eff_state_penalty>  (1) 
-0

>  <r_i_glide_einternal>  (1) 
7.4039988180210843

>  <r_i_glide_emodel>  (1) 
-55.315105684036382

>  <r_i_glide_emodel_strain>  (1) 
0.35137518429449699

>  <r_i_glide_energy>  (1) 
-41.836376923415024

>  <r_i_glide_erotb>  (1) 
0.46110279215177946

>  <r_i_glide_esite>  (1) 
-0.017649047526391761

>  <r_i_glide_evdw>  (1) 
-41.4137563602971

>  <r_i_glide_gscore>  (1) 
-6.7817191909049965

>  <r_i_glide_gscore_strain>  (1) 
0

>  <r_i_glide_hbond>  (1) 
0

>  <r_i_glide_ligand_efficiency>  (1) 
-0.27126876763619984

>  <r_i_glide_ligand_efficiency_ln>  (1) 
-1.6074706799688421

>  <r_i_glide_ligand_efficiency_sa>  (1) 
-0.79319468839139273

>  <r_i_glide_lipo>  (1) 
-2.6617989009749605

>  <r_i_glide_metal>  (1) 
-0

>  <r_i_glide_rewards>  (1) 
-2.4292931320728801

>  <r_lp_Energy>  (1) 
47.112966999999998

>  <r_lp_tautomer_probability>  (1) 
1

>  <s_epik_Chemistry_Notes>  (1) 
This compound has an ester and may undergo hydrolysis at high or low pH. This compound has an imine and may undergo hydrolysis. This compound has a N-S or N-O group and may undergo hydrolysis at high or low pH.

>  <s_epik_cmdline>  (1) 
J2VwaWtfcHl0aG9uJywgJy1waHQnLCAnMS4wJywgJy1waCcsICc3LjQnLCAnLXRuJywgJzgnLCAnLW1hJywgJzUwMCcsICctaW1hZScsICc8aW5maWxlLm1hZT4nLCAnLW9tYWUnLCAnPG91dGZpbGUubWFlPic=

>  <s_epik_input>  (1) 
W0NIMl0xW0NIMl1OKFtPSF0pW0NAQEhdKEYpW0NIMl1OMUMoPU8pT1tDQEhdKEMyPU8pW0NIMl1bQ0gyXVtDQEBIXShOMjMpQz00QyhbQ0gyXVtDSDJdMyk9TltDSDJdW0NIXTQ=

>  <s_glide_docking_method>  (1) 
confgen

>  <s_i_glide_gridfile>  (1) 
gpcr_5ht2c_6bqh_protein_autoprepared_prepared

>  <s_lp_Force_Field>  (1) 
S-OPLS

>  <s_lp_Variant>  (1) 
DiffSBDD_19_num_sample_50-4

>  <s_m_source_file>  (1) 
generated__ligand_DiffSBDD_2026-05-06_prepared.sdf

>  <GenAI_Model>  (1) 
DiffSBDD

>  <Protein>  (1) 
GPCR_5HT2C

$$$$
DiffSBDD_28_num_sample_50
     RDKit          3D

  0  0  0  0  0  0  0  0  0  0999 V3000
M  V30 BEGIN CTAB
M  V30 COUNTS 94 99 0 0 1
M  V30 BEGIN ATOM
M  V30 1 C 38.103930 28.342605 52.412032 0
M  V30 2 C 37.112165 31.173558 59.184298 0
M  V30 3 O 44.260956 26.821430 65.567141 0
M  V30 4 C 41.140042 33.330899 64.544796 0 CFG=1
M  V30 5 C 36.982795 32.499873 59.924125 0 CFG=2
M  V30 6 C 42.550498 33.989099 66.598012 0
M  V30 7 C 38.943943 27.947853 56.719830 0
M  V30 8 O 43.168946 29.913488 64.870969 0
M  V30 9 C 39.188462 27.406911 51.920324 0
M  V30 10 C 43.031931 26.171811 65.803890 0 CFG=2
M  V30 11 C 40.340323 27.908878 57.016971 0
M  V30 12 N 39.150366 33.019767 61.308134 0
M  V30 13 C 41.326915 26.822152 67.375775 0
M  V30 14 C 38.598785 36.651588 61.667508 0
M  V30 15 C 42.258041 25.870540 68.124312 0
M  V30 16 C 38.534075 31.025820 59.718582 0 CFG=1
M  V30 17 C 38.337098 28.557603 57.788201 0
M  V30 18 O 38.441488 34.282459 61.455362 0
M  V30 19 O 44.324957 30.584593 65.453477 0
M  V30 20 O 35.772088 33.880240 61.453446 0
M  V30 21 C 38.264891 27.425456 55.481048 0
M  V30 22 C 42.169899 34.312142 65.147981 0
M  V30 23 C 40.681638 33.687701 63.114433 0 CFG=2
M  V30 24 C 40.877800 29.224950 65.287271 0
M  V30 25 O 41.639822 31.432796 65.837555 0
M  V30 26 N 39.305680 28.905814 58.713690 0
M  V30 27 C 40.536841 28.497463 58.232425 0
M  V30 28 C 38.148063 32.037775 60.830393 0 CFG=2
M  V30 29 C 40.134477 35.124048 62.995192 0
M  V30 30 C 42.684389 24.699989 65.782617 0
M  V30 31 C 35.623031 32.833753 60.525556 0
M  V30 32 C 39.384509 35.334734 61.666145 0 CFG=2
M  V30 33 O 40.347384 35.431808 60.653502 0
M  V30 34 O 40.322520 28.726245 61.836338 0
M  V30 35 N 42.072752 27.226174 66.166701 0 CFG=2 CHG=1
M  V30 36 C 40.214866 29.609091 60.987452 0
M  V30 37 C 39.057125 29.597840 59.986240 0 CFG=1
M  V30 38 C 43.177660 25.337288 67.057112 0 CFG=1
M  V30 39 C 39.593205 32.698233 62.658033 0
M  V30 40 C 42.063457 30.094645 65.744786 0 CFG=2
M  V30 41 C 38.415131 27.077445 53.172765 0
M  V30 42 C 41.267596 27.757710 65.043549 0
M  V30 43 O 41.694965 32.032280 64.469286 0
M  V30 44 O 39.139141 27.313130 54.369740 0
M  V30 45 H 37.171486 28.373113 51.853503 0
M  V30 46 H 38.415068 29.287879 52.853068 0
M  V30 47 H 36.429850 30.410166 59.561201 0
M  V30 48 H 37.067408 31.250173 58.099123 0
M  V30 49 H 44.581653 26.574031 64.710419 0
M  V30 50 H 40.267413 33.285597 65.195790 0
M  V30 51 H 37.332812 33.300956 59.268568 0
M  V30 52 H 43.067399 34.821435 67.053478 0
M  V30 53 H 41.670236 33.784904 67.207611 0
M  V30 54 H 43.220267 33.131317 66.657726 0
M  V30 55 H 40.219630 27.736106 52.027917 0
M  V30 56 H 38.976511 26.821404 51.027476 0
M  V30 57 H 41.121130 27.494828 56.396570 0
M  V30 58 H 41.067409 27.696685 67.970532 0
M  V30 59 H 40.410935 26.300955 67.093760 0
M  V30 60 H 38.102411 36.813262 60.709936 0
M  V30 61 H 37.829858 36.649477 62.440529 0
M  V30 62 H 39.252486 37.504883 61.852547 0
M  V30 63 H 42.852369 26.414710 68.859100 0
M  V30 64 H 41.725319 25.070302 68.638559 0
M  V30 65 H 39.170084 31.540560 59.003883 0
M  V30 66 H 37.297187 28.785100 57.970560 0
M  V30 67 H 44.788147 29.859594 65.847459 0
M  V30 68 H 36.676625 34.171912 61.413806 0
M  V30 69 H 37.803694 26.461521 55.699628 0
M  V30 70 H 37.467402 28.126189 55.235347 0
M  V30 71 H 43.067283 34.353291 64.530897 0
M  V30 72 H 41.755593 35.320141 65.147036 0
M  V30 73 H 41.538758 33.591764 62.445817 0
M  V30 74 H 40.085085 29.276287 66.035078 0
M  V30 75 H 40.449043 29.634806 64.372821 0
M  V30 76 H 41.441518 28.666793 58.797791 0
M  V30 77 H 37.728089 31.513907 61.691454 0
M  V30 78 H 39.467400 35.338073 63.825599 0
M  V30 79 H 40.943590 35.851476 63.079081 0
M  V30 80 H 43.362942 24.028919 65.261435 0
M  V30 81 H 41.633016 24.426847 65.726627 0
M  V30 82 H 34.921646 33.140408 59.748077 0
M  V30 83 H 35.187436 31.971205 61.031209 0
M  V30 84 H 40.760786 34.586377 60.590581 0
M  V30 85 H 40.917012 30.437096 60.886600 0
M  V30 86 H 38.267393 29.032582 60.478151 0
M  V30 87 H 44.168286 25.031046 67.390810 0
M  V30 88 H 39.958511 31.674896 62.709869 0
M  V30 89 H 38.737857 32.778595 63.321594 0
M  V30 90 H 42.352082 29.796903 66.753970 0
M  V30 91 H 37.707796 26.249879 53.182799 0
M  V30 92 H 40.386890 27.139598 64.863283 0
M  V30 93 H 41.863101 27.710256 64.129846 0
M  V30 94 H 42.685614 27.973778 66.454367 0
M  V30 END ATOM
M  V30 BEGIN BOND
M  V30 1 1 5 2
M  V30 2 1 9 1
M  V30 3 1 10 3 CFG=1
M  V30 4 1 11 7
M  V30 5 1 15 13
M  V30 6 1 16 2
M  V30 7 2 17 7
M  V30 8 1 18 12
M  V30 9 1 19 8
M  V30 10 1 21 7
M  V30 11 1 22 4
M  V30 12 1 22 6
M  V30 13 1 23 4
M  V30 14 1 26 17
M  V30 15 2 27 11
M  V30 16 1 27 26
M  V30 17 1 28 5
M  V30 18 1 28 12
M  V30 19 1 28 16
M  V30 20 1 29 23
M  V30 21 1 30 10
M  V30 22 1 31 5
M  V30 23 1 31 20
M  V30 24 1 32 14
M  V30 25 1 32 18
M  V30 26 1 32 29
M  V30 27 1 32 33 CFG=3
M  V30 28 1 35 10
M  V30 29 1 35 13
M  V30 30 2 36 34
M  V30 31 1 37 16
M  V30 32 1 37 26
M  V30 33 1 37 36
M  V30 34 1 38 10
M  V30 35 1 38 15
M  V30 36 1 38 30
M  V30 37 1 39 12
M  V30 38 1 39 23
M  V30 39 1 40 8
M  V30 40 1 40 24
M  V30 41 1 40 25
M  V30 42 1 41 1
M  V30 43 1 41 9
M  V30 44 1 42 24
M  V30 45 1 42 35
M  V30 46 1 43 4
M  V30 47 1 43 25
M  V30 48 1 44 21
M  V30 49 1 44 41
M  V30 50 1 45 1
M  V30 51 1 46 1
M  V30 52 1 47 2
M  V30 53 1 48 2
M  V30 54 1 49 3
M  V30 55 1 4 50 CFG=1
M  V30 56 1 5 51 CFG=3
M  V30 57 1 52 6
M  V30 58 1 53 6
M  V30 59 1 54 6
M  V30 60 1 55 9
M  V30 61 1 56 9
M  V30 62 1 57 11
M  V30 63 1 58 13
M  V30 64 1 59 13
M  V30 65 1 60 14
M  V30 66 1 61 14
M  V30 67 1 62 14
M  V30 68 1 63 15
M  V30 69 1 64 15
M  V30 70 1 16 65 CFG=3
M  V30 71 1 66 17
M  V30 72 1 67 19
M  V30 73 1 68 20
M  V30 74 1 69 21
M  V30 75 1 70 21
M  V30 76 1 71 22
M  V30 77 1 72 22
M  V30 78 1 23 73 CFG=3
M  V30 79 1 74 24
M  V30 80 1 75 24
M  V30 81 1 76 27
M  V30 82 1 28 77 CFG=1
M  V30 83 1 78 29
M  V30 84 1 79 29
M  V30 85 1 80 30
M  V30 86 1 81 30
M  V30 87 1 82 31
M  V30 88 1 83 31
M  V30 89 1 84 33
M  V30 90 1 85 36
M  V30 91 1 37 86 CFG=1
M  V30 92 1 38 87 CFG=1
M  V30 93 1 88 39
M  V30 94 1 89 39
M  V30 95 1 40 90 CFG=1
M  V30 96 1 91 41
M  V30 97 1 92 42
M  V30 98 1 93 42
M  V30 99 1 35 94 CFG=1
M  V30 END BOND
M  V30 END CTAB
M  END
>  <i_epik_Tot_Q>  (1) 
1

>  <i_epik_Tot_abs_Q>  (1) 
1

>  <i_i_glide_confnum>  (1) 
7156

>  <i_i_glide_lignum>  (1) 
72

>  <i_i_glide_posenum>  (1) 
200

>  <i_i_glide_rotatable_bonds>  (1) 
21

>  <i_lp_mmshare_version>  (1) 
72125

>  <i_m_source_file_index>  (1) 
29

>  <i_f3d_flags>  (1) 
2

>  <num_sample>  (1) 
50

>  <b_lp_Chiralities_Consistent>  (1) 
0

>  <r_epik_Charging_Adjusted_Penalty>  (1) 
1.2455417737221615

>  <r_epik_Ionization_Penalty>  (1) 
0.6411459992377706

>  <r_epik_Ionization_Penalty_Charging>  (1) 
0.62277088686108073

>  <r_epik_Ionization_Penalty_Neutral>  (1) 
0.018375112376689838

>  <r_epik_State_Penalty>  (1) 
0.62277088686108073

>  <r_glide_ring_energy>  (1) 
0

>  <r_i_docking_score>  (1) 
-6.7793613949996869

>  <r_i_glide_ecoul>  (1) 
-2.0796235905057134

>  <r_i_glide_eff_state_penalty>  (1) 
0.62277088686108073

>  <r_i_glide_einternal>  (1) 
30.885583131084928

>  <r_i_glide_emodel>  (1) 
-54.793955247183348

>  <r_i_glide_emodel_strain>  (1) 
3.1399933550376318

>  <r_i_glide_energy>  (1) 
-53.233230552977332

>  <r_i_glide_erotb>  (1) 
0.67661073285980611

>  <r_i_glide_esite>  (1) 
0

>  <r_i_glide_evdw>  (1) 
-51.153606962471621

>  <r_i_glide_gscore>  (1) 
-7.4021322818607675

>  <r_i_glide_gscore_strain>  (1) 
0

>  <r_i_glide_hbond>  (1) 
0

>  <r_i_glide_ligand_efficiency>  (1) 
-0.15407639534090198

>  <r_i_glide_ligand_efficiency_ln>  (1) 
-1.4170344224936953

>  <r_i_glide_ligand_efficiency_sa>  (1) 
-0.54394334580479375

>  <r_i_glide_lipo>  (1) 
-3.8036707339872922

>  <r_i_glide_metal>  (1) 
-0

>  <r_i_glide_rewards>  (1) 
-1.4054483940338436

>  <r_lp_Energy>  (1) 
40.866444999999999

>  <s_epik_Chemistry_Notes>  (1) 
This compound contains an acetal/aminal-like group ( X-CH(R)-Y where X, Y are N, S, or O) that may be acid/base labile, releasing an aldehyde. This compound has a N-S or N-O group and may undergo hydrolysis at high or low pH.

>  <s_epik_cmdline>  (1) 
J2VwaWtfcHl0aG9uJywgJy1waHQnLCAnMS4wJywgJy1waCcsICc3LjQnLCAnLXRuJywgJzgnLCAnLW1hJywgJzUwMCcsICctaW1hZScsICc8aW5maWxlLm1hZT4nLCAnLW9tYWUnLCAnPG91dGZpbGUubWFlPic=

>  <s_epik_input>  (1) 
W0NIMl0xW0NIMl1bQ0hdMU9bQ0gyXWMyW2NIXVtjSF1uKFtjSF0yKVtDQEBIXShbQ0hdPU8pW0NAQEhdKFtDSDJdW0NASF0zW0NIMl1bT0hdKVtDQEhdM04oT1tDQF00KFtDSDNdKVtPSF0pW0NIMl1bQ0BASF0oW0NIMl00KVtDQEhdKFtDSDJdW0NIM10pT09bQ0BIXShPW09IXSlbQ0gyXVtDSDJdTjVbQ0gyXVtDSDJdW0NASF0oW0NIMl02KVtDQEBdNTZbT0hd

>  <s_glide_docking_method>  (1) 
confgen

>  <s_i_glide_gridfile>  (1) 
gpcr_5ht2c_6bqh_protein_autoprepared_prepared

>  <s_lp_Force_Field>  (1) 
S-OPLS

>  <s_lp_Variant>  (1) 
DiffSBDD_28_num_sample_50-2

>  <s_m_source_file>  (1) 
generated__ligand_DiffSBDD_2026-05-06_prepared.sdf

>  <GenAI_Model>  (1) 
DiffSBDD

>  <Protein>  (1) 
GPCR_5HT2C

$$$$
DiffSBDD_29_num_sample_50
     RDKit          3D

  0  0  0  0  0  0  0  0  0  0999 V3000
M  V30 BEGIN CTAB
M  V30 COUNTS 79 81 0 0 1
M  V30 BEGIN ATOM
M  V30 1 C 41.180565 30.577445 66.434450 0
M  V30 2 C 37.940061 28.668316 58.311833 0
M  V30 3 C 42.009221 29.745142 65.453982 0
M  V30 4 C 39.474108 27.252175 53.881836 0
M  V30 5 C 38.090624 34.586700 61.436566 0
M  V30 6 C 37.587854 28.421663 52.781570 0
M  V30 7 C 40.853226 32.453676 62.435298 0 CFG=2
M  V30 8 N 37.467402 31.090330 58.252126 0 CHG=1
M  V30 9 C 38.894977 33.373921 61.115203 0 CFG=1
M  V30 10 N 37.129526 28.790750 53.912923 0
M  V30 11 C 39.346546 32.527183 62.329165 0
M  V30 12 C 38.411799 32.017197 58.917263 0 CFG=2
M  V30 13 O 38.010275 31.042601 55.351639 0
M  V30 14 O 41.467450 31.626634 61.444070 0
M  V30 15 C 36.930096 34.688679 60.852214 0
M  V30 16 C 39.881803 29.047995 52.043744 0
M  V30 17 C 38.668169 35.621000 62.395516 0
M  V30 18 C 40.993320 29.919538 63.140207 0
M  V30 19 C 37.793053 32.656780 60.181476 0 CFG=2
M  V30 20 C 39.358024 28.286591 55.017970 0
M  V30 21 C 41.890608 31.741933 67.132601 0
M  V30 22 F 41.069109 32.352810 67.987947 0
M  V30 23 O 40.150474 28.696814 59.298597 0
M  V30 24 O 39.044224 26.931801 51.554914 0
M  V30 25 C 39.632773 36.589069 61.715234 0
M  V30 26 C 38.115712 29.973658 57.499898 0 CFG=2
M  V30 27 F 42.950426 31.285233 67.800563 0
M  V30 28 C 36.525260 33.600679 59.935110 0
M  V30 29 C 38.775200 28.602676 59.607532 0
M  V30 30 C 37.540245 29.912355 56.056872 0 CFG=2
M  V30 31 C 41.148748 29.257852 64.301352 0
M  V30 32 F 42.302629 32.628634 66.224389 0
M  V30 33 C 37.867375 28.662064 55.179492 0 CFG=1
M  V30 34 O 39.995174 30.320421 66.653106 0
M  V30 35 C 41.637658 31.218515 62.807086 0 CFG=2
M  V30 36 C 38.994827 27.903566 52.572229 0 CFG=1
M  V30 37 C 39.001662 33.025413 57.913284 0
M  V30 38 H 38.221872 27.797264 57.724676 0
M  V30 39 H 36.881210 28.549653 58.538234 0
M  V30 40 H 42.438587 28.888943 65.974128 0
M  V30 41 H 42.843824 30.341795 65.089401 0
M  V30 42 H 38.836542 26.398360 54.118337 0
M  V30 43 H 40.471035 26.820516 53.794325 0
M  V30 44 H 36.978362 28.465936 51.876056 0
M  V30 45 H 41.352807 33.409526 62.577357 0
M  V30 46 H 36.857113 31.615484 57.615111 0
M  V30 47 H 39.760127 33.701488 60.542106 0
M  V30 48 H 38.971577 32.927640 63.263679 0
M  V30 49 H 38.949744 31.516411 62.267220 0
M  V30 50 H 39.227733 31.408352 59.299941 0
M  V30 51 H 37.576515 31.043972 54.509560 0
M  V30 52 H 36.270883 35.528116 61.006340 0
M  V30 53 H 39.934209 29.894582 52.729977 0
M  V30 54 H 40.896868 28.702236 51.853006 0
M  V30 55 H 39.502093 29.438911 51.098785 0
M  V30 56 H 37.850786 36.195198 62.834630 0
M  V30 57 H 39.180346 35.139101 63.224922 0
M  V30 58 H 40.355395 29.493226 62.378954 0
M  V30 59 H 37.392028 31.828997 60.766807 0
M  V30 60 H 39.955291 29.176400 54.822018 0
M  V30 61 H 39.750786 27.864414 55.943148 0
M  V30 62 H 40.662867 28.462121 60.060419 0
M  V30 63 H 38.236279 26.435328 51.567605 0
M  V30 64 H 40.131928 37.223830 62.446294 0
M  V30 65 H 40.404258 36.074636 61.140504 0
M  V30 66 H 39.066452 37.238834 61.053500 0
M  V30 67 H 39.186193 30.155071 57.391976 0
M  V30 68 H 36.426545 33.968428 58.913429 0
M  V30 69 H 35.589734 33.142001 60.256814 0
M  V30 70 H 38.603942 27.652775 60.113854 0
M  V30 71 H 38.499953 29.388092 60.309495 0
M  V30 72 H 36.454833 30.020644 56.114647 0
M  V30 73 H 40.635296 28.318818 64.451071 0
M  V30 74 H 37.467462 27.788382 55.682094 0
M  V30 75 H 42.652495 31.344729 63.178780 0
M  V30 76 H 39.786577 33.620818 58.369410 0
M  V30 77 H 39.465308 32.526146 57.063332 0
M  V30 78 H 38.246323 33.707121 57.522004 0
M  V30 79 H 36.863217 30.684434 58.948917 0
M  V30 END ATOM
M  V30 BEGIN BOND
M  V30 1 1 3 1
M  V30 2 1 9 5
M  V30 3 2 10 6
M  V30 4 1 11 7
M  V30 5 1 11 9
M  V30 6 1 12 8
M  V30 7 1 14 7
M  V30 8 2 15 5
M  V30 9 1 17 5
M  V30 10 1 19 9
M  V30 11 1 19 12
M  V30 12 1 20 4
M  V30 13 1 21 1
M  V30 14 1 22 21
M  V30 15 1 25 17
M  V30 16 1 26 2
M  V30 17 1 26 8
M  V30 18 1 27 21
M  V30 19 1 28 15
M  V30 20 1 28 19
M  V30 21 1 29 2
M  V30 22 1 29 23
M  V30 23 1 30 13
M  V30 24 1 30 26
M  V30 25 1 31 3
M  V30 26 2 31 18
M  V30 27 1 32 21
M  V30 28 1 33 10
M  V30 29 1 33 20
M  V30 30 1 33 30
M  V30 31 2 34 1
M  V30 32 1 35 7
M  V30 33 1 35 14
M  V30 34 1 35 18
M  V30 35 1 36 4
M  V30 36 1 36 6
M  V30 37 1 36 16
M  V30 38 1 36 24 CFG=3
M  V30 39 1 37 12
M  V30 40 1 38 2
M  V30 41 1 39 2
M  V30 42 1 40 3
M  V30 43 1 41 3
M  V30 44 1 42 4
M  V30 45 1 43 4
M  V30 46 1 44 6
M  V30 47 1 7 45 CFG=1
M  V30 48 1 46 8
M  V30 49 1 9 47 CFG=3
M  V30 50 1 48 11
M  V30 51 1 49 11
M  V30 52 1 12 50 CFG=1
M  V30 53 1 51 13
M  V30 54 1 52 15
M  V30 55 1 53 16
M  V30 56 1 54 16
M  V30 57 1 55 16
M  V30 58 1 56 17
M  V30 59 1 57 17
M  V30 60 1 58 18
M  V30 61 1 19 59 CFG=1
M  V30 62 1 60 20
M  V30 63 1 61 20
M  V30 64 1 62 23
M  V30 65 1 63 24
M  V30 66 1 64 25
M  V30 67 1 65 25
M  V30 68 1 66 25
M  V30 69 1 26 67 CFG=3
M  V30 70 1 68 28
M  V30 71 1 69 28
M  V30 72 1 70 29
M  V30 73 1 71 29
M  V30 74 1 30 72 CFG=1
M  V30 75 1 73 31
M  V30 76 1 33 74 CFG=1
M  V30 77 1 35 75 CFG=1
M  V30 78 1 76 37
M  V30 79 1 77 37
M  V30 80 1 78 37
M  V30 81 1 79 8
M  V30 END BOND
M  V30 END CTAB
M  END
>  <i_epik_Tot_Q>  (1) 
1

>  <i_epik_Tot_abs_Q>  (1) 
1

>  <i_i_glide_confnum>  (1) 
2556

>  <i_i_glide_lignum>  (1) 
76

>  <i_i_glide_posenum>  (1) 
338

>  <i_i_glide_rotatable_bonds>  (1) 
17

>  <i_lp_mmshare_version>  (1) 
72125

>  <i_m_source_file_index>  (1) 
30

>  <i_f3d_flags>  (1) 
0

>  <num_sample>  (1) 
50

>  <b_lp_Chiralities_Consistent>  (1) 
1

>  <r_epik_Charging_Adjusted_Penalty>  (1) 
0.073066720001252791

>  <r_epik_Ionization_Penalty>  (1) 
0.041882768558209021

>  <r_epik_Ionization_Penalty_Charging>  (1) 
0.011280877963412759

>  <r_epik_Ionization_Penalty_Neutral>  (1) 
0.030601890594796264

>  <r_epik_State_Penalty>  (1) 
0.061785842037840037

>  <r_glide_ring_energy>  (1) 
0

>  <r_i_docking_score>  (1) 
-6.7791670614463495

>  <r_i_glide_ecoul>  (1) 
-6.7728394169923041

>  <r_i_glide_eff_state_penalty>  (1) 
0.061785842037840037

>  <r_i_glide_einternal>  (1) 
26.67807006547001

>  <r_i_glide_emodel>  (1) 
-51.755837791275006

>  <r_i_glide_emodel_strain>  (1) 
0.82229760441403243

>  <r_i_glide_energy>  (1) 
-44.151176121636134

>  <r_i_glide_erotb>  (1) 
0.87550365807384167

>  <r_i_glide_esite>  (1) 
-0.098942164636113064

>  <r_i_glide_evdw>  (1) 
-37.378336704643829

>  <r_i_glide_gscore>  (1) 
-6.8409529034841894

>  <r_i_glide_gscore_strain>  (1) 
0

>  <r_i_glide_hbond>  (1) 
-0.34339380825654808

>  <r_i_glide_ligand_efficiency>  (1) 
-0.18322073139044187

>  <r_i_glide_ligand_efficiency_ln>  (1) 
-1.4702424094031852

>  <r_i_glide_ligand_efficiency_sa>  (1) 
-0.61053212481378416

>  <r_i_glide_lipo>  (1) 
-2.5761098073097433

>  <r_i_glide_metal>  (1) 
-0

>  <r_i_glide_rewards>  (1) 
-1.8131680335745899

>  <r_lp_Energy>  (1) 
32.688037999999999

>  <s_epik_Chemistry_Notes>  (1) 
This compound has an imine and may undergo hydrolysis.

>  <s_epik_cmdline>  (1) 
J2VwaWtfcHl0aG9uJywgJy1waHQnLCAnMS4wJywgJy1waCcsICc3LjQnLCAnLXRuJywgJzgnLCAnLW1hJywgJzUwMCcsICctaW1hZScsICc8aW5maWxlLm1hZT4nLCAnLW9tYWUnLCAnPG91dGZpbGUubWFlPic=

>  <s_epik_input>  (1) 
RkMoRikoRilDKD1PKVtDSDJdL1tDSF09W0NIXVxbQ0BIXTFPW0NASF0xW0NIMl1bQ0BIXTJbQ0BIXShbQ0gyXVtDSF09QzJbQ0gyXVtDSDNdKVtDQEhdKFtDSDNdKVtOSF1bQ0BASF0oW0NIMl1bQ0gyXVtPSF0pW0NAQEhdKFtPSF0pW0NAQEhdKE49W0NIXTMpW0NIMl1bQ0gyXVtDQEBdMyhbQ0gzXSlbT0hd

>  <s_glide_docking_method>  (1) 
confgen

>  <s_i_glide_gridfile>  (1) 
gpcr_5ht2c_6bqh_protein_autoprepared_prepared

>  <s_lp_Force_Field>  (1) 
S-OPLS

>  <s_lp_Variant>  (1) 
DiffSBDD_29_num_sample_50-4

>  <s_m_source_file>  (1) 
generated__ligand_DiffSBDD_2026-05-06_prepared.sdf

>  <GenAI_Model>  (1) 
DiffSBDD

>  <Protein>  (1) 
GPCR_5HT2C

$$$$
DiffSBDD_42_num_sample_50
     RDKit          3D

  0  0  0  0  0  0  0  0  0  0999 V3000
M  V30 BEGIN CTAB
M  V30 COUNTS 35 37 0 0 1
M  V30 BEGIN ATOM
M  V30 1 C 40.948204 27.462208 56.897023 0
M  V30 2 F 40.126591 29.292809 50.384839 0
M  V30 3 C 39.867403 30.421432 52.518797 0
M  V30 4 O 37.218942 30.490496 60.179305 0 CHG=-1
M  V30 5 C 38.018273 31.158865 59.484691 0
M  V30 6 C 38.858545 28.199861 52.118964 0
M  V30 7 O 38.667365 32.155802 59.871051 0
M  V30 8 C 38.380008 28.279962 53.422216 0
M  V30 9 C 39.445844 27.430181 56.812332 0 CFG=1
M  V30 10 C 39.333836 30.405639 53.845211 0
M  V30 11 O 40.267399 27.169027 55.666147 0
M  V30 12 S 37.467404 27.178500 54.250262 0
M  V30 13 C 38.228184 30.714356 58.032639 0
M  V30 14 C 37.922461 28.958827 55.468552 0 CFG=1
M  V30 15 C 39.627045 29.299016 51.643834 0
M  V30 16 C 38.572694 26.291281 57.351110 0
M  V30 17 N 38.797857 28.734772 56.648003 0
M  V30 18 C 38.196630 29.179764 57.905295 0
M  V30 19 C 39.200705 24.898272 57.205550 0
M  V30 20 F 38.605290 27.124522 51.335826 0
M  V30 21 C 38.596195 29.281312 54.211212 0
M  V30 22 H 41.460878 28.421429 56.912107 0
M  V30 23 H 41.467405 26.624390 57.350577 0
M  V30 24 H 40.447492 31.265059 52.174943 0
M  V30 25 H 39.493231 31.225902 54.530258 0
M  V30 26 H 39.188949 31.098283 57.690336 0
M  V30 27 H 37.467404 31.177445 57.406085 0
M  V30 28 H 37.063442 29.601111 55.669020 0
M  V30 29 H 38.371053 26.472893 58.406921 0
M  V30 30 H 37.602546 26.301826 56.858066 0
M  V30 31 H 37.179992 28.795473 58.003228 0
M  V30 32 H 38.770870 28.766206 58.736579 0
M  V30 33 H 38.519700 24.124974 57.561278 0
M  V30 34 H 39.435870 24.678603 56.163694 0
M  V30 35 H 40.120396 24.821429 57.783910 0
M  V30 END ATOM
M  V30 BEGIN BOND
M  V30 1 1 5 4
M  V30 2 2 7 5
M  V30 3 1 8 6
M  V30 4 1 9 1
M  V30 5 2 10 3
M  V30 6 1 11 1
M  V30 7 1 11 9
M  V30 8 1 12 8
M  V30 9 1 13 5
M  V30 10 1 14 12
M  V30 11 1 15 2
M  V30 12 1 15 3
M  V30 13 2 15 6
M  V30 14 1 16 9
M  V30 15 1 9 17 CFG=3
M  V30 16 1 17 14
M  V30 17 1 18 13
M  V30 18 1 18 17
M  V30 19 1 19 16
M  V30 20 1 20 6
M  V30 21 2 21 8
M  V30 22 1 21 10
M  V30 23 1 21 14
M  V30 24 1 22 1
M  V30 25 1 23 1
M  V30 26 1 24 3
M  V30 27 1 25 10
M  V30 28 1 26 13
M  V30 29 1 27 13
M  V30 30 1 14 28 CFG=1
M  V30 31 1 29 16
M  V30 32 1 30 16
M  V30 33 1 31 18
M  V30 34 1 32 18
M  V30 35 1 33 19
M  V30 36 1 34 19
M  V30 37 1 35 19
M  V30 END BOND
M  V30 END CTAB
M  END
>  <i_epik_Tot_Q>  (1) 
-1

>  <i_epik_Tot_abs_Q>  (1) 
1

>  <i_i_glide_confnum>  (1) 
68

>  <i_i_glide_lignum>  (1) 
100

>  <i_i_glide_posenum>  (1) 
108

>  <i_i_glide_rotatable_bonds>  (1) 
6

>  <i_lp_mmshare_version>  (1) 
72125

>  <i_m_source_file_index>  (1) 
43

>  <i_f3d_flags>  (1) 
0

>  <num_sample>  (1) 
50

>  <b_lp_Chiralities_Consistent>  (1) 
1

>  <r_epik_Charging_Adjusted_Penalty>  (1) 
0.013340690829019033

>  <r_epik_Ionization_Penalty>  (1) 
0.013340690850919951

>  <r_epik_Ionization_Penalty_Charging>  (1) 
0.00047956300676926659

>  <r_epik_Ionization_Penalty_Neutral>  (1) 
0.012861127844150685

>  <r_epik_State_Penalty>  (1) 
0.012861127822249767

>  <r_glide_ring_energy>  (1) 
0

>  <r_i_docking_score>  (1) 
-6.7438399622921539

>  <r_i_glide_ecoul>  (1) 
-1.3950054655065081

>  <r_i_glide_eff_state_penalty>  (1) 
0.012861127822249767

>  <r_i_glide_einternal>  (1) 
17.76681696034796

>  <r_i_glide_emodel>  (1) 
-39.259814334848656

>  <r_i_glide_emodel_strain>  (1) 
0.036373312148697323

>  <r_i_glide_energy>  (1) 
-33.132673852870745

>  <r_i_glide_erotb>  (1) 
0.75246386740588744

>  <r_i_glide_esite>  (1) 
-0.033060980375679311

>  <r_i_glide_evdw>  (1) 
-31.737668387364238

>  <r_i_glide_gscore>  (1) 
-6.7567010901144036

>  <r_i_glide_gscore_strain>  (1) 
0

>  <r_i_glide_hbond>  (1) 
0

>  <r_i_glide_ligand_efficiency>  (1) 
-0.32113523629962637

>  <r_i_glide_ligand_efficiency_ln>  (1) 
-1.667400803464975

>  <r_i_glide_ligand_efficiency_sa>  (1) 
-0.88598776731490336

>  <r_i_glide_lipo>  (1) 
-2.8832702242313744

>  <r_i_glide_metal>  (1) 
-0

>  <r_i_glide_rewards>  (1) 
-2.7966995137190485

>  <r_lp_Energy>  (1) 
21.586687999999999

>  <s_epik_Chemistry_Notes>  (1) 
This compound contains an acetal/aminal-like group ( X-CH(R)-Y where X, Y are N, S, or O) that may be acid/base labile, releasing an aldehyde.

>  <s_epik_cmdline>  (1) 
J2VwaWtfcHl0aG9uJywgJy1waHQnLCAnMS4wJywgJy1waCcsICc3LjQnLCAnLXRuJywgJzgnLCAnLW1hJywgJzUwMCcsICctaW1hZScsICc8aW5maWxlLm1hZT4nLCAnLW9tYWUnLCAnPG91dGZpbGUubWFlPic=

>  <s_epik_input>  (1) 
W09IXUMoPU8pW0NIMl1bQ0gyXU4oW0NAQF0xKFtDSDJdTzEpW0NIMl1bQ0gzXSlbQ0BIXShTMiljKGMyMylbY0hdW2NIXWMoRiljM0Y=

>  <s_glide_docking_method>  (1) 
confgen

>  <s_i_glide_gridfile>  (1) 
gpcr_5ht2c_6bqh_protein_autoprepared_prepared

>  <s_lp_Force_Field>  (1) 
S-OPLS

>  <s_lp_Variant>  (1) 
DiffSBDD_42_num_sample_50-1

>  <s_m_source_file>  (1) 
generated__ligand_DiffSBDD_2026-05-06_prepared.sdf

>  <GenAI_Model>  (1) 
DiffSBDD

>  <Protein>  (1) 
GPCR_5HT2C

$$$$
DiffSBDD_47_num_sample_50
     RDKit          3D

  0  0  0  0  0  0  0  0  0  0999 V3000
M  V30 BEGIN CTAB
M  V30 COUNTS 47 49 0 0 1
M  V30 BEGIN ATOM
M  V30 1 C 38.992163 28.907938 59.138020 0
M  V30 2 C 36.879177 30.293762 59.455975 0
M  V30 3 C 38.162354 31.943361 61.337643 0
M  V30 4 C 39.554167 30.571817 53.049827 0
M  V30 5 C 39.566397 28.488638 51.792836 0
M  V30 6 N 41.120619 27.759934 58.746788 0
M  V30 7 C 39.093573 26.913554 57.743954 0
M  V30 8 C 40.469969 26.862285 57.985103 0
M  V30 9 C 37.656990 30.819030 54.652051 0
M  V30 10 C 39.867363 29.888254 51.935657 0
M  V30 11 O 37.467433 25.841559 54.645020 0
M  V30 12 N 38.644591 27.686106 55.221329 0
M  V30 13 C 38.382811 28.463747 54.019776 0 CFG=1
M  V30 14 C 38.869428 29.955312 54.268512 0
M  V30 15 C 38.871555 30.886070 60.734162 0
M  V30 16 O 38.781739 32.743042 62.252389 0
M  V30 17 C 36.182377 31.357280 60.062478 0
M  V30 18 C 38.139019 26.466235 55.460636 0
M  V30 19 C 38.339566 27.951333 58.321683 0
M  V30 20 C 38.427930 25.872942 56.845427 0
M  V30 21 C 38.900382 27.816986 52.737126 0
M  V30 22 C 38.241500 30.037309 59.781302 0
M  V30 23 C 36.822127 32.177450 61.001499 0
M  V30 24 C 40.394538 28.748197 59.315937 0
M  V30 25 C 39.869585 30.101252 55.443404 0
M  V30 26 H 36.367053 29.680900 58.733946 0
M  V30 27 H 39.799021 31.621444 53.113830 0
M  V30 28 H 39.886563 27.968085 50.901611 0
M  V30 29 H 41.067476 26.080798 57.548651 0
M  V30 30 H 37.157043 30.443637 55.547446 0
M  V30 31 H 37.935043 31.857394 54.839603 0
M  V30 32 H 36.928597 30.821259 53.853503 0
M  V30 33 H 40.362142 30.404035 51.125360 0
M  V30 34 H 39.194466 28.126593 55.944783 0
M  V30 35 H 37.298670 28.470284 53.887553 0
M  V30 36 H 39.898424 30.723819 61.008811 0
M  V30 37 H 39.675661 32.493203 62.426538 0
M  V30 38 H 35.150494 31.543203 59.799914 0
M  V30 39 H 37.280192 28.008030 58.140551 0
M  V30 40 H 39.067754 24.996688 56.735100 0
M  V30 41 H 37.492168 25.539488 57.296909 0
M  V30 42 H 38.688866 26.767286 52.598012 0
M  V30 43 H 36.283208 32.991894 61.463982 0
M  V30 44 H 40.954641 29.440973 59.918952 0
M  V30 45 H 39.401659 29.913677 56.410144 0
M  V30 46 H 40.715061 29.423013 55.348389 0
M  V30 47 H 40.265656 31.116195 55.491508 0
M  V30 END ATOM
M  V30 BEGIN BOND
M  V30 1 2 8 6
M  V30 2 1 8 7
M  V30 3 2 10 4
M  V30 4 1 10 5
M  V30 5 1 13 12
M  V30 6 1 14 4
M  V30 7 1 14 9
M  V30 8 1 14 13
M  V30 9 2 15 3
M  V30 10 1 16 3
M  V30 11 1 17 2
M  V30 12 2 18 11
M  V30 13 1 18 12
M  V30 14 1 19 1
M  V30 15 2 19 7
M  V30 16 1 20 7
M  V30 17 1 20 18
M  V30 18 2 21 5
M  V30 19 1 21 13
M  V30 20 1 22 1
M  V30 21 2 22 2
M  V30 22 1 22 15
M  V30 23 1 23 3
M  V30 24 2 23 17
M  V30 25 2 24 1
M  V30 26 1 24 6
M  V30 27 1 25 14
M  V30 28 1 26 2
M  V30 29 1 27 4
M  V30 30 1 28 5
M  V30 31 1 29 8
M  V30 32 1 30 9
M  V30 33 1 31 9
M  V30 34 1 32 9
M  V30 35 1 33 10
M  V30 36 1 34 12
M  V30 37 1 13 35 CFG=3
M  V30 38 1 36 15
M  V30 39 1 37 16
M  V30 40 1 38 17
M  V30 41 1 39 19
M  V30 42 1 40 20
M  V30 43 1 41 20
M  V30 44 1 42 21
M  V30 45 1 43 23
M  V30 46 1 44 24
M  V30 47 1 45 25
M  V30 48 1 46 25
M  V30 49 1 47 25
M  V30 END BOND
M  V30 END CTAB
M  END
>  <i_epik_Tot_Q>  (1) 
0

>  <i_epik_Tot_abs_Q>  (1) 
0

>  <i_i_glide_confnum>  (1) 
59

>  <i_i_glide_lignum>  (1) 
107

>  <i_i_glide_posenum>  (1) 
103

>  <i_i_glide_rotatable_bonds>  (1) 
6

>  <i_lp_mmshare_version>  (1) 
72125

>  <i_m_source_file_index>  (1) 
48

>  <i_f3d_flags>  (1) 
0

>  <num_sample>  (1) 
50

>  <b_lp_Chiralities_Consistent>  (1) 
1

>  <r_epik_Charging_Adjusted_Penalty>  (1) 
0.0032589894025149397

>  <r_epik_Ionization_Penalty>  (1) 
0.0038156857198904941

>  <r_epik_Ionization_Penalty_Charging>  (1) 
0

>  <r_epik_Ionization_Penalty_Neutral>  (1) 
0.0038156857198904941

>  <r_epik_State_Penalty>  (1) 
0.0032589894025149397

>  <r_glide_ring_energy>  (1) 
0.21997361475074056

>  <r_i_docking_score>  (1) 
-6.7324773283395309

>  <r_i_glide_ecoul>  (1) 
0.064352018565925984

>  <r_i_glide_eff_state_penalty>  (1) 
0.0032589894025149397

>  <r_i_glide_einternal>  (1) 
0.81225416227804104

>  <r_i_glide_emodel>  (1) 
-57.260606643484934

>  <r_i_glide_emodel_strain>  (1) 
0.40083283676506198

>  <r_i_glide_energy>  (1) 
-40.544945127037003

>  <r_i_glide_erotb>  (1) 
0.84319913175930694

>  <r_i_glide_esite>  (1) 
0

>  <r_i_glide_evdw>  (1) 
-40.60929714560293

>  <r_i_glide_gscore>  (1) 
-6.7357363177420462

>  <r_i_glide_gscore_strain>  (1) 
0

>  <r_i_glide_hbond>  (1) 
0

>  <r_i_glide_ligand_efficiency>  (1) 
-0.26929909313358125

>  <r_i_glide_ligand_efficiency_ln>  (1) 
-1.5957988828812841

>  <r_i_glide_ligand_efficiency_sa>  (1) 
-0.78743532520723025

>  <r_i_glide_lipo>  (1) 
-3.6060236096303053

>  <r_i_glide_metal>  (1) 
-0

>  <r_i_glide_rewards>  (1) 
-1.9520997853757887

>  <r_lp_Energy>  (1) 
34.006616000000001

>  <r_lp_tautomer_probability>  (1) 
0.99999999999736477

>  <s_epik_cmdline>  (1) 
J2VwaWtfcHl0aG9uJywgJy1waHQnLCAnMS4wJywgJy1waCcsICc3LjQnLCAnLXRuJywgJzgnLCAnLW1hJywgJzUwMCcsICctaW1hZScsICc8aW5maWxlLm1hZT4nLCAnLW9tYWUnLCAnPG91dGZpbGUubWFlPic=

>  <s_epik_input>  (1) 
W09IXWMxW2NIXWMoW2NIXVtjSF1bY0hdMSktYzJbY0hdYyhbY0hdbltjSF0yKVtDSDJdQyg9TylbTkhdW0NAQEhdM1tDSF09W0NIXVtDSF09W0NIXUMzKFtDSDNdKVtDSDNd

>  <s_glide_docking_method>  (1) 
confgen

>  <s_i_glide_gridfile>  (1) 
gpcr_5ht2c_6bqh_protein_autoprepared_prepared

>  <s_lp_Force_Field>  (1) 
S-OPLS

>  <s_lp_Variant>  (1) 
DiffSBDD_47_num_sample_50-1

>  <s_m_source_file>  (1) 
generated__ligand_DiffSBDD_2026-05-06_prepared.sdf

>  <GenAI_Model>  (1) 
DiffSBDD

>  <Protein>  (1) 
GPCR_5HT2C

$$$$
DiffSBDD_47_num_sample_50
     RDKit          3D

  0  0  0  0  0  0  0  0  0  0999 V3000
M  V30 BEGIN CTAB
M  V30 COUNTS 47 49 0 0 1
M  V30 BEGIN ATOM
M  V30 1 C 39.012556 28.893057 59.069019 0
M  V30 2 C 36.890281 30.253126 59.448653 0
M  V30 3 C 38.246968 32.014456 61.169769 0
M  V30 4 C 39.510953 30.671582 53.053440 0
M  V30 5 C 39.618417 28.607955 51.774646 0
M  V30 6 N 41.130527 27.725046 58.673230 0
M  V30 7 C 39.095868 26.903517 57.665646 0
M  V30 8 C 40.473473 26.838658 57.905503 0
M  V30 9 C 37.608990 30.864350 54.653377 0
M  V30 10 C 39.867220 30.014602 51.938311 0
M  V30 11 O 37.467234 25.890398 54.548484 0
M  V30 12 N 38.623361 27.732849 55.166106 0
M  V30 13 C 38.374246 28.524270 53.969309 0 CFG=1
M  V30 14 C 38.829880 30.018705 54.252093 0
M  V30 15 C 38.938865 30.939121 60.582083 0
M  V30 16 O 38.906475 32.871369 61.999235 0
M  V30 17 C 36.207632 31.331548 60.043732 0
M  V30 18 C 38.128492 26.503292 55.379650 0
M  V30 19 C 38.350071 27.942067 58.253495 0
M  V30 20 C 38.421599 25.882189 56.753176 0
M  V30 21 C 38.949722 27.904661 52.695309 0
M  V30 22 C 38.273661 30.035741 59.707109 0
M  V30 23 C 36.883501 32.209407 60.901979 0
M  V30 24 C 40.414458 28.720271 59.243785 0
M  V30 25 C 39.831422 30.149865 55.425761 0
M  V30 26 H 36.350279 29.598273 58.788234 0
M  V30 27 H 39.715781 31.724609 53.133486 0
M  V30 28 H 39.979814 28.107329 50.888550 0
M  V30 29 H 41.067269 26.058031 57.460980 0
M  V30 30 H 37.110959 30.459435 55.535387 0
M  V30 31 H 37.886732 31.893605 54.883115 0
M  V30 32 H 36.882470 30.909290 53.853506 0
M  V30 33 H 40.357610 30.558346 51.142893 0
M  V30 34 H 39.165327 28.164460 55.901089 0
M  V30 35 H 37.295845 28.522313 53.797158 0
M  V30 36 H 39.982700 30.811011 60.803287 0
M  V30 37 H 38.385418 33.616674 62.253849 0
M  V30 38 H 35.158419 31.485423 59.832808 0
M  V30 39 H 37.291828 28.009867 58.067883 0
M  V30 40 H 39.050873 25.001153 56.621529 0
M  V30 41 H 37.485715 25.550627 57.203934 0
M  V30 42 H 38.777281 26.848471 52.541092 0
M  V30 43 H 36.355082 33.036763 61.352669 0
M  V30 44 H 40.982949 29.407052 59.845819 0
M  V30 45 H 39.364182 29.955631 56.391964 0
M  V30 46 H 40.671066 29.469400 55.311329 0
M  V30 47 H 40.235203 31.161173 55.480072 0
M  V30 END ATOM
M  V30 BEGIN BOND
M  V30 1 2 8 6
M  V30 2 1 8 7
M  V30 3 2 10 4
M  V30 4 1 10 5
M  V30 5 1 13 12
M  V30 6 1 14 4
M  V30 7 1 14 9
M  V30 8 1 14 13
M  V30 9 2 15 3
M  V30 10 1 16 3
M  V30 11 1 17 2
M  V30 12 2 18 11
M  V30 13 1 18 12
M  V30 14 1 19 1
M  V30 15 2 19 7
M  V30 16 1 20 7
M  V30 17 1 20 18
M  V30 18 2 21 5
M  V30 19 1 21 13
M  V30 20 1 22 1
M  V30 21 2 22 2
M  V30 22 1 22 15
M  V30 23 1 23 3
M  V30 24 2 23 17
M  V30 25 2 24 1
M  V30 26 1 24 6
M  V30 27 1 25 14
M  V30 28 1 26 2
M  V30 29 1 27 4
M  V30 30 1 28 5
M  V30 31 1 29 8
M  V30 32 1 30 9
M  V30 33 1 31 9
M  V30 34 1 32 9
M  V30 35 1 33 10
M  V30 36 1 34 12
M  V30 37 1 13 35 CFG=3
M  V30 38 1 36 15
M  V30 39 1 37 16
M  V30 40 1 38 17
M  V30 41 1 39 19
M  V30 42 1 40 20
M  V30 43 1 41 20
M  V30 44 1 42 21
M  V30 45 1 43 23
M  V30 46 1 44 24
M  V30 47 1 45 25
M  V30 48 1 46 25
M  V30 49 1 47 25
M  V30 END BOND
M  V30 END CTAB
M  END
>  <i_epik_Tot_Q>  (1) 
0

>  <i_epik_Tot_abs_Q>  (1) 
0

>  <i_i_glide_confnum>  (1) 
59

>  <i_i_glide_lignum>  (1) 
107

>  <i_i_glide_posenum>  (1) 
103

>  <i_i_glide_rotatable_bonds>  (1) 
6

>  <i_lp_mmshare_version>  (1) 
72125

>  <i_m_source_file_index>  (1) 
48

>  <i_f3d_flags>  (1) 
0

>  <num_sample>  (1) 
50

>  <b_lp_Chiralities_Consistent>  (1) 
1

>  <r_epik_Charging_Adjusted_Penalty>  (1) 
0.0032589894025149397

>  <r_epik_Ionization_Penalty>  (1) 
0.0038156857198904941

>  <r_epik_Ionization_Penalty_Charging>  (1) 
0

>  <r_epik_Ionization_Penalty_Neutral>  (1) 
0.0038156857198904941

>  <r_epik_State_Penalty>  (1) 
0.0032589894025149397

>  <r_glide_ring_energy>  (1) 
0.21997361475074056

>  <r_i_docking_score>  (1) 
-6.7201693615951861

>  <r_i_glide_ecoul>  (1) 
0.32563870699616138

>  <r_i_glide_eff_state_penalty>  (1) 
0.0032589894025149397

>  <r_i_glide_einternal>  (1) 
0.91402599946780683

>  <r_i_glide_emodel>  (1) 
-56.509848809743318

>  <r_i_glide_emodel_strain>  (1) 
0.49335761185707838

>  <r_i_glide_energy>  (1) 
-39.969616437781745

>  <r_i_glide_erotb>  (1) 
0.84319913175930694

>  <r_i_glide_esite>  (1) 
0

>  <r_i_glide_evdw>  (1) 
-40.295255144777904

>  <r_i_glide_gscore>  (1) 
-6.7234283509977013

>  <r_i_glide_gscore_strain>  (1) 
0

>  <r_i_glide_hbond>  (1) 
0

>  <r_i_glide_ligand_efficiency>  (1) 
-0.26880677446380746

>  <r_i_glide_ligand_efficiency_ln>  (1) 
-1.5928815259228746

>  <r_i_glide_ligand_efficiency_sa>  (1) 
-0.78599577668395826

>  <r_i_glide_lipo>  (1) 
-3.5525251738133594

>  <r_i_glide_metal>  (1) 
-0

>  <r_i_glide_rewards>  (1) 
-2.0481853577541775

>  <r_lp_Energy>  (1) 
34.006616000000001

>  <r_lp_tautomer_probability>  (1) 
0.99999999999736477

>  <s_epik_cmdline>  (1) 
J2VwaWtfcHl0aG9uJywgJy1waHQnLCAnMS4wJywgJy1waCcsICc3LjQnLCAnLXRuJywgJzgnLCAnLW1hJywgJzUwMCcsICctaW1hZScsICc8aW5maWxlLm1hZT4nLCAnLW9tYWUnLCAnPG91dGZpbGUubWFlPic=

>  <s_epik_input>  (1) 
W09IXWMxW2NIXWMoW2NIXVtjSF1bY0hdMSktYzJbY0hdYyhbY0hdbltjSF0yKVtDSDJdQyg9TylbTkhdW0NAQEhdM1tDSF09W0NIXVtDSF09W0NIXUMzKFtDSDNdKVtDSDNd

>  <s_glide_docking_method>  (1) 
confgen

>  <s_i_glide_gridfile>  (1) 
gpcr_5ht2c_6bqh_protein_autoprepared_prepared

>  <s_lp_Force_Field>  (1) 
S-OPLS

>  <s_lp_Variant>  (1) 
DiffSBDD_47_num_sample_50-1

>  <s_m_source_file>  (1) 
generated__ligand_DiffSBDD_2026-05-06_prepared.sdf

>  <GenAI_Model>  (1) 
DiffSBDD

>  <Protein>  (1) 
GPCR_5HT2C

$$$$
DiffSBDD_42_num_sample_50
     RDKit          3D

  0  0  0  0  0  0  0  0  0  0999 V3000
M  V30 BEGIN CTAB
M  V30 COUNTS 35 37 0 0 1
M  V30 BEGIN ATOM
M  V30 1 C 41.017301 27.472351 56.577036 0
M  V30 2 F 40.176953 29.604985 50.578652 0
M  V30 3 C 39.867404 30.421430 52.844552 0
M  V30 4 O 37.836105 30.804791 60.281414 0 CHG=-1
M  V30 5 C 38.267968 30.025366 59.403285 0
M  V30 6 C 38.896725 28.265287 52.120310 0
M  V30 7 O 39.467401 29.715756 59.225986 0
M  V30 8 C 38.396746 28.158059 53.412691 0
M  V30 9 C 39.592979 27.009467 56.715034 0 CFG=1
M  V30 10 C 39.315841 30.212799 54.146753 0
M  V30 11 O 40.267403 26.992196 55.453501 0
M  V30 12 S 37.467404 26.950655 54.059521 0
M  V30 13 C 37.229093 29.388666 58.468516 0
M  V30 14 C 37.881757 28.543554 55.516061 0 CFG=1
M  V30 15 C 39.658192 29.428696 51.817323 0
M  V30 16 C 39.259716 25.633564 57.313476 0
M  V30 17 N 38.604681 28.113388 56.747596 0
M  V30 18 C 37.678790 28.028591 57.881106 0
M  V30 19 C 38.168449 24.843324 56.584022 0
M  V30 20 F 38.666728 27.308175 51.189240 0
M  V30 21 C 38.590551 29.039535 54.338432 0
M  V30 22 H 41.225184 28.538200 56.559793 0
M  V30 23 H 41.818192 26.821431 56.917316 0
M  V30 24 H 40.438560 31.311857 52.631284 0
M  V30 25 H 39.449050 30.932568 54.941703 0
M  V30 26 H 36.969767 30.108185 57.693635 0
M  V30 27 H 36.319909 29.234548 59.050043 0
M  V30 28 H 37.056977 29.221430 55.721001 0
M  V30 29 H 40.170113 25.034335 57.279113 0
M  V30 30 H 39.030620 25.709343 58.374256 0
M  V30 31 H 36.820509 27.412530 57.617499 0
M  V30 32 H 38.168327 27.521328 58.708772 0
M  V30 33 H 37.987013 23.893443 57.085541 0
M  V30 34 H 37.223628 25.384877 56.563165 0
M  V30 35 H 38.462626 24.625232 55.557135 0
M  V30 END ATOM
M  V30 BEGIN BOND
M  V30 1 1 5 4
M  V30 2 2 7 5
M  V30 3 1 8 6
M  V30 4 1 9 1
M  V30 5 2 10 3
M  V30 6 1 11 1
M  V30 7 1 11 9
M  V30 8 1 12 8
M  V30 9 1 13 5
M  V30 10 1 14 12
M  V30 11 1 15 2
M  V30 12 1 15 3
M  V30 13 2 15 6
M  V30 14 1 16 9
M  V30 15 1 9 17 CFG=3
M  V30 16 1 17 14
M  V30 17 1 18 13
M  V30 18 1 18 17
M  V30 19 1 19 16
M  V30 20 1 20 6
M  V30 21 2 21 8
M  V30 22 1 21 10
M  V30 23 1 21 14
M  V30 24 1 22 1
M  V30 25 1 23 1
M  V30 26 1 24 3
M  V30 27 1 25 10
M  V30 28 1 26 13
M  V30 29 1 27 13
M  V30 30 1 14 28 CFG=1
M  V30 31 1 29 16
M  V30 32 1 30 16
M  V30 33 1 31 18
M  V30 34 1 32 18
M  V30 35 1 33 19
M  V30 36 1 34 19
M  V30 37 1 35 19
M  V30 END BOND
M  V30 END CTAB
M  END
>  <i_epik_Tot_Q>  (1) 
-1

>  <i_epik_Tot_abs_Q>  (1) 
1

>  <i_i_glide_confnum>  (1) 
2

>  <i_i_glide_lignum>  (1) 
100

>  <i_i_glide_posenum>  (1) 
138

>  <i_i_glide_rotatable_bonds>  (1) 
6

>  <i_lp_mmshare_version>  (1) 
72125

>  <i_m_source_file_index>  (1) 
43

>  <i_f3d_flags>  (1) 
0

>  <num_sample>  (1) 
50

>  <b_lp_Chiralities_Consistent>  (1) 
1

>  <r_epik_Charging_Adjusted_Penalty>  (1) 
0.013340690829019033

>  <r_epik_Ionization_Penalty>  (1) 
0.013340690850919951

>  <r_epik_Ionization_Penalty_Charging>  (1) 
0.00047956300676926659

>  <r_epik_Ionization_Penalty_Neutral>  (1) 
0.012861127844150685

>  <r_epik_State_Penalty>  (1) 
0.012861127822249767

>  <r_glide_ring_energy>  (1) 
0

>  <r_i_docking_score>  (1) 
-6.7194727300853074

>  <r_i_glide_ecoul>  (1) 
-0.91180453108638859

>  <r_i_glide_eff_state_penalty>  (1) 
0.012861127822249767

>  <r_i_glide_einternal>  (1) 
8.7752240542540001

>  <r_i_glide_emodel>  (1) 
-41.019792813031167

>  <r_i_glide_emodel_strain>  (1) 
1.176187147239574

>  <r_i_glide_energy>  (1) 
-31.590934633827867

>  <r_i_glide_erotb>  (1) 
0.75246386740588744

>  <r_i_glide_esite>  (1) 
0

>  <r_i_glide_evdw>  (1) 
-30.679130102741478

>  <r_i_glide_gscore>  (1) 
-6.7323338579075571

>  <r_i_glide_gscore_strain>  (1) 
0

>  <r_i_glide_hbond>  (1) 
0

>  <r_i_glide_ligand_efficiency>  (1) 
-0.31997489190882417

>  <r_i_glide_ligand_efficiency_ln>  (1) 
-1.661376054540461

>  <r_i_glide_ligand_efficiency_sa>  (1) 
-0.88278646512219094

>  <r_i_glide_lipo>  (1) 
-2.9649428112520408

>  <r_i_glide_metal>  (1) 
-0

>  <r_i_glide_rewards>  (1) 
-2.849127729261371

>  <r_lp_Energy>  (1) 
21.586687999999999

>  <s_epik_Chemistry_Notes>  (1) 
This compound contains an acetal/aminal-like group ( X-CH(R)-Y where X, Y are N, S, or O) that may be acid/base labile, releasing an aldehyde.

>  <s_epik_cmdline>  (1) 
J2VwaWtfcHl0aG9uJywgJy1waHQnLCAnMS4wJywgJy1waCcsICc3LjQnLCAnLXRuJywgJzgnLCAnLW1hJywgJzUwMCcsICctaW1hZScsICc8aW5maWxlLm1hZT4nLCAnLW9tYWUnLCAnPG91dGZpbGUubWFlPic=

>  <s_epik_input>  (1) 
W09IXUMoPU8pW0NIMl1bQ0gyXU4oW0NAQF0xKFtDSDJdTzEpW0NIMl1bQ0gzXSlbQ0BIXShTMiljKGMyMylbY0hdW2NIXWMoRiljM0Y=

>  <s_glide_docking_method>  (1) 
confgen

>  <s_i_glide_gridfile>  (1) 
gpcr_5ht2c_6bqh_protein_autoprepared_prepared

>  <s_lp_Force_Field>  (1) 
S-OPLS

>  <s_lp_Variant>  (1) 
DiffSBDD_42_num_sample_50-1

>  <s_m_source_file>  (1) 
generated__ligand_DiffSBDD_2026-05-06_prepared.sdf

>  <GenAI_Model>  (1) 
DiffSBDD

>  <Protein>  (1) 
GPCR_5HT2C

$$$$
DiffSBDD_15_num_sample_50
     RDKit          3D

  0  0  0  0  0  0  0  0  0  0999 V3000
M  V30 BEGIN CTAB
M  V30 COUNTS 46 47 0 0 1
M  V30 BEGIN ATOM
M  V30 1 S 39.833684 28.667602 56.324128 0
M  V30 2 C 39.275883 28.014295 51.443392 0
M  V30 3 C 40.273785 30.129121 50.733193 0
M  V30 4 C 39.867437 28.811215 50.436606 0
M  V30 5 C 37.140872 29.637228 59.241154 0
M  V30 6 C 38.599974 26.120100 58.229897 0
M  V30 7 C 39.465578 29.837103 52.985148 0
M  V30 8 C 36.490803 30.987661 59.576213 0
M  V30 9 O 39.405035 25.373321 57.340842 0
M  V30 10 C 38.682067 29.037861 54.963229 0 CFG=1
M  V30 11 C 37.110596 27.314494 53.678754 0
M  V30 12 N 38.662596 28.483303 57.563331 0
M  V30 13 C 37.879587 27.251384 57.476668 0
M  V30 14 O 37.496835 31.621416 61.973314 0
M  V30 15 N 39.202602 30.228916 54.255085 0
M  V30 16 C 39.097699 28.571654 52.718300 0
M  V30 17 C 36.649366 33.680896 60.480769 0
M  V30 18 C 38.536831 27.830394 53.886761 0 CFG=1
M  V30 19 C 40.069364 30.648122 52.022879 0
M  V30 20 F 40.857171 30.884949 49.784263 0
M  V30 21 C 37.910618 29.692918 57.915323 0
M  V30 22 O 38.858007 32.245064 59.917288 0
M  V30 23 S 37.556448 32.089214 60.582192 0
M  V30 24 H 38.976545 26.996493 51.236770 0
M  V30 25 H 40.019726 28.421191 49.453445 0
M  V30 26 H 36.326641 28.927810 59.121816 0
M  V30 27 H 37.778777 29.291026 60.055373 0
M  V30 28 H 37.868138 25.433232 58.653325 0
M  V30 29 H 39.203214 26.500057 59.053889 0
M  V30 30 H 36.267421 31.519441 58.655713 0
M  V30 31 H 35.554229 30.851735 60.114341 0
M  V30 32 H 40.097603 25.936876 57.026720 0
M  V30 33 H 37.689469 29.293918 55.321741 0
M  V30 34 H 37.109357 26.441744 53.031602 0
M  V30 35 H 36.667399 26.997739 54.618679 0
M  V30 36 H 36.468654 28.072684 53.232929 0
M  V30 37 H 37.729122 26.962355 56.441661 0
M  V30 38 H 36.872812 27.379835 57.857506 0
M  V30 39 H 39.838364 30.856177 54.725937 0
M  V30 40 H 37.183069 34.434312 61.059171 0
M  V30 41 H 36.588653 33.996696 59.439116 0
M  V30 42 H 35.644529 33.557904 60.883058 0
M  V30 43 H 39.204255 27.007037 54.143783 0
M  V30 44 H 40.367554 31.650629 52.260733 0
M  V30 45 H 38.624538 30.516329 57.962952 0
M  V30 46 H 37.199151 29.954085 57.134747 0
M  V30 END ATOM
M  V30 BEGIN BOND
M  V30 1 2 4 2
M  V30 2 1 4 3
M  V30 3 1 8 5
M  V30 4 1 9 6
M  V30 5 1 10 1
M  V30 6 1 12 1
M  V30 7 1 13 6
M  V30 8 1 13 12
M  V30 9 1 15 7
M  V30 10 1 15 10
M  V30 11 1 16 2
M  V30 12 2 16 7
M  V30 13 1 18 10
M  V30 14 1 18 11
M  V30 15 1 18 16
M  V30 16 2 19 3
M  V30 17 1 19 7
M  V30 18 1 20 3
M  V30 19 1 21 5
M  V30 20 1 21 12
M  V30 21 1 23 8
M  V30 22 2 23 14
M  V30 23 1 23 17
M  V30 24 2 23 22
M  V30 25 1 24 2
M  V30 26 1 25 4
M  V30 27 1 26 5
M  V30 28 1 27 5
M  V30 29 1 28 6
M  V30 30 1 29 6
M  V30 31 1 30 8
M  V30 32 1 31 8
M  V30 33 1 32 9
M  V30 34 1 10 33 CFG=1
M  V30 35 1 34 11
M  V30 36 1 35 11
M  V30 37 1 36 11
M  V30 38 1 37 13
M  V30 39 1 38 13
M  V30 40 1 39 15
M  V30 41 1 40 17
M  V30 42 1 41 17
M  V30 43 1 42 17
M  V30 44 1 18 43 CFG=1
M  V30 45 1 44 19
M  V30 46 1 45 21
M  V30 47 1 46 21
M  V30 END BOND
M  V30 END CTAB
M  END
>  <i_epik_Tot_Q>  (1) 
0

>  <i_epik_Tot_abs_Q>  (1) 
0

>  <i_i_glide_confnum>  (1) 
49

>  <i_i_glide_lignum>  (1) 
45

>  <i_i_glide_posenum>  (1) 
219

>  <i_i_glide_rotatable_bonds>  (1) 
9

>  <i_lp_mmshare_version>  (1) 
72125

>  <i_m_source_file_index>  (1) 
16

>  <i_f3d_flags>  (1) 
0

>  <num_sample>  (1) 
50

>  <b_lp_Chiralities_Consistent>  (1) 
1

>  <r_epik_Charging_Adjusted_Penalty>  (1) 
0

>  <r_epik_Ionization_Penalty>  (1) 
0.0018364177228642131

>  <r_epik_Ionization_Penalty_Charging>  (1) 
0

>  <r_epik_Ionization_Penalty_Neutral>  (1) 
0.0018364177228642131

>  <r_epik_State_Penalty>  (1) 
-0

>  <r_glide_ring_energy>  (1) 
0

>  <r_i_docking_score>  (1) 
-6.7132435769847074

>  <r_i_glide_ecoul>  (1) 
-5.0063764706342342

>  <r_i_glide_eff_state_penalty>  (1) 
-0

>  <r_i_glide_einternal>  (1) 
5.7698231066730585

>  <r_i_glide_emodel>  (1) 
-54.812266935609308

>  <r_i_glide_emodel_strain>  (1) 
1.838238318878993

>  <r_i_glide_energy>  (1) 
-41.33779635083792

>  <r_i_glide_erotb>  (1) 
1.0229839614613039

>  <r_i_glide_esite>  (1) 
-0.0070703647457824315

>  <r_i_glide_evdw>  (1) 
-36.331419880203683

>  <r_i_glide_gscore>  (1) 
-6.7132435769847074

>  <r_i_glide_gscore_strain>  (1) 
0

>  <r_i_glide_hbond>  (1) 
0

>  <r_i_glide_ligand_efficiency>  (1) 
-0.29188015552107421

>  <r_i_glide_ligand_efficiency_ln>  (1) 
-1.6233231692421548

>  <r_i_glide_ligand_efficiency_sa>  (1) 
-0.83006833636032262

>  <r_i_glide_lipo>  (1) 
-3.1111262596376252

>  <r_i_glide_metal>  (1) 
-0

>  <r_i_glide_rewards>  (1) 
-2.0505034494572842

>  <r_lp_Energy>  (1) 
-13.942229999999999

>  <r_lp_tautomer_probability>  (1) 
1

>  <s_epik_Chemistry_Notes>  (1) 
This compound contains an acetal/aminal-like group ( X-CH(R)-Y where X, Y are N, S, or O) that may be acid/base labile, releasing an aldehyde. This compound has a N-S or N-O group and may undergo hydrolysis at high or low pH.

>  <s_epik_cmdline>  (1) 
J2VwaWtfcHl0aG9uJywgJy1waHQnLCAnMS4wJywgJy1waCcsICc3LjQnLCAnLXRuJywgJzgnLCAnLW1hJywgJzUwMCcsICctaW1hZScsICc8aW5maWxlLm1hZT4nLCAnLW9tYWUnLCAnPG91dGZpbGUubWFlPic=

>  <s_epik_input>  (1) 
Tz1TKD1PKShbQ0gzXSlbQ0gyXVtDSDJdW0NIMl1OKFtDSDJdW0NIMl1bT0hdKVNbQ0BASF0oW05IXTEpW0NAQEhdKFtDSDNdKWMoYzEyKVtjSF1bY0hdYyhGKVtjSF0y

>  <s_glide_docking_method>  (1) 
confgen

>  <s_i_glide_gridfile>  (1) 
gpcr_5ht2c_6bqh_protein_autoprepared_prepared

>  <s_lp_Force_Field>  (1) 
S-OPLS

>  <s_lp_Variant>  (1) 
DiffSBDD_15_num_sample_50-1

>  <s_m_source_file>  (1) 
generated__ligand_DiffSBDD_2026-05-06_prepared.sdf

>  <GenAI_Model>  (1) 
DiffSBDD

>  <Protein>  (1) 
GPCR_5HT2C

$$$$
DiffSBDD_19_num_sample_50
     RDKit          3D

  0  0  0  0  0  0  0  0  0  0999 V3000
M  V30 BEGIN CTAB
M  V30 COUNTS 46 49 0 0 1
M  V30 BEGIN ATOM
M  V30 1 N 38.072625 34.789881 60.253669 0
M  V30 2 C 38.298528 31.835884 57.169641 0
M  V30 3 C 37.407423 36.073576 60.481626 0
M  V30 4 C 38.469517 30.298907 59.279417 0
M  V30 5 N 39.027942 29.348092 58.469068 0
M  V30 6 C 38.203537 30.553665 56.365462 0
M  V30 7 C 37.880415 31.567727 58.620182 0 CFG=1
M  V30 8 F 37.022855 37.698660 62.114391 0
M  V30 9 O 36.276738 33.808116 59.095743 0
M  V30 10 O 38.413056 30.172128 60.503919 0
M  V30 11 N 38.960335 36.496750 62.320910 0
M  V30 12 N 38.472909 25.883633 56.228792 0
M  V30 13 C 39.266469 28.196117 56.148802 0 CFG=1
M  V30 14 O 38.242825 32.696638 59.417143 0
M  V30 15 C 38.424054 27.905099 54.895344 0
M  V30 16 O 39.023987 36.826279 63.729523 0
M  V30 17 C 39.562590 35.172001 62.193868 0
M  V30 18 C 39.148878 29.518456 56.979262 0 CFG=2
M  V30 19 C 39.585064 28.099613 59.054116 0
M  V30 20 C 37.544508 36.483638 61.953502 0 CFG=2
M  V30 21 C 38.965367 26.960724 56.933874 0
M  V30 22 C 39.114295 26.911043 58.254219 0
M  V30 23 C 39.459380 34.652930 60.746958 0
M  V30 24 C 37.420380 33.764307 59.546256 0
M  V30 25 C 38.184779 26.423347 55.121631 0
M  V30 26 H 37.649972 32.594658 56.728513 0
M  V30 27 H 39.313238 32.234360 57.128983 0
M  V30 28 H 37.870142 36.820567 59.835650 0
M  V30 29 H 36.350994 36.047289 60.209709 0
M  V30 30 H 38.471433 30.751255 55.326982 0
M  V30 31 H 37.173760 30.190869 56.367550 0
M  V30 32 H 36.801676 31.404114 58.653526 0
M  V30 33 H 38.963101 28.089919 53.965960 0
M  V30 34 H 38.496190 36.149155 64.123985 0
M  V30 35 H 40.609717 35.222152 62.496272 0
M  V30 36 H 39.067404 34.469652 62.864743 0
M  V30 37 H 40.135397 29.971436 56.885270 0
M  V30 38 H 40.674991 28.135803 59.047739 0
M  V30 39 H 39.276239 27.941420 60.088161 0
M  V30 40 H 36.969952 35.808016 62.587800 0
M  V30 41 H 38.876623 26.008804 58.798627 0
M  V30 42 H 40.109596 35.245156 60.103716 0
M  V30 43 H 39.870225 33.643972 60.738632 0
M  V30 44 H 37.756800 25.868228 54.282867 0
M  V30 45 H 40.315642 28.093227 55.863086 0
M  V30 46 H 37.467427 28.425049 54.877844 0
M  V30 END ATOM
M  V30 BEGIN BOND
M  V30 1 1 3 1
M  V30 2 1 5 4
M  V30 3 1 6 2
M  V30 4 1 7 2
M  V30 5 1 7 4
M  V30 6 2 10 4
M  V30 7 1 14 7
M  V30 8 1 15 13
M  V30 9 1 16 11
M  V30 10 1 17 11
M  V30 11 1 18 5
M  V30 12 1 18 6
M  V30 13 1 18 13
M  V30 14 1 19 5
M  V30 15 1 20 3
M  V30 16 1 20 8
M  V30 17 1 20 11
M  V30 18 1 21 12
M  V30 19 1 21 13
M  V30 20 1 22 19
M  V30 21 2 22 21
M  V30 22 1 23 1
M  V30 23 1 23 17
M  V30 24 1 24 1
M  V30 25 2 24 9
M  V30 26 1 24 14
M  V30 27 2 25 12
M  V30 28 1 25 15
M  V30 29 1 26 2
M  V30 30 1 27 2
M  V30 31 1 28 3
M  V30 32 1 29 3
M  V30 33 1 30 6
M  V30 34 1 31 6
M  V30 35 1 7 32 CFG=3
M  V30 36 1 33 15
M  V30 37 1 34 16
M  V30 38 1 35 17
M  V30 39 1 36 17
M  V30 40 1 18 37 CFG=1
M  V30 41 1 38 19
M  V30 42 1 39 19
M  V30 43 1 20 40 CFG=1
M  V30 44 1 41 22
M  V30 45 1 42 23
M  V30 46 1 43 23
M  V30 47 1 44 25
M  V30 48 1 13 45 CFG=3
M  V30 49 1 46 15
M  V30 END BOND
M  V30 END CTAB
M  END
>  <i_epik_Tot_Q>  (1) 
0

>  <i_epik_Tot_abs_Q>  (1) 
0

>  <i_i_glide_confnum>  (1) 
13

>  <i_i_glide_lignum>  (1) 
52

>  <i_i_glide_posenum>  (1) 
80

>  <i_i_glide_rotatable_bonds>  (1) 
4

>  <i_lp_mmshare_version>  (1) 
72125

>  <i_m_source_file_index>  (1) 
20

>  <i_f3d_flags>  (1) 
0

>  <num_sample>  (1) 
50

>  <b_lp_Chiralities_Consistent>  (1) 
1

>  <r_epik_Charging_Adjusted_Penalty>  (1) 
0

>  <r_epik_Ionization_Penalty>  (1) 
0.00023690808741792311

>  <r_epik_Ionization_Penalty_Charging>  (1) 
0

>  <r_epik_Ionization_Penalty_Neutral>  (1) 
0.00023690808741792311

>  <r_epik_State_Penalty>  (1) 
-0

>  <r_glide_ring_energy>  (1) 
0

>  <r_i_docking_score>  (1) 
-6.7120239189936051

>  <r_i_glide_ecoul>  (1) 
-0.25233509615534333

>  <r_i_glide_eff_state_penalty>  (1) 
-0

>  <r_i_glide_einternal>  (1) 
0.54035025355199551

>  <r_i_glide_emodel>  (1) 
-59.717551850418751

>  <r_i_glide_emodel_strain>  (1) 
0

>  <r_i_glide_energy>  (1) 
-42.244645424675141

>  <r_i_glide_erotb>  (1) 
0.46110279215177946

>  <r_i_glide_esite>  (1) 
-0.018134028684105376

>  <r_i_glide_evdw>  (1) 
-41.9923103285198

>  <r_i_glide_gscore>  (1) 
-6.7120239189936051

>  <r_i_glide_gscore_strain>  (1) 
0

>  <r_i_glide_hbond>  (1) 
0

>  <r_i_glide_ligand_efficiency>  (1) 
-0.2684809567597442

>  <r_i_glide_ligand_efficiency_ln>  (1) 
-1.5909508119270828

>  <r_i_glide_ligand_efficiency_sa>  (1) 
-0.78504307993785361

>  <r_i_glide_lipo>  (1) 
-1.9711061280626425

>  <r_i_glide_metal>  (1) 
-0

>  <r_i_glide_rewards>  (1) 
-3.0464207735493449

>  <r_lp_Energy>  (1) 
47.194033999999995

>  <r_lp_tautomer_probability>  (1) 
1

>  <s_epik_Chemistry_Notes>  (1) 
This compound has an ester and may undergo hydrolysis at high or low pH. This compound has an imine and may undergo hydrolysis. This compound has a N-S or N-O group and may undergo hydrolysis at high or low pH.

>  <s_epik_cmdline>  (1) 
J2VwaWtfcHl0aG9uJywgJy1waHQnLCAnMS4wJywgJy1waCcsICc3LjQnLCAnLXRuJywgJzgnLCAnLW1hJywgJzUwMCcsICctaW1hZScsICc8aW5maWxlLm1hZT4nLCAnLW9tYWUnLCAnPG91dGZpbGUubWFlPic=

>  <s_epik_input>  (1) 
W0NIMl0xW0NIMl1OKFtPSF0pW0NAQEhdKEYpW0NIMl1OMUMoPU8pT1tDQEhdKEMyPU8pW0NIMl1bQ0gyXVtDQEBIXShOMjMpQz00QyhbQ0gyXVtDSDJdMyk9TltDSDJdW0NIXTQ=

>  <s_glide_docking_method>  (1) 
confgen

>  <s_i_glide_gridfile>  (1) 
gpcr_5ht2c_6bqh_protein_autoprepared_prepared

>  <s_lp_Force_Field>  (1) 
S-OPLS

>  <s_lp_Variant>  (1) 
DiffSBDD_19_num_sample_50-1

>  <s_m_source_file>  (1) 
generated__ligand_DiffSBDD_2026-05-06_prepared.sdf

>  <GenAI_Model>  (1) 
DiffSBDD

>  <Protein>  (1) 
GPCR_5HT2C

$$$$
DiffSBDD_17_num_sample_50
     RDKit          3D

  0  0  0  0  0  0  0  0  0  0999 V3000
M  V30 BEGIN CTAB
M  V30 COUNTS 67 69 0 0 1
M  V30 BEGIN ATOM
M  V30 1 C 37.133710 25.852291 57.403895 0
M  V30 2 S 39.043829 35.658456 61.053494 0
M  V30 3 C 39.658014 28.927642 50.393450 0
M  V30 4 O 40.620088 27.395037 56.633150 0
M  V30 5 C 40.110598 27.879750 57.640867 0
M  V30 6 C 39.517436 30.294472 52.842427 0
M  V30 7 N 38.803064 28.281281 57.634507 0
M  V30 8 C 38.421890 30.228498 59.313696 0 CFG=2
M  V30 9 O 38.069278 30.356327 60.694307 0
M  V30 10 C 35.894615 32.992852 59.231857 0
M  V30 11 C 35.461188 33.798873 60.454756 0
M  V30 12 C 37.642365 26.624578 56.174607 0
M  V30 13 C 37.581687 31.279011 58.570614 0
M  V30 14 O 36.537748 37.952624 61.930709 0 CHG=-1
M  V30 15 C 38.904834 28.386540 51.453459 0
M  V30 16 C 37.971274 28.129882 56.428707 0 CFG=2
M  V30 17 C 38.533252 28.909324 55.211127 0
M  V30 18 C 40.336674 30.142111 50.557668 0
M  V30 19 C 39.067348 29.938733 61.616165 0
M  V30 20 N 37.215274 32.379029 59.490219 0 CFG=1 CHG=1
M  V30 21 C 36.512941 34.844748 60.852999 0 CFG=1
M  V30 22 C 38.273414 33.388033 59.712449 0
M  V30 23 C 37.864018 36.832278 60.297253 0 CFG=2
M  V30 24 C 37.523480 38.049612 61.166268 0
M  V30 25 C 38.008123 28.497454 53.824360 0
M  V30 26 C 37.925568 34.249885 60.943663 0 CFG=1
M  V30 27 C 38.110322 28.780577 58.855230 0
M  V30 28 O 38.265804 39.051552 61.052775 0
M  V30 29 C 36.620659 36.030275 59.886803 0
M  V30 30 S 41.119219 28.021615 59.053500 0 CHG=-1
M  V30 31 C 38.829724 29.072327 52.682224 0
M  V30 32 C 40.267406 30.821380 51.779603 0
M  V30 33 H 36.845308 24.838249 57.127593 0
M  V30 34 H 36.267454 26.334146 57.852992 0
M  V30 35 H 37.903174 25.769861 58.170541 0
M  V30 36 H 39.706746 28.421410 49.453781 0
M  V30 37 H 39.466620 30.832084 53.775455 0
M  V30 38 H 39.467436 30.490579 59.190524 0
M  V30 39 H 35.142972 32.223485 59.053539 0
M  V30 40 H 35.932481 33.621293 58.339722 0
M  V30 41 H 34.507698 34.271542 60.238766 0
M  V30 42 H 35.285842 33.122751 61.292867 0
M  V30 43 H 38.528931 26.114373 55.795912 0
M  V30 44 H 36.892527 26.519959 55.391156 0
M  V30 45 H 38.067994 31.641886 57.663802 0
M  V30 46 H 36.665935 30.794669 58.253453 0
M  V30 47 H 38.378848 27.451032 51.320994 0
M  V30 48 H 37.067520 28.681463 56.653693 0
M  V30 49 H 38.325053 29.965283 55.381699 0
M  V30 50 H 39.615536 28.848676 55.152556 0
M  V30 51 H 40.910701 30.556622 49.741259 0
M  V30 52 H 38.726346 30.131744 62.632737 0
M  V30 53 H 39.998690 30.486480 61.468101 0
M  V30 54 H 39.271829 28.871256 61.542508 0
M  V30 55 H 36.253074 35.233153 61.839470 0
M  V30 56 H 39.234126 32.899147 59.876254 0
M  V30 57 H 38.382759 33.997833 58.815180 0
M  V30 58 H 38.267388 37.221597 59.366927 0
M  V30 59 H 38.054603 27.415622 53.709085 0
M  V30 60 H 36.964272 28.784645 53.706582 0
M  V30 61 H 38.025715 33.647104 61.847677 0
M  V30 62 H 37.034648 28.710046 58.717564 0
M  V30 63 H 38.281917 28.072662 59.665663 0
M  V30 64 H 36.758711 35.680494 58.864626 0
M  V30 65 H 35.718491 36.638447 59.853507 0
M  V30 66 H 40.782855 31.745703 51.901119 0
M  V30 67 H 37.119502 31.890126 60.371550 0
M  V30 END ATOM
M  V30 BEGIN BOND
M  V30 1 2 5 4
M  V30 2 1 7 5
M  V30 3 1 9 8
M  V30 4 1 11 10
M  V30 5 1 12 1
M  V30 6 1 13 8
M  V30 7 1 15 3
M  V30 8 1 16 7
M  V30 9 1 16 12
M  V30 10 1 17 16
M  V30 11 2 18 3
M  V30 12 1 19 9
M  V30 13 1 20 10
M  V30 14 1 20 13
M  V30 15 1 21 11
M  V30 16 1 22 20
M  V30 17 1 23 2
M  V30 18 1 24 14
M  V30 19 1 24 23
M  V30 20 1 25 17
M  V30 21 1 26 2
M  V30 22 1 26 21
M  V30 23 1 26 22
M  V30 24 1 27 7
M  V30 25 1 27 8
M  V30 26 2 28 24
M  V30 27 1 29 21
M  V30 28 1 29 23
M  V30 29 1 30 5
M  V30 30 1 31 6
M  V30 31 2 31 15
M  V30 32 1 31 25
M  V30 33 2 32 6
M  V30 34 1 32 18
M  V30 35 1 33 1
M  V30 36 1 34 1
M  V30 37 1 35 1
M  V30 38 1 36 3
M  V30 39 1 37 6
M  V30 40 1 8 38 CFG=1
M  V30 41 1 39 10
M  V30 42 1 40 10
M  V30 43 1 41 11
M  V30 44 1 42 11
M  V30 45 1 43 12
M  V30 46 1 44 12
M  V30 47 1 45 13
M  V30 48 1 46 13
M  V30 49 1 47 15
M  V30 50 1 16 48 CFG=1
M  V30 51 1 49 17
M  V30 52 1 50 17
M  V30 53 1 51 18
M  V30 54 1 52 19
M  V30 55 1 53 19
M  V30 56 1 54 19
M  V30 57 1 21 55 CFG=1
M  V30 58 1 56 22
M  V30 59 1 57 22
M  V30 60 1 23 58 CFG=3
M  V30 61 1 59 25
M  V30 62 1 60 25
M  V30 63 1 26 61 CFG=1
M  V30 64 1 62 27
M  V30 65 1 63 27
M  V30 66 1 64 29
M  V30 67 1 65 29
M  V30 68 1 66 32
M  V30 69 1 20 67 CFG=1
M  V30 END BOND
M  V30 END CTAB
M  END
>  <i_epik_Tot_Q>  (1) 
-1

>  <i_epik_Tot_abs_Q>  (1) 
3

>  <i_i_glide_confnum>  (1) 
555

>  <i_i_glide_lignum>  (1) 
48

>  <i_i_glide_posenum>  (1) 
206

>  <i_i_glide_rotatable_bonds>  (1) 
12

>  <i_lp_mmshare_version>  (1) 
72125

>  <i_m_source_file_index>  (1) 
18

>  <i_f3d_flags>  (1) 
0

>  <num_sample>  (1) 
50

>  <b_lp_Chiralities_Consistent>  (1) 
1

>  <r_epik_Charging_Adjusted_Penalty>  (1) 
0.068943464179595071

>  <r_epik_Ionization_Penalty>  (1) 
0.034590213650767733

>  <r_epik_Ionization_Penalty_Charging>  (1) 
0.034589667735814351

>  <r_epik_Ionization_Penalty_Neutral>  (1) 
5.4591495337813188e-07

>  <r_epik_State_Penalty>  (1) 
0.034353796443780713

>  <r_glide_ring_energy>  (1) 
0

>  <r_i_docking_score>  (1) 
-6.708578542865669

>  <r_i_glide_ecoul>  (1) 
-1.9206882081907577

>  <r_i_glide_eff_state_penalty>  (1) 
0.034353796443780713

>  <r_i_glide_einternal>  (1) 
20.467951156715007

>  <r_i_glide_emodel>  (1) 
-46.010423988780452

>  <r_i_glide_emodel_strain>  (1) 
5.5654184113056928

>  <r_i_glide_energy>  (1) 
-38.309275815677083

>  <r_i_glide_erotb>  (1) 
0.61675831554288163

>  <r_i_glide_esite>  (1) 
-0.067960762240808756

>  <r_i_glide_evdw>  (1) 
-36.388587607486322

>  <r_i_glide_gscore>  (1) 
-6.7429323393094496

>  <r_i_glide_gscore_strain>  (1) 
0.3913546028264232

>  <r_i_glide_hbond>  (1) 
0

>  <r_i_glide_ligand_efficiency>  (1) 
-0.20964307946455216

>  <r_i_glide_ligand_efficiency_ln>  (1) 
-1.5022336046920788

>  <r_i_glide_ligand_efficiency_sa>  (1) 
-0.66557528975976599

>  <r_i_glide_lipo>  (1) 
-3.9657977767034533

>  <r_i_glide_metal>  (1) 
-0

>  <r_i_glide_rewards>  (1) 
-1.6097541071315624

>  <r_lp_Energy>  (1) 
40.638894999999998

>  <s_epik_cmdline>  (1) 
J2VwaWtfcHl0aG9uJywgJy1waHQnLCAnMS4wJywgJy1waCcsICc3LjQnLCAnLXRuJywgJzgnLCAnLW1hJywgJzUwMCcsICctaW1hZScsICc8aW5maWxlLm1hZT4nLCAnLW9tYWUnLCAnPG91dGZpbGUubWFlPic=

>  <s_epik_input>  (1) 
W2NIXTFbY0hdW2NIXVtjSF1bY0hdYzFbQ0gyXVtDSDJdW0NAQEhdKFtDSDJdW0NIM10pTihDKD1PKVtTSF0pW0NIMl1bQ0hdKE9bQ0gzXSlbQ0gyXU4oW0NIMl1bQ0gyXTIpW0NIMl1bQ0BIXShbQ0BIXTIzKVNbQ0BASF0oW0NIMl0zKUMoPU8pW09IXQ==

>  <s_glide_docking_method>  (1) 
confgen

>  <s_i_glide_gridfile>  (1) 
gpcr_5ht2c_6bqh_protein_autoprepared_prepared

>  <s_lp_Force_Field>  (1) 
S-OPLS

>  <s_lp_Variant>  (1) 
DiffSBDD_17_num_sample_50-1

>  <s_m_source_file>  (1) 
generated__ligand_DiffSBDD_2026-05-06_prepared.sdf

>  <GenAI_Model>  (1) 
DiffSBDD

>  <Protein>  (1) 
GPCR_5HT2C

$$$$
DiffSBDD_34_num_sample_50
     RDKit          3D

  0  0  0  0  0  0  0  0  0  0999 V3000
M  V30 BEGIN CTAB
M  V30 COUNTS 50 51 0 0 1
M  V30 BEGIN ATOM
M  V30 1 C 39.319966 34.890949 60.920363 0 CFG=1
M  V30 2 C 37.693564 29.064750 54.634184 0
M  V30 3 C 39.301724 36.811949 62.583718 0
M  V30 4 C 39.308608 30.225299 62.256803 0
M  V30 5 C 38.044482 31.166105 57.727786 0
M  V30 6 C 39.012676 27.485966 53.079482 0
M  V30 7 C 39.701683 35.446893 62.208731 0
M  V30 8 C 39.857833 33.499633 61.430240 0
M  V30 9 C 40.436217 34.690784 62.964435 0
M  V30 10 C 38.238719 32.343644 59.920962 0
M  V30 11 C 37.988518 34.778334 60.253462 0
M  V30 12 C 38.821569 28.082904 51.670245 0
M  V30 13 C 39.945615 29.041904 51.238331 0
M  V30 14 C 37.525554 33.623151 59.757795 0
M  V30 15 C 39.066576 28.508345 54.234207 0
M  V30 16 O 39.867461 29.310147 49.853342 0
M  V30 17 O 37.825009 30.121894 55.576530 0
M  V30 18 O 37.867375 28.768098 57.427717 0
M  V30 19 O 38.632508 37.544757 61.854958 0
M  V30 20 C 39.348316 32.270057 60.735405 0
M  V30 21 N 40.696541 33.445640 62.438143 0
M  V30 22 C 40.029589 30.948989 61.110024 0
M  V30 23 C 37.687423 31.086343 59.233215 0 CFG=1
M  V30 24 O 36.280785 31.005002 59.405106 0
M  V30 25 C 37.898831 29.883123 56.903984 0
M  V30 26 H 40.017923 35.285363 60.182534 0
M  V30 27 H 37.184215 29.462628 53.757990 0
M  V30 28 H 37.067332 28.263979 55.022755 0
M  V30 29 H 39.646404 37.136712 63.566546 0
M  V30 30 H 39.788119 29.272987 62.483893 0
M  V30 31 H 39.319466 30.823063 63.169599 0
M  V30 32 H 38.267343 30.021366 62.012869 0
M  V30 33 H 39.088335 31.462961 57.632095 0
M  V30 34 H 37.467439 31.957719 57.248700 0
M  V30 35 H 38.214831 26.767321 53.273314 0
M  V30 36 H 39.932831 26.901004 53.081611 0
M  V30 37 H 40.823228 34.949427 63.940956 0
M  V30 38 H 37.422823 35.689865 60.122685 0
M  V30 39 H 37.857678 28.587127 51.601586 0
M  V30 40 H 38.775261 27.253882 50.961503 0
M  V30 41 H 40.922891 28.608064 51.451711 0
M  V30 42 H 39.883504 29.984830 51.782449 0
M  V30 43 H 36.576389 33.626297 59.240268 0
M  V30 44 H 39.502024 28.019560 55.107300 0
M  V30 45 H 39.740118 29.330268 53.989524 0
M  V30 46 H 38.994602 29.620497 49.633910 0
M  V30 47 H 40.115817 30.299834 60.240433 0
M  V30 48 H 41.065141 31.126691 61.398728 0
M  V30 49 H 38.080968 30.168882 59.662040 0
M  V30 50 H 35.867382 31.247913 58.573048 0
M  V30 END ATOM
M  V30 BEGIN BOND
M  V30 1 1 7 1
M  V30 2 1 7 3
M  V30 3 1 8 1
M  V30 4 2 9 7
M  V30 5 1 11 1
M  V30 6 1 12 6
M  V30 7 1 13 12
M  V30 8 1 14 10
M  V30 9 2 14 11
M  V30 10 1 15 2
M  V30 11 1 15 6
M  V30 12 1 16 13
M  V30 13 1 17 2
M  V30 14 2 19 3
M  V30 15 1 20 8
M  V30 16 2 20 10
M  V30 17 2 21 8
M  V30 18 1 21 9
M  V30 19 1 22 4
M  V30 20 1 22 20
M  V30 21 1 23 5
M  V30 22 1 23 10
M  V30 23 1 24 23
M  V30 24 1 25 5
M  V30 25 1 25 17
M  V30 26 2 25 18
M  V30 27 1 1 26 CFG=3
M  V30 28 1 27 2
M  V30 29 1 28 2
M  V30 30 1 29 3
M  V30 31 1 30 4
M  V30 32 1 31 4
M  V30 33 1 32 4
M  V30 34 1 33 5
M  V30 35 1 34 5
M  V30 36 1 35 6
M  V30 37 1 36 6
M  V30 38 1 37 9
M  V30 39 1 38 11
M  V30 40 1 39 12
M  V30 41 1 40 12
M  V30 42 1 41 13
M  V30 43 1 42 13
M  V30 44 1 43 14
M  V30 45 1 44 15
M  V30 46 1 45 15
M  V30 47 1 46 16
M  V30 48 1 47 22
M  V30 49 1 48 22
M  V30 50 1 23 49 CFG=1
M  V30 51 1 50 24
M  V30 END BOND
M  V30 END CTAB
M  END
>  <i_epik_Tot_Q>  (1) 
0

>  <i_epik_Tot_abs_Q>  (1) 
0

>  <i_i_glide_confnum>  (1) 
375

>  <i_i_glide_lignum>  (1) 
87

>  <i_i_glide_posenum>  (1) 
154

>  <i_i_glide_rotatable_bonds>  (1) 
13

>  <i_lp_mmshare_version>  (1) 
72125

>  <i_m_source_file_index>  (1) 
35

>  <i_f3d_flags>  (1) 
0

>  <num_sample>  (1) 
50

>  <b_lp_Chiralities_Consistent>  (1) 
1

>  <r_epik_Charging_Adjusted_Penalty>  (1) 
0.012701380709717016

>  <r_epik_Ionization_Penalty>  (1) 
0.012701608846652416

>  <r_epik_Ionization_Penalty_Charging>  (1) 
0

>  <r_epik_Ionization_Penalty_Neutral>  (1) 
0.012701608846652416

>  <r_epik_State_Penalty>  (1) 
0.012701380709717016

>  <r_glide_ring_energy>  (1) 
0

>  <r_i_docking_score>  (1) 
-6.7038730395743134

>  <r_i_glide_ecoul>  (1) 
-8.1609631573912225

>  <r_i_glide_eff_state_penalty>  (1) 
0.012701380709717016

>  <r_i_glide_einternal>  (1) 
3.7313902886895809

>  <r_i_glide_emodel>  (1) 
-65.401771655080452

>  <r_i_glide_emodel_strain>  (1) 
0.53889139673135844

>  <r_i_glide_energy>  (1) 
-47.702388691177944

>  <r_i_glide_erotb>  (1) 
1.4185672597553849

>  <r_i_glide_esite>  (1) 
-0.062343852329072851

>  <r_i_glide_evdw>  (1) 
-39.541425533786722

>  <r_i_glide_gscore>  (1) 
-6.7165744202840303

>  <r_i_glide_gscore_strain>  (1) 
0

>  <r_i_glide_hbond>  (1) 
-0.45599999999999996

>  <r_i_glide_ligand_efficiency>  (1) 
-0.26815492158297255

>  <r_i_glide_ligand_efficiency_ln>  (1) 
-1.589018809242565

>  <r_i_glide_ligand_efficiency_sa>  (1) 
-0.78408974729769187

>  <r_i_glide_lipo>  (1) 
-2.3198920112313188

>  <r_i_glide_metal>  (1) 
-0

>  <r_i_glide_rewards>  (1) 
-2.0956900661810032

>  <r_lp_Energy>  (1) 
19.135596

>  <s_epik_Chemistry_Notes>  (1) 
This compound has an ester and may undergo hydrolysis at high or low pH. This compound has an imine and may undergo hydrolysis.

>  <s_epik_cmdline>  (1) 
J2VwaWtfcHl0aG9uJywgJy1waHQnLCAnMS4wJywgJy1waCcsICc3LjQnLCAnLXRuJywgJzgnLCAnLW1hJywgJzUwMCcsICctaW1hZScsICc8aW5maWxlLm1hZT4nLCAnLW9tYWUnLCAnPG91dGZpbGUubWFlPic=

>  <s_epik_input>  (1) 
Tz1bQ0hdQzE9W0NIXU49QyhbQ0BIXTEyKUMoW0NIMl1bQ0gzXSk9QyhbQ0hdPVtDSF0yKVtDQEBIXShbT0hdKVtDSDJdQyg9TylPW0NIMl1bQ0gyXVtDSDJdW0NIMl1bQ0gyXVtPSF0=

>  <s_glide_docking_method>  (1) 
confgen

>  <s_i_glide_gridfile>  (1) 
gpcr_5ht2c_6bqh_protein_autoprepared_prepared

>  <s_lp_Force_Field>  (1) 
S-OPLS

>  <s_lp_Variant>  (1) 
DiffSBDD_34_num_sample_50-1

>  <s_m_source_file>  (1) 
generated__ligand_DiffSBDD_2026-05-06_prepared.sdf

>  <GenAI_Model>  (1) 
DiffSBDD

>  <Protein>  (1) 
GPCR_5HT2C

$$$$
DiffSBDD_37_num_sample_50
     RDKit          3D

  0  0  0  0  0  0  0  0  0  0999 V3000
M  V30 BEGIN CTAB
M  V30 COUNTS 62 64 0 0 1
M  V30 BEGIN ATOM
M  V30 1 C 38.626249 28.730381 56.710816 0
M  V30 2 F 39.467468 30.021485 52.129489 0
M  V30 3 C 38.667998 35.785951 60.253548 0
M  V30 4 C 38.293152 29.374135 59.608575 0
M  V30 5 C 38.516082 27.611619 57.736207 0
M  V30 6 N 39.066772 29.057514 53.024915 0
M  V30 7 C 37.017396 38.559703 61.518042 0 CFG=1
M  V30 8 C 37.261610 31.520720 58.810845 0
M  V30 9 C 35.887911 39.379990 62.117690 0
M  V30 10 C 38.713033 31.110060 56.115577 0
M  V30 11 C 38.585123 30.104997 57.103689 0
M  V30 12 C 38.427434 30.517046 58.589070 0 CFG=2
M  V30 13 S 39.404413 28.021444 59.245961 0
M  V30 14 O 34.885644 38.532000 62.653527 0
M  V30 15 C 38.904517 29.405059 54.374512 0
M  V30 16 C 37.193297 36.796352 63.456644 0
M  V30 17 C 38.873201 30.761183 54.759863 0
M  V30 18 C 37.623735 37.267484 62.078403 0 CFG=1
M  V30 19 C 38.954901 32.970053 61.759437 0
M  V30 20 C 34.847257 32.979917 59.875025 0
M  V30 21 C 38.252880 33.192570 60.411317 0 CFG=2
M  V30 22 C 35.894401 32.292886 60.780926 0
M  V30 23 C 38.778367 28.396089 55.349797 0
M  V30 24 F 39.249595 27.732067 52.694231 0
M  V30 25 C 37.665141 34.613620 60.260535 0
M  V30 26 O 36.606738 37.295555 61.056657 0
M  V30 27 N 37.251747 32.100065 60.182496 0 CFG=1 CHG=1
M  V30 28 O 37.867429 39.281439 60.653585 0
M  V30 29 C 38.875548 36.551093 61.577517 0
M  V30 30 H 38.267566 36.508956 59.535322 0
M  V30 31 H 39.638617 35.446869 59.885077 0
M  V30 32 H 38.498391 29.722493 60.619714 0
M  V30 33 H 37.273221 28.993530 59.608666 0
M  V30 34 H 37.468010 27.393740 57.941384 0
M  V30 35 H 38.953978 26.698543 57.332211 0
M  V30 36 H 36.334838 30.969203 58.653572 0
M  V30 37 H 37.270495 32.343393 58.097118 0
M  V30 38 H 35.467397 40.021375 61.351185 0
M  V30 39 H 36.267344 40.035573 62.899244 0
M  V30 40 H 38.693457 32.152142 56.398821 0
M  V30 41 H 39.362444 31.013284 58.827495 0
M  V30 42 H 35.301744 37.817686 63.112143 0
M  V30 43 H 38.036455 36.421455 64.035604 0
M  V30 44 H 36.778422 37.614551 64.036028 0
M  V30 45 H 36.433090 36.021448 63.368784 0
M  V30 46 H 38.972397 31.537385 54.014541 0
M  V30 47 H 39.774475 33.673754 61.901189 0
M  V30 48 H 38.269340 33.081494 62.597848 0
M  V30 49 H 39.388704 31.970652 61.814770 0
M  V30 50 H 33.951202 33.221473 60.446363 0
M  V30 51 H 35.186757 33.916711 59.443562 0
M  V30 52 H 34.535573 32.336083 59.053584 0
M  V30 53 H 39.028811 33.096221 59.651607 0
M  V30 54 H 35.508675 31.308366 61.047202 0
M  V30 55 H 35.982650 32.829154 61.726310 0
M  V30 56 H 38.806849 27.356969 55.054801 0
M  V30 57 H 36.884252 34.798134 60.996825 0
M  V30 58 H 37.182135 34.651511 59.284377 0
M  V30 59 H 37.312414 39.618252 59.960272 0
M  V30 60 H 39.655346 37.302193 61.453587 0
M  V30 61 H 39.255672 35.865618 62.333035 0
M  V30 62 H 37.627383 31.345505 60.736316 0
M  V30 END ATOM
M  V30 BEGIN BOND
M  V30 1 1 5 1
M  V30 2 1 6 2
M  V30 3 1 9 7
M  V30 4 2 11 1
M  V30 5 1 11 10
M  V30 6 1 12 4
M  V30 7 1 12 8
M  V30 8 1 12 11
M  V30 9 1 13 4
M  V30 10 1 13 5
M  V30 11 1 14 9
M  V30 12 1 15 6
M  V30 13 2 17 10
M  V30 14 1 17 15
M  V30 15 1 18 7
M  V30 16 1 18 16 CFG=1
M  V30 17 1 21 19
M  V30 18 1 22 20
M  V30 19 1 23 1
M  V30 20 2 23 15
M  V30 21 1 24 6
M  V30 22 1 25 3
M  V30 23 1 25 21
M  V30 24 1 26 7
M  V30 25 1 26 18
M  V30 26 1 27 8
M  V30 27 1 27 21
M  V30 28 1 27 22
M  V30 29 1 7 28 CFG=3
M  V30 30 1 29 3
M  V30 31 1 29 18
M  V30 32 1 30 3
M  V30 33 1 31 3
M  V30 34 1 32 4
M  V30 35 1 33 4
M  V30 36 1 34 5
M  V30 37 1 35 5
M  V30 38 1 36 8
M  V30 39 1 37 8
M  V30 40 1 38 9
M  V30 41 1 39 9
M  V30 42 1 40 10
M  V30 43 1 12 41 CFG=1
M  V30 44 1 42 14
M  V30 45 1 43 16
M  V30 46 1 44 16
M  V30 47 1 45 16
M  V30 48 1 46 17
M  V30 49 1 47 19
M  V30 50 1 48 19
M  V30 51 1 49 19
M  V30 52 1 50 20
M  V30 53 1 51 20
M  V30 54 1 52 20
M  V30 55 1 21 53 CFG=3
M  V30 56 1 54 22
M  V30 57 1 55 22
M  V30 58 1 56 23
M  V30 59 1 57 25
M  V30 60 1 58 25
M  V30 61 1 59 28
M  V30 62 1 60 29
M  V30 63 1 61 29
M  V30 64 1 27 62 CFG=1
M  V30 END BOND
M  V30 END CTAB
M  END
>  <i_epik_Tot_Q>  (1) 
1

>  <i_epik_Tot_abs_Q>  (1) 
1

>  <i_i_glide_confnum>  (1) 
935

>  <i_i_glide_lignum>  (1) 
92

>  <i_i_glide_posenum>  (1) 
126

>  <i_i_glide_rotatable_bonds>  (1) 
12

>  <i_lp_mmshare_version>  (1) 
72125

>  <i_m_source_file_index>  (1) 
38

>  <i_f3d_flags>  (1) 
0

>  <num_sample>  (1) 
50

>  <b_lp_Chiralities_Consistent>  (1) 
1

>  <r_epik_Charging_Adjusted_Penalty>  (1) 
0.031037112904587178

>  <r_epik_Ionization_Penalty>  (1) 
0.015538636701717824

>  <r_epik_Ionization_Penalty_Charging>  (1) 
0.015518556452293627

>  <r_epik_Ionization_Penalty_Neutral>  (1) 
2.0080249424197063e-05

>  <r_epik_State_Penalty>  (1) 
0.015518556452293551

>  <r_glide_ring_energy>  (1) 
0

>  <r_i_docking_score>  (1) 
-6.7029104015361156

>  <r_i_glide_ecoul>  (1) 
-3.7213619868146419

>  <r_i_glide_eff_state_penalty>  (1) 
0.015518556452293551

>  <r_i_glide_einternal>  (1) 
13.434313260127336

>  <r_i_glide_emodel>  (1) 
-50.468636514456229

>  <r_i_glide_emodel_strain>  (1) 
4.0499466418013341

>  <r_i_glide_energy>  (1) 
-38.224528223164626

>  <r_i_glide_erotb>  (1) 
0.85436837262661747

>  <r_i_glide_esite>  (1) 
-0.034966207711199397

>  <r_i_glide_evdw>  (1) 
-34.503166236349983

>  <r_i_glide_gscore>  (1) 
-6.7184289579884089

>  <r_i_glide_gscore_strain>  (1) 
0.012486660450333531

>  <r_i_glide_hbond>  (1) 
-0.32000000000000001

>  <r_i_glide_ligand_efficiency>  (1) 
-0.23113484143227986

>  <r_i_glide_ligand_efficiency_ln>  (1) 
-1.534796510809499

>  <r_i_glide_ligand_efficiency_sa>  (1) 
-0.71011946233462375

>  <r_i_glide_lipo>  (1) 
-2.4495178211947555

>  <r_i_glide_metal>  (1) 
-0

>  <r_i_glide_rewards>  (1) 
-2.4974373523197091

>  <r_lp_Energy>  (1) 
38.592610000000001

>  <s_epik_cmdline>  (1) 
J2VwaWtfcHl0aG9uJywgJy1waHQnLCAnMS4wJywgJy1waCcsICc3LjQnLCAnLXRuJywgJzgnLCAnLW1hJywgJzUwMCcsICctaW1hZScsICc8aW5maWxlLm1hZT4nLCAnLW9tYWUnLCAnPG91dGZpbGUubWFlPic=

>  <s_epik_input>  (1) 
Rk4oRiljKFtjSF0xKVtjSF1bY0hdYyhjMTIpW0NASF0oW0NIMl1TW0NIMl0yKVtDSDJdTihbQ0gyXVtDSDNdKVtDQEhdKFtDSDNdKVtDSDJdW0NIMl1bQ0gyXVtDQEBdKE8zKShbQ0gzXSlDMyhbT0hdKVtDSDJdW09IXQ==

>  <s_glide_docking_method>  (1) 
confgen

>  <s_i_glide_gridfile>  (1) 
gpcr_5ht2c_6bqh_protein_autoprepared_prepared

>  <s_lp_Force_Field>  (1) 
S-OPLS

>  <s_lp_Variant>  (1) 
DiffSBDD_37_num_sample_50-2

>  <s_m_source_file>  (1) 
generated__ligand_DiffSBDD_2026-05-06_prepared.sdf

>  <GenAI_Model>  (1) 
DiffSBDD

>  <Protein>  (1) 
GPCR_5HT2C

$$$$
DiffSBDD_10_num_sample_50
     RDKit          3D

  0  0  0  0  0  0  0  0  0  0999 V3000
M  V30 BEGIN CTAB
M  V30 COUNTS 65 67 0 0 1
M  V30 BEGIN ATOM
M  V30 1 C 38.826336 30.004573 58.407861 0
M  V30 2 C 39.552339 28.822760 57.772259 0
M  V30 3 C 39.519722 29.204958 51.545017 0
M  V30 4 N 38.325809 29.254807 55.626962 0
M  V30 5 O 38.321916 37.644552 61.422304 0 CHG=-1
M  V30 6 O 39.413881 33.342678 58.952407 0
M  V30 7 C 41.246609 33.442406 61.890782 0
M  V30 8 C 38.762008 28.137833 52.062285 0
M  V30 9 C 38.567534 32.670745 62.252631 0
M  V30 10 O 36.280146 36.868498 62.770192 0
M  V30 11 N 40.543526 35.623569 61.116632 0
M  V30 12 C 38.356225 28.144243 53.413178 0
M  V30 13 C 37.456028 35.162145 59.956700 0
M  V30 14 C 40.217102 34.355210 61.597731 0
M  V30 15 C 38.826839 28.190332 56.549352 0 CFG=1
M  V30 16 C 40.016871 25.917503 56.938906 0
M  V30 17 C 38.725955 29.229922 54.263383 0
M  V30 18 O 38.643948 36.425540 63.638237 0
M  V30 19 C 37.878219 30.552255 56.156079 0
M  V30 20 N 37.784317 32.152173 57.940105 0
M  V30 21 C 39.820300 27.116882 55.998905 0
M  V30 22 P 37.897828 36.599354 62.376877 0
M  V30 23 C 39.286282 30.388805 63.053602 0
M  V30 24 C 40.944699 32.156256 62.363940 0
M  V30 25 C 38.231839 33.163681 58.691857 0
M  V30 26 N 37.234556 33.957837 59.131546 0
M  V30 27 C 39.867390 30.289995 52.370955 0
M  V30 28 O 37.576973 27.121637 53.887034 0
M  V30 29 F 39.906372 29.192322 50.247801 0
M  V30 30 C 39.467366 30.309458 53.722695 0
M  V30 31 C 38.859932 33.968948 61.783544 0
M  V30 32 C 38.639592 31.116534 57.371294 0 CFG=1
M  V30 33 C 37.704408 34.932127 61.466193 0 CFG=2
M  V30 34 C 39.607589 31.769498 62.543639 0
M  V30 35 H 39.397263 30.375951 59.260283 0
M  V30 36 H 37.860601 29.676059 58.798449 0
M  V30 37 H 40.546960 29.159862 57.478988 0
M  V30 38 H 39.704521 28.075528 58.549690 0
M  V30 39 H 42.267263 33.728247 61.749044 0
M  V30 40 H 38.482004 27.316831 51.418006 0
M  V30 41 H 37.540526 32.367886 62.390854 0
M  V30 42 H 36.126442 36.429147 63.592017 0
M  V30 43 H 41.500339 35.943813 61.125395 0
M  V30 44 H 39.830240 36.344843 61.041195 0
M  V30 45 H 38.267403 35.760252 59.564621 0
M  V30 46 H 36.571168 35.790230 59.846412 0
M  V30 47 H 37.932833 27.675117 56.901266 0
M  V30 48 H 40.539947 25.120344 56.414206 0
M  V30 49 H 40.608290 26.164922 57.820393 0
M  V30 50 H 39.061278 25.510516 57.268799 0
M  V30 51 H 37.783693 31.311482 55.379269 0
M  V30 52 H 36.851610 30.354989 56.463299 0
M  V30 53 H 36.784294 32.083293 57.747211 0
M  V30 54 H 39.527396 26.662588 55.065997 0
M  V30 55 H 40.787102 27.576198 55.794269 0
M  V30 56 H 40.073944 29.677161 62.801744 0
M  V30 57 H 39.182798 30.421375 64.137470 0
M  V30 58 H 38.351784 30.022889 62.629258 0
M  V30 59 H 41.742612 31.464248 62.588774 0
M  V30 60 H 36.284610 33.738718 58.868271 0
M  V30 61 H 40.442521 31.110608 51.966649 0
M  V30 62 H 37.293943 26.524016 53.210883 0
M  V30 63 H 39.744462 31.145125 54.349503 0
M  V30 64 H 39.598450 31.519794 57.048012 0
M  V30 65 H 36.796035 34.470366 61.853272 0
M  V30 END ATOM
M  V30 BEGIN BOND
M  V30 1 1 2 1
M  V30 2 2 8 3
M  V30 3 1 12 8
M  V30 4 1 14 7
M  V30 5 1 14 11
M  V30 6 1 15 2
M  V30 7 1 15 4
M  V30 8 1 17 4
M  V30 9 2 17 12
M  V30 10 1 19 4
M  V30 11 1 21 15
M  V30 12 1 21 16
M  V30 13 1 22 5
M  V30 14 1 22 10
M  V30 15 2 22 18
M  V30 16 2 24 7
M  V30 17 2 25 6
M  V30 18 1 25 20
M  V30 19 1 26 13
M  V30 20 1 26 25
M  V30 21 1 27 3
M  V30 22 1 28 12
M  V30 23 1 29 3
M  V30 24 1 30 17
M  V30 25 2 30 27
M  V30 26 1 31 9
M  V30 27 2 31 14
M  V30 28 1 32 1
M  V30 29 1 32 19
M  V30 30 1 32 20
M  V30 31 1 33 13
M  V30 32 1 33 22
M  V30 33 1 33 31
M  V30 34 2 34 9
M  V30 35 1 34 23
M  V30 36 1 34 24
M  V30 37 1 35 1
M  V30 38 1 36 1
M  V30 39 1 37 2
M  V30 40 1 38 2
M  V30 41 1 39 7
M  V30 42 1 40 8
M  V30 43 1 41 9
M  V30 44 1 42 10
M  V30 45 1 43 11
M  V30 46 1 44 11
M  V30 47 1 45 13
M  V30 48 1 46 13
M  V30 49 1 15 47 CFG=1
M  V30 50 1 48 16
M  V30 51 1 49 16
M  V30 52 1 50 16
M  V30 53 1 51 19
M  V30 54 1 52 19
M  V30 55 1 53 20
M  V30 56 1 54 21
M  V30 57 1 55 21
M  V30 58 1 56 23
M  V30 59 1 57 23
M  V30 60 1 58 23
M  V30 61 1 59 24
M  V30 62 1 60 26
M  V30 63 1 61 27
M  V30 64 1 62 28
M  V30 65 1 63 30
M  V30 66 1 32 64 CFG=3
M  V30 67 1 33 65 CFG=1
M  V30 END BOND
M  V30 END CTAB
M  END
>  <i_epik_Tot_Q>  (1) 
-1

>  <i_epik_Tot_abs_Q>  (1) 
1

>  <i_i_glide_confnum>  (1) 
102

>  <i_i_glide_lignum>  (1) 
32

>  <i_i_glide_posenum>  (1) 
26

>  <i_i_glide_rotatable_bonds>  (1) 
11

>  <i_lp_mmshare_version>  (1) 
72125

>  <i_m_source_file_index>  (1) 
11

>  <i_f3d_flags>  (1) 
0

>  <num_sample>  (1) 
50

>  <b_lp_Chiralities_Consistent>  (1) 
1

>  <r_epik_Charging_Adjusted_Penalty>  (1) 
0.73638213407736119

>  <r_epik_Ionization_Penalty>  (1) 
0.43605758440355569

>  <r_epik_Ionization_Penalty_Charging>  (1) 
4.3620522216925192e-06

>  <r_epik_Ionization_Penalty_Neutral>  (1) 
0.43605322235133398

>  <r_epik_State_Penalty>  (1) 
0.73637777202513954

>  <r_glide_ring_energy>  (1) 
0

>  <r_i_docking_score>  (1) 
-6.7006968867302286

>  <r_i_glide_ecoul>  (1) 
-7.1643863993457568

>  <r_i_glide_eff_state_penalty>  (1) 
0.73637777202513954

>  <r_i_glide_einternal>  (1) 
20.82340271295066

>  <r_i_glide_emodel>  (1) 
-57.065160700910667

>  <r_i_glide_emodel_strain>  (1) 
2.8717222305373582

>  <r_i_glide_energy>  (1) 
-48.126973719452423

>  <r_i_glide_erotb>  (1) 
0.66918926381983879

>  <r_i_glide_esite>  (1) 
-0.16207641089387748

>  <r_i_glide_evdw>  (1) 
-40.962587320106664

>  <r_i_glide_gscore>  (1) 
-7.4370746587553684

>  <r_i_glide_gscore_strain>  (1) 
0

>  <r_i_glide_hbond>  (1) 
-0.16

>  <r_i_glide_ligand_efficiency>  (1) 
-0.19707932019794791

>  <r_i_glide_ligand_efficiency_ln>  (1) 
-1.4803718904601511

>  <r_i_glide_ligand_efficiency_sa>  (1) 
-0.63846049150101603

>  <r_i_glide_lipo>  (1) 
-3.7904723903745845

>  <r_i_glide_metal>  (1) 
-0

>  <r_i_glide_rewards>  (1) 
-0.87092779539954923

>  <r_lp_Energy>  (1) 
40.406531000000001

>  <r_lp_tautomer_probability>  (1) 
0.99999999999736477

>  <s_epik_cmdline>  (1) 
J2VwaWtfcHl0aG9uJywgJy1waHQnLCAnMS4wJywgJy1waCcsICc3LjQnLCAnLXRuJywgJzgnLCAnLW1hJywgJzUwMCcsICctaW1hZScsICc8aW5maWxlLm1hZT4nLCAnLW9tYWUnLCAnPG91dGZpbGUubWFlPic=

>  <s_epik_input>  (1) 
RmMxW2NIXWMoW09IXSljKFtjSF1bY0hdMSlOMltDQEBIXShbQ0gyXVtDSDNdKVtDSDJdW0NIMl1bQ0BASF0oW0NIMl0yKVtOSF1DKD1PKVtOSF1bQ0gyXVtDQEhdKFAoPU8pKFtPSF0pW09IXSljM1tjSF1jKFtDSDNdKVtjSF1bY0hdYzNbTkgyXQ==

>  <s_glide_docking_method>  (1) 
confgen

>  <s_i_glide_gridfile>  (1) 
gpcr_5ht2c_6bqh_protein_autoprepared_prepared

>  <s_lp_Force_Field>  (1) 
S-OPLS

>  <s_lp_Variant>  (1) 
DiffSBDD_10_num_sample_50-1

>  <s_m_source_file>  (1) 
generated__ligand_DiffSBDD_2026-05-06_prepared.sdf

>  <GenAI_Model>  (1) 
DiffSBDD

>  <Protein>  (1) 
GPCR_5HT2C

$$$$
DiffSBDD_34_num_sample_50
     RDKit          3D

  0  0  0  0  0  0  0  0  0  0999 V3000
M  V30 BEGIN CTAB
M  V30 COUNTS 50 51 0 0 1
M  V30 BEGIN ATOM
M  V30 1 C 39.140672 34.679588 60.759144 0 CFG=1
M  V30 2 C 37.652792 28.808580 54.408874 0
M  V30 3 C 38.968943 36.487964 62.535499 0
M  V30 4 C 39.398616 30.044685 62.032892 0
M  V30 5 C 38.070636 30.924279 57.478473 0
M  V30 6 C 39.113040 27.372700 52.847267 0
M  V30 7 C 39.479192 35.184132 62.080280 0
M  V30 8 C 39.749569 33.297100 61.211767 0
M  V30 9 C 40.268017 34.438861 62.794767 0
M  V30 10 C 38.168188 32.118973 59.680165 0
M  V30 11 C 37.821327 34.532151 60.073131 0
M  V30 12 C 38.895930 28.020656 51.466505 0
M  V30 13 C 39.919326 29.122622 51.133783 0
M  V30 14 C 37.408094 33.373103 59.544064 0
M  V30 15 C 39.067749 28.346832 54.037781 0
M  V30 16 O 39.867436 29.449660 49.764228 0
M  V30 17 O 37.730848 29.873641 55.345399 0
M  V30 18 O 37.871829 28.525622 57.194170 0
M  V30 19 O 39.230259 36.970165 63.635452 0
M  V30 20 C 39.280708 32.068601 60.491412 0
M  V30 21 N 40.608365 33.246783 62.202565 0
M  V30 22 C 40.019885 30.766662 60.827500 0
M  V30 23 C 37.665649 30.856851 58.965333 0 CFG=1
M  V30 24 O 36.256536 30.761314 59.053603 0
M  V30 25 C 37.876626 29.638719 56.666901 0
M  V30 26 H 39.824546 35.153893 60.054055 0
M  V30 27 H 37.141514 29.179220 53.522236 0
M  V30 28 H 37.068355 27.969437 54.788040 0
M  V30 29 H 38.330325 37.005220 61.818128 0
M  V30 30 H 39.797677 29.037830 62.147038 0
M  V30 31 H 39.601406 30.584003 62.958978 0
M  V30 32 H 38.317164 29.971589 61.937401 0
M  V30 33 H 39.128636 31.185018 57.409951 0
M  V30 34 H 37.528898 31.731682 56.983447 0
M  V30 35 H 38.370279 26.588653 52.999989 0
M  V30 36 H 40.076046 26.861709 52.839445 0
M  V30 37 H 40.630881 34.665459 63.786454 0
M  V30 38 H 37.222151 35.425049 59.957969 0
M  V30 39 H 37.883091 28.419515 51.398196 0
M  V30 40 H 38.959856 27.233891 50.711661 0
M  V30 41 H 40.932922 28.796815 51.370596 0
M  V30 42 H 39.723868 30.026356 51.711292 0
M  V30 43 H 36.463946 33.354353 59.015402 0
M  V30 44 H 39.511703 27.861206 54.905045 0
M  V30 45 H 39.693983 29.218998 53.841591 0
M  V30 46 H 38.970362 29.644481 49.512483 0
M  V30 47 H 40.063822 30.106982 59.961006 0
M  V30 48 H 41.067848 30.975062 61.040671 0
M  V30 49 H 38.035233 29.944774 59.427569 0
M  V30 50 H 35.867400 31.222761 58.302754 0
M  V30 END ATOM
M  V30 BEGIN BOND
M  V30 1 1 7 1
M  V30 2 1 7 3
M  V30 3 1 8 1
M  V30 4 2 9 7
M  V30 5 1 11 1
M  V30 6 1 12 6
M  V30 7 1 13 12
M  V30 8 1 14 10
M  V30 9 2 14 11
M  V30 10 1 15 2
M  V30 11 1 15 6
M  V30 12 1 16 13
M  V30 13 1 17 2
M  V30 14 2 19 3
M  V30 15 1 20 8
M  V30 16 2 20 10
M  V30 17 2 21 8
M  V30 18 1 21 9
M  V30 19 1 22 4
M  V30 20 1 22 20
M  V30 21 1 23 5
M  V30 22 1 23 10
M  V30 23 1 24 23
M  V30 24 1 25 5
M  V30 25 1 25 17
M  V30 26 2 25 18
M  V30 27 1 1 26 CFG=3
M  V30 28 1 27 2
M  V30 29 1 28 2
M  V30 30 1 29 3
M  V30 31 1 30 4
M  V30 32 1 31 4
M  V30 33 1 32 4
M  V30 34 1 33 5
M  V30 35 1 34 5
M  V30 36 1 35 6
M  V30 37 1 36 6
M  V30 38 1 37 9
M  V30 39 1 38 11
M  V30 40 1 39 12
M  V30 41 1 40 12
M  V30 42 1 41 13
M  V30 43 1 42 13
M  V30 44 1 43 14
M  V30 45 1 44 15
M  V30 46 1 45 15
M  V30 47 1 46 16
M  V30 48 1 47 22
M  V30 49 1 48 22
M  V30 50 1 23 49 CFG=1
M  V30 51 1 50 24
M  V30 END BOND
M  V30 END CTAB
M  END
>  <i_epik_Tot_Q>  (1) 
0

>  <i_epik_Tot_abs_Q>  (1) 
0

>  <i_i_glide_confnum>  (1) 
375

>  <i_i_glide_lignum>  (1) 
87

>  <i_i_glide_posenum>  (1) 
154

>  <i_i_glide_rotatable_bonds>  (1) 
13

>  <i_lp_mmshare_version>  (1) 
72125

>  <i_m_source_file_index>  (1) 
35

>  <i_f3d_flags>  (1) 
0

>  <num_sample>  (1) 
50

>  <b_lp_Chiralities_Consistent>  (1) 
1

>  <r_epik_Charging_Adjusted_Penalty>  (1) 
0.012701380709717016

>  <r_epik_Ionization_Penalty>  (1) 
0.012701608846652416

>  <r_epik_Ionization_Penalty_Charging>  (1) 
0

>  <r_epik_Ionization_Penalty_Neutral>  (1) 
0.012701608846652416

>  <r_epik_State_Penalty>  (1) 
0.012701380709717016

>  <r_glide_ring_energy>  (1) 
0

>  <r_i_docking_score>  (1) 
-6.6980208152104588

>  <r_i_glide_ecoul>  (1) 
-10.067953426316709

>  <r_i_glide_eff_state_penalty>  (1) 
0.012701380709717016

>  <r_i_glide_einternal>  (1) 
7.7559200866604572

>  <r_i_glide_emodel>  (1) 
-62.355382803365025

>  <r_i_glide_emodel_strain>  (1) 
0.39049933092709921

>  <r_i_glide_energy>  (1) 
-46.537389479989997

>  <r_i_glide_erotb>  (1) 
1.4185672597553849

>  <r_i_glide_esite>  (1) 
-0.051092012781388953

>  <r_i_glide_evdw>  (1) 
-36.469436053673292

>  <r_i_glide_gscore>  (1) 
-6.7107221959201757

>  <r_i_glide_gscore_strain>  (1) 
0

>  <r_i_glide_hbond>  (1) 
-0.45599999999999996

>  <r_i_glide_ligand_efficiency>  (1) 
-0.26792083260841837

>  <r_i_glide_ligand_efficiency_ln>  (1) 
-1.5876316566913193

>  <r_i_glide_ligand_efficiency_sa>  (1) 
-0.78340526698377533

>  <r_i_glide_lipo>  (1) 
-2.2919508928677486

>  <r_i_glide_metal>  (1) 
-0

>  <r_i_glide_rewards>  (1) 
-1.9965817333952514

>  <r_lp_Energy>  (1) 
19.135596

>  <s_epik_Chemistry_Notes>  (1) 
This compound has an ester and may undergo hydrolysis at high or low pH. This compound has an imine and may undergo hydrolysis.

>  <s_epik_cmdline>  (1) 
J2VwaWtfcHl0aG9uJywgJy1waHQnLCAnMS4wJywgJy1waCcsICc3LjQnLCAnLXRuJywgJzgnLCAnLW1hJywgJzUwMCcsICctaW1hZScsICc8aW5maWxlLm1hZT4nLCAnLW9tYWUnLCAnPG91dGZpbGUubWFlPic=

>  <s_epik_input>  (1) 
Tz1bQ0hdQzE9W0NIXU49QyhbQ0BIXTEyKUMoW0NIMl1bQ0gzXSk9QyhbQ0hdPVtDSF0yKVtDQEBIXShbT0hdKVtDSDJdQyg9TylPW0NIMl1bQ0gyXVtDSDJdW0NIMl1bQ0gyXVtPSF0=

>  <s_glide_docking_method>  (1) 
confgen

>  <s_i_glide_gridfile>  (1) 
gpcr_5ht2c_6bqh_protein_autoprepared_prepared

>  <s_lp_Force_Field>  (1) 
S-OPLS

>  <s_lp_Variant>  (1) 
DiffSBDD_34_num_sample_50-1

>  <s_m_source_file>  (1) 
generated__ligand_DiffSBDD_2026-05-06_prepared.sdf

>  <GenAI_Model>  (1) 
DiffSBDD

>  <Protein>  (1) 
GPCR_5HT2C

$$$$
DiffSBDD_5_num_sample_50
     RDKit          3D

  0  0  0  0  0  0  0  0  0  0999 V3000
M  V30 BEGIN CTAB
M  V30 COUNTS 80 82 0 0 1
M  V30 BEGIN ATOM
M  V30 1 C 38.922517 29.670802 58.232136 0
M  V30 2 C 39.591801 27.205185 57.823392 0 CFG=2
M  V30 3 N 41.142174 33.738754 65.490522 0
M  V30 4 F 40.972182 29.810886 50.891865 0
M  V30 5 C 38.942750 32.352718 60.298171 0
M  V30 6 N 39.152584 30.029879 59.455663 0 CHG=1
M  V30 7 C 39.808539 31.763044 62.678481 0 CFG=1
M  V30 8 C 38.845542 29.181848 51.686077 0 CFG=2
M  V30 9 C 38.095012 25.168942 57.663352 0
M  V30 10 C 38.205532 31.036576 59.974763 0 CFG=2
M  V30 11 N 37.875677 30.265666 57.740623 0
M  V30 12 C 39.253493 24.203388 57.347336 0
M  V30 13 C 38.410334 28.253551 55.405716 0 CFG=2
M  V30 14 C 36.799603 24.603163 57.075476 0
M  V30 15 N 38.590557 27.278342 53.112146 0 CHG=1
M  V30 16 C 41.150795 33.501818 64.052406 0
M  V30 17 C 39.725437 27.014525 59.313429 0
M  V30 18 C 37.217009 31.184902 58.689654 0
M  V30 19 C 39.791235 28.686867 57.473531 0 CFG=1
M  V30 20 C 39.211268 27.713291 51.853364 0
M  V30 21 O 43.077719 32.645513 65.904535 0
M  V30 22 C 39.672262 29.926353 50.627608 0
M  V30 23 C 41.915225 33.553366 67.791191 0
M  V30 24 C 42.098501 33.275748 66.306529 0
M  V30 25 S 38.924854 29.908252 53.337636 0
M  V30 26 C 39.709705 28.863572 55.974323 0
M  V30 27 C 38.242294 26.788628 55.807450 0
M  V30 28 C 40.206957 29.355277 62.577325 0
M  V30 29 O 39.280951 30.433867 62.677239 0
M  V30 30 O 42.185686 31.530943 63.239157 0
M  V30 31 N 38.335345 26.598129 57.273541 0 CFG=2 CHG=1
M  V30 32 C 40.939121 31.999763 63.721136 0 CFG=2
M  V30 33 N 38.324638 28.461726 53.970759 0
M  V30 34 C 40.150008 32.236547 61.257002 0
M  V30 35 H 40.434922 26.689834 57.358518 0
M  V30 36 H 40.367209 34.252437 65.881676 0
M  V30 37 H 38.227803 33.062761 60.714570 0
M  V30 38 H 39.289982 32.804319 59.366496 0
M  V30 39 H 38.964073 32.369492 63.006594 0
M  V30 40 H 37.784953 29.206014 51.444095 0
M  V30 41 H 37.947198 25.155602 58.738127 0
M  V30 42 H 37.666612 30.646729 60.837869 0
M  V30 43 H 37.544447 30.148066 56.794256 0
M  V30 44 H 39.063296 23.233679 57.813674 0
M  V30 45 H 39.339612 24.021916 56.279653 0
M  V30 46 H 40.224826 24.531724 57.719831 0
M  V30 47 H 37.548436 28.793307 55.799909 0
M  V30 48 H 36.672595 23.593447 57.459743 0
M  V30 49 H 35.945074 25.225787 57.350949 0
M  V30 50 H 36.819849 24.492828 55.991670 0
M  V30 51 H 39.207575 26.652201 53.607568 0
M  V30 52 H 42.062210 33.906823 63.606186 0
M  V30 53 H 40.336271 34.097489 63.639288 0
M  V30 54 H 40.590806 27.540080 59.722154 0
M  V30 55 H 38.834231 27.353778 59.844818 0
M  V30 56 H 39.866793 25.952720 59.456076 0
M  V30 57 H 36.205168 30.850905 58.920735 0
M  V30 58 H 37.177469 32.195686 58.278537 0
M  V30 59 H 40.814636 28.937982 57.753618 0
M  V30 60 H 38.891307 27.093517 51.012658 0
M  V30 61 H 40.291427 27.632069 51.953582 0
M  V30 62 H 39.501976 29.507215 49.631688 0
M  V30 63 H 39.428646 30.989138 50.578079 0
M  V30 64 H 41.486723 32.673129 68.274783 0
M  V30 65 H 42.878181 33.758570 68.258226 0
M  V30 66 H 41.233298 34.393562 67.959940 0
M  V30 67 H 39.809600 29.930710 55.791574 0
M  V30 68 H 40.571231 28.382999 55.511280 0
M  V30 69 H 37.265869 26.483546 55.437705 0
M  V30 70 H 39.000718 26.159512 55.338083 0
M  V30 71 H 39.657299 28.435061 62.369680 0
M  V30 72 H 40.922597 29.493771 61.769077 0
M  V30 73 H 40.751798 29.210249 63.508084 0
M  V30 74 H 42.828881 31.703303 63.916500 0
M  V30 75 H 40.691071 31.445190 64.625022 0
M  V30 76 H 40.605820 33.225418 61.311282 0
M  V30 77 H 40.926560 31.589989 60.856077 0
M  V30 78 H 37.691478 26.852530 52.922332 0
M  V30 79 H 39.920824 29.681662 60.010777 0
M  V30 80 H 37.573108 27.120542 57.680735 0
M  V30 END ATOM
M  V30 BEGIN BOND
M  V30 1 2 6 1
M  V30 2 1 10 5
M  V30 3 1 10 6
M  V30 4 1 11 1
M  V30 5 1 12 9
M  V30 6 1 14 9
M  V30 7 1 16 3
M  V30 8 1 17 2
M  V30 9 1 18 10
M  V30 10 1 18 11
M  V30 11 1 19 1
M  V30 12 1 19 2
M  V30 13 1 20 8
M  V30 14 1 20 15
M  V30 15 1 22 4
M  V30 16 1 22 8
M  V30 17 1 24 3
M  V30 18 2 24 21
M  V30 19 1 24 23
M  V30 20 1 25 8
M  V30 21 1 26 13
M  V30 22 1 26 19
M  V30 23 1 27 13
M  V30 24 1 29 7
M  V30 25 1 29 28
M  V30 26 1 31 2
M  V30 27 1 31 9
M  V30 28 1 31 27
M  V30 29 1 32 7
M  V30 30 1 32 16
M  V30 31 1 32 30
M  V30 32 1 33 13
M  V30 33 1 33 15
M  V30 34 1 33 25
M  V30 35 1 34 5
M  V30 36 1 34 7
M  V30 37 1 2 35 CFG=3
M  V30 38 1 36 3
M  V30 39 1 37 5
M  V30 40 1 38 5
M  V30 41 1 7 39 CFG=1
M  V30 42 1 8 40 CFG=3
M  V30 43 1 41 9
M  V30 44 1 10 42 CFG=1
M  V30 45 1 43 11
M  V30 46 1 44 12
M  V30 47 1 45 12
M  V30 48 1 46 12
M  V30 49 1 13 47 CFG=1
M  V30 50 1 48 14
M  V30 51 1 49 14
M  V30 52 1 50 14
M  V30 53 1 51 15
M  V30 54 1 52 16
M  V30 55 1 53 16
M  V30 56 1 54 17
M  V30 57 1 55 17
M  V30 58 1 56 17
M  V30 59 1 57 18
M  V30 60 1 58 18
M  V30 61 1 19 59 CFG=1
M  V30 62 1 60 20
M  V30 63 1 61 20
M  V30 64 1 62 22
M  V30 65 1 63 22
M  V30 66 1 64 23
M  V30 67 1 65 23
M  V30 68 1 66 23
M  V30 69 1 67 26
M  V30 70 1 68 26
M  V30 71 1 69 27
M  V30 72 1 70 27
M  V30 73 1 71 28
M  V30 74 1 72 28
M  V30 75 1 73 28
M  V30 76 1 74 30
M  V30 77 1 32 75 CFG=1
M  V30 78 1 76 34
M  V30 79 1 77 34
M  V30 80 1 78 15
M  V30 81 1 79 6
M  V30 82 1 31 80 CFG=1
M  V30 END BOND
M  V30 END CTAB
M  END
>  <i_epik_Tot_Q>  (1) 
3

>  <i_epik_Tot_abs_Q>  (1) 
3

>  <i_i_glide_confnum>  (1) 
1419

>  <i_i_glide_lignum>  (1) 
17

>  <i_i_glide_posenum>  (1) 
93

>  <i_i_glide_rotatable_bonds>  (1) 
13

>  <i_lp_mmshare_version>  (1) 
72125

>  <i_m_source_file_index>  (1) 
6

>  <i_f3d_flags>  (1) 
0

>  <num_sample>  (1) 
50

>  <b_lp_Chiralities_Consistent>  (1) 
1

>  <r_epik_Charging_Adjusted_Penalty>  (1) 
0.16301919670703535

>  <r_epik_Ionization_Penalty>  (1) 
0.082191666583868089

>  <r_epik_Ionization_Penalty_Charging>  (1) 
0.082191230012028396

>  <r_epik_Ionization_Penalty_Neutral>  (1) 
4.3657183969654913e-07

>  <r_epik_State_Penalty>  (1) 
0.080827966695006942

>  <r_glide_ring_energy>  (1) 
0

>  <r_i_docking_score>  (1) 
-6.68483934636743

>  <r_i_glide_ecoul>  (1) 
-3.0256482210236584

>  <r_i_glide_eff_state_penalty>  (1) 
0.080827966695006942

>  <r_i_glide_einternal>  (1) 
23.032279185485407

>  <r_i_glide_emodel>  (1) 
-40.989757727632437

>  <r_i_glide_emodel_strain>  (1) 
3.9449541946036248

>  <r_i_glide_energy>  (1) 
-39.378149990616798

>  <r_i_glide_erotb>  (1) 
0.63983490757673345

>  <r_i_glide_esite>  (1) 
-0.069585956992392506

>  <r_i_glide_evdw>  (1) 
-36.35250176959314

>  <r_i_glide_gscore>  (1) 
-6.765667313062437

>  <r_i_glide_gscore_strain>  (1) 
0

>  <r_i_glide_hbond>  (1) 
0

>  <r_i_glide_ligand_efficiency>  (1) 
-0.19661292195198324

>  <r_i_glide_ligand_efficiency_ln>  (1) 
-1.4768685150050678

>  <r_i_glide_ligand_efficiency_sa>  (1) 
-0.63694954223929379

>  <r_i_glide_lipo>  (1) 
-3.8913545168082426

>  <r_i_glide_metal>  (1) 
-0

>  <r_i_glide_rewards>  (1) 
-1.1730894252053292

>  <r_lp_Energy>  (1) 
42.251275999999997

>  <s_epik_Chemistry_Notes>  (1) 
This compound has an imine and may undergo hydrolysis. This compound has a N-S or N-O group and may undergo hydrolysis at high or low pH.

>  <s_epik_cmdline>  (1) 
J2VwaWtfcHl0aG9uJywgJy1waHQnLCAnMS4wJywgJy1waCcsICc3LjQnLCAnLXRuJywgJzgnLCAnLW1hJywgJzUwMCcsICctaW1hZScsICc8aW5maWxlLm1hZT4nLCAnLW9tYWUnLCAnPG91dGZpbGUubWFlPic=

>  <s_epik_input>  (1) 
RltDSDJdW0NASF0xW0NIMl1bTkhdTihTMSlbQ0BASF0oW0NIMl1OMltDSF0oW0NIM10pW0NIM10pW0NIMl1bQ0BASF0oW0NASF0yW0NIM10pQzM9TltDQEhdKFtDSDJdW05IXTMpW0NIMl1bQ0gyXVtDQEBIXShPW0NIM10pW0NAQEhdKFtPSF0pW0NIMl1bTkhdQyg9TylbQ0gzXQ==

>  <s_glide_docking_method>  (1) 
confgen

>  <s_i_glide_gridfile>  (1) 
gpcr_5ht2c_6bqh_protein_autoprepared_prepared

>  <s_lp_Force_Field>  (1) 
S-OPLS

>  <s_lp_Variant>  (1) 
DiffSBDD_5_num_sample_50-4

>  <s_m_source_file>  (1) 
generated__ligand_DiffSBDD_2026-05-06_prepared.sdf

>  <GenAI_Model>  (1) 
DiffSBDD

>  <Protein>  (1) 
GPCR_5HT2C

$$$$
DiffSBDD_32_num_sample_50
     RDKit          3D

  0  0  0  0  0  0  0  0  0  0999 V3000
M  V30 BEGIN CTAB
M  V30 COUNTS 51 54 0 0 1
M  V30 BEGIN ATOM
M  V30 1 C 37.054670 32.648416 60.764063 0
M  V30 2 O 37.594062 27.129602 53.457352 0
M  V30 3 C 38.517922 29.505910 57.108265 0
M  V30 4 C 38.794950 29.460799 54.831379 0
M  V30 5 C 40.017774 29.684941 51.219878 0
M  V30 6 C 36.393512 36.608835 59.557152 0
M  V30 7 N 37.720788 34.985799 60.802360 0
M  V30 8 C 38.672324 27.684025 51.413263 0
M  V30 9 C 38.572719 28.580712 56.061708 0
M  V30 10 C 36.638750 35.180898 60.011593 0
M  V30 11 C 38.996605 29.112367 53.387321 0
M  V30 12 C 38.865283 32.901993 58.121927 0
M  V30 13 C 39.787513 29.976894 52.576147 0
M  V30 14 N 38.384637 29.144756 58.351212 0
M  V30 15 N 35.958158 32.852177 60.001509 0
M  V30 16 N 38.662563 30.749315 56.845896 0
M  V30 17 C 37.923618 33.700557 61.163351 0
M  V30 18 C 39.467364 28.541328 50.649265 0
M  V30 19 C 38.521217 27.067682 56.006404 0
M  V30 20 C 38.421139 27.957424 52.768545 0
M  V30 21 C 35.765302 34.134170 59.614376 0
M  V30 22 F 34.703435 34.421054 58.825202 0
M  V30 23 C 38.536058 30.546003 60.476818 0
M  V30 24 C 40.857469 30.614594 50.371082 0
M  V30 25 C 38.667333 31.432300 58.023232 0
M  V30 26 C 38.513857 30.423995 58.973658 0
M  V30 27 C 37.325454 31.206286 61.170788 0
M  V30 28 S 38.870242 31.266156 55.300460 0
M  V30 29 N 39.047378 33.437792 61.946916 0
M  V30 30 H 37.177138 26.490928 52.894634 0
M  V30 31 H 35.867834 37.182893 60.320673 0
M  V30 32 H 37.335871 37.111103 59.339659 0
M  V30 33 H 35.787840 36.634840 58.654716 0
M  V30 34 H 38.234336 26.817369 50.951500 0
M  V30 35 H 37.922974 33.437013 58.027508 0
M  V30 36 H 39.369191 33.180748 59.044194 0
M  V30 37 H 39.506831 33.222987 57.305534 0
M  V30 38 H 40.226998 30.863916 53.006128 0
M  V30 39 H 39.639226 28.331457 49.609585 0
M  V30 40 H 38.848424 26.674586 56.969083 0
M  V30 41 H 37.502541 26.709593 55.859131 0
M  V30 42 H 39.201773 26.660161 55.259105 0
M  V30 43 H 38.666910 29.553214 60.908278 0
M  V30 44 H 39.442639 31.078490 60.760020 0
M  V30 45 H 40.455215 31.620983 50.437897 0
M  V30 46 H 41.907197 30.619762 50.658679 0
M  V30 47 H 40.818933 30.312742 49.326483 0
M  V30 48 H 36.435034 30.609176 60.967699 0
M  V30 49 H 37.467523 31.176373 62.251522 0
M  V30 50 H 39.263950 32.505999 62.266733 0
M  V30 51 H 39.664001 34.179699 62.243815 0
M  V30 END ATOM
M  V30 BEGIN BOND
M  V30 1 1 9 3
M  V30 2 2 9 4
M  V30 3 1 10 6
M  V30 4 2 10 7
M  V30 5 1 11 4
M  V30 6 2 13 5
M  V30 7 1 13 11
M  V30 8 2 14 3
M  V30 9 1 15 1
M  V30 10 1 16 3
M  V30 11 2 17 1
M  V30 12 1 17 7
M  V30 13 1 18 5
M  V30 14 2 18 8
M  V30 15 1 19 9
M  V30 16 1 20 2
M  V30 17 1 20 8
M  V30 18 2 20 11
M  V30 19 1 21 10
M  V30 20 2 21 15
M  V30 21 1 22 21
M  V30 22 1 24 5
M  V30 23 1 25 12
M  V30 24 1 25 16
M  V30 25 1 26 14
M  V30 26 1 26 23
M  V30 27 2 26 25
M  V30 28 1 27 1
M  V30 29 1 27 23
M  V30 30 1 28 4
M  V30 31 1 28 16
M  V30 32 1 29 17
M  V30 33 1 30 2
M  V30 34 1 31 6
M  V30 35 1 32 6
M  V30 36 1 33 6
M  V30 37 1 34 8
M  V30 38 1 35 12
M  V30 39 1 36 12
M  V30 40 1 37 12
M  V30 41 1 38 13
M  V30 42 1 39 18
M  V30 43 1 40 19
M  V30 44 1 41 19
M  V30 45 1 42 19
M  V30 46 1 43 23
M  V30 47 1 44 23
M  V30 48 1 45 24
M  V30 49 1 46 24
M  V30 50 1 47 24
M  V30 51 1 48 27
M  V30 52 1 49 27
M  V30 53 1 50 29
M  V30 54 1 51 29
M  V30 END BOND
M  V30 END CTAB
M  END
>  <i_epik_Tot_Q>  (1) 
0

>  <i_epik_Tot_abs_Q>  (1) 
0

>  <i_i_glide_confnum>  (1) 
21

>  <i_i_glide_lignum>  (1) 
84

>  <i_i_glide_posenum>  (1) 
56

>  <i_i_glide_rotatable_bonds>  (1) 
5

>  <i_lp_mmshare_version>  (1) 
72125

>  <i_m_source_file_index>  (1) 
33

>  <i_f3d_flags>  (1) 
0

>  <num_sample>  (1) 
50

>  <b_lp_Chiralities_Consistent>  (1) 
1

>  <r_epik_Charging_Adjusted_Penalty>  (1) 
0.42689867469521958

>  <r_epik_Ionization_Penalty>  (1) 
0.21540292489436846

>  <r_epik_Ionization_Penalty_Charging>  (1) 
0.21344933734761001

>  <r_epik_Ionization_Penalty_Neutral>  (1) 
0.0019535875467584477

>  <r_epik_State_Penalty>  (1) 
0.2134493373476096

>  <r_glide_ring_energy>  (1) 
0

>  <r_i_docking_score>  (1) 
-6.6828449685557443

>  <r_i_glide_ecoul>  (1) 
-1.2328180565011984

>  <r_i_glide_eff_state_penalty>  (1) 
0.2134493373476096

>  <r_i_glide_einternal>  (1) 
10.198522093584437

>  <r_i_glide_emodel>  (1) 
-65.357983965799548

>  <r_i_glide_emodel_strain>  (1) 
1.2729422603010931

>  <r_i_glide_energy>  (1) 
-51.59454138914586

>  <r_i_glide_erotb>  (1) 
0.46558767566886761

>  <r_i_glide_esite>  (1) 
-0.092542148548293887

>  <r_i_glide_evdw>  (1) 
-50.361723332644658

>  <r_i_glide_gscore>  (1) 
-6.8962943059033535

>  <r_i_glide_gscore_strain>  (1) 
0

>  <r_i_glide_hbond>  (1) 
-0.12473297388131797

>  <r_i_glide_ligand_efficiency>  (1) 
-0.23044292995019808

>  <r_i_glide_ligand_efficiency_ln>  (1) 
-1.5302020354724724

>  <r_i_glide_ligand_efficiency_sa>  (1) 
-0.70799369104633869

>  <r_i_glide_lipo>  (1) 
-3.1655109255684746

>  <r_i_glide_metal>  (1) 
-0

>  <r_i_glide_rewards>  (1) 
-1.2760870584667219

>  <r_lp_Energy>  (1) 
28.239087999999999

>  <r_lp_tautomer_probability>  (1) 
0.99999990127737282

>  <s_epik_cmdline>  (1) 
J2VwaWtfcHl0aG9uJywgJy1waHQnLCAnMS4wJywgJy1waCcsICc3LjQnLCAnLXRuJywgJzgnLCAnLW1hJywgJzUwMCcsICctaW1hZScsICc8aW5maWxlLm1hZT4nLCAnLW9tYWUnLCAnPG91dGZpbGUubWFlPic=

>  <s_epik_input>  (1) 
W05IMl1jMW5jKFtDSDNdKWMoRiluYzFbQ0gyXVtDSDJdYyhuMiljKFtDSDNdKW4oYzIzKXNjKGMzW0NIM10pLWMoW2NIXWM0W0NIM10pYyhbT0hdKVtjSF1bY0hdNA==

>  <s_glide_docking_method>  (1) 
confgen

>  <s_i_glide_gridfile>  (1) 
gpcr_5ht2c_6bqh_protein_autoprepared_prepared

>  <s_lp_Force_Field>  (1) 
S-OPLS

>  <s_lp_Variant>  (1) 
DiffSBDD_32_num_sample_50-1

>  <s_m_source_file>  (1) 
generated__ligand_DiffSBDD_2026-05-06_prepared.sdf

>  <GenAI_Model>  (1) 
DiffSBDD

>  <Protein>  (1) 
GPCR_5HT2C

$$$$
DiffSBDD_23_num_sample_50
     RDKit          3D

  0  0  0  0  0  0  0  0  0  0999 V3000
M  V30 BEGIN CTAB
M  V30 COUNTS 61 65 0 0 1
M  V30 BEGIN ATOM
M  V30 1 C 38.431008 26.898261 56.916278 0
M  V30 2 C 41.865217 32.739591 66.841972 0 CFG=2
M  V30 3 C 38.396792 31.730897 56.807765 0
M  V30 4 C 38.703931 32.483912 60.461114 0 CFG=1
M  V30 5 S 41.196651 30.016007 63.838342 0
M  V30 6 C 38.763543 30.516150 57.405532 0
M  V30 7 C 39.281038 28.067348 57.322749 0
M  V30 8 N 43.622427 29.613437 64.650415 0
M  V30 9 C 41.909890 31.134103 64.985958 0
M  V30 10 C 44.085887 31.483092 66.277459 0
M  V30 11 S 40.826844 33.650728 61.853502 0
M  V30 12 O 41.581181 32.454062 61.453498 0
M  V30 13 C 38.228674 30.630726 54.647939 0
M  V30 14 C 41.169089 32.310629 65.516053 0 CFG=2
M  V30 15 N 39.318202 33.717846 60.992173 0
M  V30 16 C 38.135970 31.790039 55.435392 0
M  V30 17 C 38.871592 29.340399 56.632205 0
M  V30 18 C 37.252798 34.958263 60.246236 0
M  V30 19 C 39.116767 26.272098 55.731335 0
M  V30 20 O 39.733367 25.221422 55.868936 0
M  V30 21 Cl 38.006146 31.621449 61.853505 0
M  V30 22 C 38.667369 28.185087 54.281197 0
M  V30 23 S 38.267401 33.198255 57.785612 0
M  V30 24 N 40.267404 33.369119 63.442710 0
M  V30 25 O 41.429287 34.991441 61.827179 0
M  V30 26 N 38.967751 26.961834 54.547239 0
M  V30 27 C 38.406176 34.846807 61.259828 0
M  V30 28 C 43.194037 30.769248 65.313866 0
M  V30 29 C 42.686162 29.112502 63.853500 0
M  V30 30 O 36.666940 33.697486 59.961017 0
M  V30 31 C 38.592085 29.385998 55.219140 0
M  V30 32 N 41.160832 33.387479 64.522857 0
M  V30 33 N 41.274902 33.969749 67.407515 0 CHG=1
M  V30 34 C 37.596371 32.764522 59.423835 0 CFG=2
M  V30 35 C 43.419851 32.816537 66.721172 0
M  V30 36 H 37.396098 27.167586 56.718346 0
M  V30 37 H 38.415039 26.161003 57.720156 0
M  V30 38 H 41.652271 31.959816 67.575818 0
M  V30 39 H 39.474078 31.840337 60.047638 0
M  V30 40 H 38.968020 30.478206 58.461256 0
M  V30 41 H 39.169626 28.202174 58.399483 0
M  V30 42 H 40.349851 27.901492 57.166315 0
M  V30 43 H 44.248594 30.850684 67.150757 0
M  V30 44 H 45.069617 31.672448 65.845796 0
M  V30 45 H 38.019733 30.692358 53.591379 0
M  V30 46 H 40.136694 32.032701 65.730888 0
M  V30 47 H 37.853629 32.729027 54.980804 0
M  V30 48 H 37.586155 35.432830 59.326079 0
M  V30 49 H 36.478772 35.612352 60.647175 0
M  V30 50 H 38.437120 28.427938 53.240485 0
M  V30 51 H 39.698787 32.522559 63.476401 0
M  V30 52 H 38.970212 35.779683 61.279047 0
M  V30 53 H 37.991492 34.719200 62.253498 0
M  V30 54 H 42.874967 28.218904 63.275091 0
M  V30 55 H 41.236505 34.317818 64.925852 0
M  V30 56 H 41.480340 34.759641 66.812823 0
M  V30 57 H 40.273407 33.862054 67.483512 0
M  V30 58 H 37.027943 31.847100 59.269086 0
M  V30 59 H 43.875870 33.160719 67.650196 0
M  V30 60 H 43.654345 33.573388 65.971501 0
M  V30 61 H 41.659526 34.138444 68.326126 0
M  V30 END ATOM
M  V30 BEGIN BOND
M  V30 1 2 6 3
M  V30 2 1 7 1
M  V30 3 1 9 5
M  V30 4 2 12 11
M  V30 5 1 14 2
M  V30 6 1 14 9
M  V30 7 1 15 4
M  V30 8 1 15 11
M  V30 9 1 16 3
M  V30 10 2 16 13
M  V30 11 1 17 6
M  V30 12 1 17 7
M  V30 13 1 19 1
M  V30 14 2 20 19
M  V30 15 1 21 4
M  V30 16 1 23 3
M  V30 17 1 24 11
M  V30 18 2 25 11
M  V30 19 1 26 19
M  V30 20 2 26 22
M  V30 21 1 27 15
M  V30 22 1 27 18
M  V30 23 1 28 8
M  V30 24 2 28 9
M  V30 25 1 28 10
M  V30 26 1 29 5
M  V30 27 2 29 8
M  V30 28 1 30 18
M  V30 29 1 31 13
M  V30 30 2 31 17
M  V30 31 1 31 22
M  V30 32 1 32 14
M  V30 33 1 32 24
M  V30 34 1 33 2
M  V30 35 1 34 4
M  V30 36 1 34 23
M  V30 37 1 34 30
M  V30 38 1 35 2
M  V30 39 1 35 10
M  V30 40 1 36 1
M  V30 41 1 37 1
M  V30 42 1 2 38 CFG=1
M  V30 43 1 4 39 CFG=3
M  V30 44 1 40 6
M  V30 45 1 41 7
M  V30 46 1 42 7
M  V30 47 1 43 10
M  V30 48 1 44 10
M  V30 49 1 45 13
M  V30 50 1 14 46 CFG=1
M  V30 51 1 47 16
M  V30 52 1 48 18
M  V30 53 1 49 18
M  V30 54 1 50 22
M  V30 55 1 51 24
M  V30 56 1 52 27
M  V30 57 1 53 27
M  V30 58 1 54 29
M  V30 59 1 55 32
M  V30 60 1 56 33
M  V30 61 1 57 33
M  V30 62 1 34 58 CFG=3
M  V30 63 1 59 35
M  V30 64 1 60 35
M  V30 65 1 61 33
M  V30 END BOND
M  V30 END CTAB
M  END
>  <i_epik_Tot_Q>  (1) 
1

>  <i_epik_Tot_abs_Q>  (1) 
1

>  <i_i_glide_confnum>  (1) 
55

>  <i_i_glide_lignum>  (1) 
63

>  <i_i_glide_posenum>  (1) 
216

>  <i_i_glide_rotatable_bonds>  (1) 
6

>  <i_lp_mmshare_version>  (1) 
72125

>  <i_m_source_file_index>  (1) 
24

>  <i_f3d_flags>  (1) 
0

>  <num_sample>  (1) 
50

>  <b_lp_Chiralities_Consistent>  (1) 
1

>  <r_epik_Charging_Adjusted_Penalty>  (1) 
0.20786405117440027

>  <r_epik_Ionization_Penalty>  (1) 
0.17784020352230567

>  <r_epik_Ionization_Penalty_Charging>  (1) 
0.046839863378715332

>  <r_epik_Ionization_Penalty_Neutral>  (1) 
0.13100034014359035

>  <r_epik_State_Penalty>  (1) 
0.16102418779568495

>  <r_glide_ring_energy>  (1) 
0.36391509760431284

>  <r_i_docking_score>  (1) 
-6.6789857866410669

>  <r_i_glide_ecoul>  (1) 
-1.1037770522329338

>  <r_i_glide_eff_state_penalty>  (1) 
0.16102418779568495

>  <r_i_glide_einternal>  (1) 
6.5676491114428925

>  <r_i_glide_emodel>  (1) 
-81.772060364492631

>  <r_i_glide_emodel_strain>  (1) 
0

>  <r_i_glide_energy>  (1) 
-57.828417887451309

>  <r_i_glide_erotb>  (1) 
0.32266353053763186

>  <r_i_glide_esite>  (1) 
0

>  <r_i_glide_evdw>  (1) 
-56.724640835218374

>  <r_i_glide_gscore>  (1) 
-6.840009974436752

>  <r_i_glide_gscore_strain>  (1) 
0

>  <r_i_glide_hbond>  (1) 
0

>  <r_i_glide_ligand_efficiency>  (1) 
-0.19082816533260191

>  <r_i_glide_ligand_efficiency_ln>  (1) 
-1.4661856122707144

>  <r_i_glide_ligand_efficiency_sa>  (1) 
-0.62421158265457233

>  <r_i_glide_lipo>  (1) 
-2.1601120466228703

>  <r_i_glide_metal>  (1) 
-0

>  <r_i_glide_rewards>  (1) 
-2.0007628587556558

>  <r_lp_Energy>  (1) 
39.045392999999997

>  <s_epik_Chemistry_Notes>  (1) 
This compound has an imine and may undergo hydrolysis. This compound contains an acetal/aminal-like group ( X-CH(R)-Y where X, Y are N, S, or O) that may be acid/base labile, releasing an aldehyde.

>  <s_epik_cmdline>  (1) 
J2VwaWtfcHl0aG9uJywgJy1waHQnLCAnMS4wJywgJy1waCcsICc3LjQnLCAnLXRuJywgJzgnLCAnLW1hJywgJzUwMCcsICctaW1hZScsICc8aW5maWxlLm1hZT4nLCAnLW9tYWUnLCAnPG91dGZpbGUubWFlPic=

>  <s_epik_input>  (1) 
W0NIMl0xW0NIMl1DKD1PKU49W0NIXWMoYzEyKVtjSF1bY0hdYyhbY0hdMilTW0NAQEhdM09bQ0gyXVtDSDJdTihbQ0BIXTNDbClTKD1PKSg9TylbTkhdW05IXVtDQEBIXTRbQ0BASF0oW05IMl0pW0NIMl1bQ0gyXWMoYzQ1KW5bY0hdczU=

>  <s_glide_docking_method>  (1) 
confgen

>  <s_i_glide_gridfile>  (1) 
gpcr_5ht2c_6bqh_protein_autoprepared_prepared

>  <s_lp_Force_Field>  (1) 
S-OPLS

>  <s_lp_Variant>  (1) 
DiffSBDD_23_num_sample_50-2

>  <s_m_source_file>  (1) 
generated__ligand_DiffSBDD_2026-05-06_prepared.sdf

>  <GenAI_Model>  (1) 
DiffSBDD

>  <Protein>  (1) 
GPCR_5HT2C

$$$$
DiffSBDD_40_num_sample_50
     RDKit          3D

  0  0  0  0  0  0  0  0  0  0999 V3000
M  V30 BEGIN CTAB
M  V30 COUNTS 66 69 0 0 1
M  V30 BEGIN ATOM
M  V30 1 C 37.485351 31.974656 59.294617 0
M  V30 2 C 37.409105 30.702118 54.754840 0
M  V30 3 O 37.467419 24.021406 57.853503 0 CHG=-1
M  V30 4 C 37.659976 27.446354 54.415931 0
M  V30 5 O 37.834666 26.928317 55.706833 0
M  V30 6 C 39.995934 29.844099 52.362639 0 CFG=2
M  V30 7 C 38.552226 29.787188 55.204535 0 CFG=2
M  V30 8 O 38.337822 24.636190 55.362461 0
M  V30 9 C 38.712470 28.550050 54.264305 0 CFG=2
M  V30 10 C 37.764530 30.568478 58.741105 0 CFG=1
M  V30 11 C 37.415143 25.601038 55.864165 0 CFG=1
M  V30 12 C 39.443429 27.828423 51.861732 0
M  V30 13 C 38.854247 28.906925 52.778403 0 CFG=2
M  V30 14 C 39.867610 31.192945 51.715486 0
M  V30 15 O 38.483311 30.641743 57.509790 0
M  V30 16 O 38.550856 33.887086 60.380791 0
M  V30 17 C 40.394110 28.866508 51.273101 0 CFG=1
M  V30 18 C 38.536078 29.735978 59.780081 0
M  V30 19 P 38.490101 24.725802 57.060803 0
M  V30 20 C 39.081811 30.687080 62.999508 0
M  V30 21 O 38.528162 31.478639 61.955567 0
M  V30 22 N 37.467407 31.986657 55.453533 0 CHG=1
M  V30 23 O 39.690440 30.433321 60.253420 0
M  V30 24 C 38.420601 29.454391 56.714892 0
M  V30 25 C 38.771376 32.599413 59.846329 0 CFG=1
M  V30 26 C 40.082743 29.502893 49.926270 0
M  V30 27 O 39.370608 25.791551 57.592473 0
M  V30 28 C 39.410891 31.650214 60.887478 0 CFG=1
M  V30 29 C 39.711027 30.972496 50.201371 0
M  V30 30 C 38.267420 33.029443 54.827472 0
M  V30 31 H 36.733669 31.915607 60.082765 0
M  V30 32 H 37.065207 32.606526 58.512218 0
M  V30 33 H 37.467485 30.905821 53.696793 0
M  V30 34 H 36.442225 30.237539 54.951129 0
M  V30 35 H 36.651930 27.818799 54.253685 0
M  V30 36 H 37.833341 26.656617 53.683174 0
M  V30 37 H 40.667399 29.917247 53.204049 0
M  V30 38 H 39.477803 30.352681 55.106958 0
M  V30 39 H 39.650063 28.086455 54.574923 0
M  V30 40 H 36.793111 30.105657 58.561114 0
M  V30 41 H 36.371207 25.360347 55.677708 0
M  V30 42 H 39.961167 27.040855 52.408639 0
M  V30 43 H 38.729087 27.406424 51.152398 0
M  V30 44 H 37.911796 29.221436 52.330907 0
M  V30 45 H 40.851076 31.621435 51.849890 0
M  V30 46 H 39.167184 31.879379 52.194044 0
M  V30 47 H 38.018773 33.790343 61.157182 0
M  V30 48 H 41.440062 28.591494 51.404968 0
M  V30 49 H 37.871907 29.550339 60.618813 0
M  V30 50 H 38.829116 28.762381 59.386113 0
M  V30 51 H 38.307085 30.421427 63.714946 0
M  V30 52 H 39.496748 29.748392 62.630095 0
M  V30 53 H 39.868717 31.226236 63.528066 0
M  V30 54 H 36.512821 32.351914 55.546088 0
M  V30 55 H 39.204475 28.767326 57.033245 0
M  V30 56 H 37.467220 28.955290 56.882351 0
M  V30 57 H 39.467338 32.728832 59.019598 0
M  V30 58 H 40.924973 29.463856 49.237437 0
M  V30 59 H 39.261241 28.971521 49.453456 0
M  V30 60 H 40.352347 32.069280 61.249699 0
M  V30 61 H 40.386011 31.621436 49.647153 0
M  V30 62 H 38.708367 31.221426 49.853504 0
M  V30 63 H 38.216458 33.946839 55.415696 0
M  V30 64 H 39.308188 32.717472 54.752481 0
M  V30 65 H 37.867398 33.221519 53.834378 0
M  V30 66 H 37.789751 31.795126 56.396986 0
M  V30 END ATOM
M  V30 BEGIN BOND
M  V30 1 1 5 4
M  V30 2 1 7 2
M  V30 3 1 9 4
M  V30 4 1 9 7
M  V30 5 1 10 1
M  V30 6 1 11 5
M  V30 7 1 11 8
M  V30 8 1 13 6
M  V30 9 1 13 9
M  V30 10 1 13 12
M  V30 11 1 14 6
M  V30 12 1 15 10
M  V30 13 1 17 6
M  V30 14 1 17 12
M  V30 15 1 18 10
M  V30 16 1 19 3
M  V30 17 1 19 8
M  V30 18 1 19 11
M  V30 19 1 21 20
M  V30 20 1 22 2
M  V30 21 1 23 18
M  V30 22 1 24 7
M  V30 23 1 24 15
M  V30 24 1 25 1
M  V30 25 1 25 16
M  V30 26 1 26 17
M  V30 27 2 27 19
M  V30 28 1 28 21
M  V30 29 1 28 23
M  V30 30 1 28 25
M  V30 31 1 29 14
M  V30 32 1 29 26
M  V30 33 1 30 22
M  V30 34 1 31 1
M  V30 35 1 32 1
M  V30 36 1 33 2
M  V30 37 1 34 2
M  V30 38 1 35 4
M  V30 39 1 36 4
M  V30 40 1 6 37 CFG=1
M  V30 41 1 7 38 CFG=1
M  V30 42 1 9 39 CFG=1
M  V30 43 1 10 40 CFG=3
M  V30 44 1 11 41 CFG=1
M  V30 45 1 42 12
M  V30 46 1 43 12
M  V30 47 1 13 44 CFG=3
M  V30 48 1 45 14
M  V30 49 1 46 14
M  V30 50 1 47 16
M  V30 51 1 17 48 CFG=3
M  V30 52 1 49 18
M  V30 53 1 50 18
M  V30 54 1 51 20
M  V30 55 1 52 20
M  V30 56 1 53 20
M  V30 57 1 54 22
M  V30 58 1 55 24
M  V30 59 1 56 24
M  V30 60 1 25 57 CFG=3
M  V30 61 1 58 26
M  V30 62 1 59 26
M  V30 63 1 28 60 CFG=1
M  V30 64 1 61 29
M  V30 65 1 62 29
M  V30 66 1 63 30
M  V30 67 1 64 30
M  V30 68 1 65 30
M  V30 69 1 66 22
M  V30 END BOND
M  V30 END CTAB
M  END
>  <i_epik_Tot_Q>  (1) 
0

>  <i_epik_Tot_abs_Q>  (1) 
2

>  <i_i_glide_confnum>  (1) 
624

>  <i_i_glide_lignum>  (1) 
95

>  <i_i_glide_posenum>  (1) 
286

>  <i_i_glide_rotatable_bonds>  (1) 
12

>  <i_lp_mmshare_version>  (1) 
72125

>  <i_m_source_file_index>  (1) 
41

>  <i_f3d_flags>  (1) 
0

>  <num_sample>  (1) 
50

>  <b_lp_Chiralities_Consistent>  (1) 
1

>  <r_epik_Charging_Adjusted_Penalty>  (1) 
0.001220089536417487

>  <r_epik_Ionization_Penalty>  (1) 
0.0012207097255128069

>  <r_epik_Ionization_Penalty_Charging>  (1) 
0.001220089536417487

>  <r_epik_Ionization_Penalty_Neutral>  (1) 
6.2018909532001439e-07

>  <r_epik_State_Penalty>  (1) 
-0

>  <r_glide_ring_energy>  (1) 
0.75368377756619043

>  <r_i_docking_score>  (1) 
-6.6648511141642288

>  <r_i_glide_ecoul>  (1) 
-5.7405536982898981

>  <r_i_glide_eff_state_penalty>  (1) 
-0

>  <r_i_glide_einternal>  (1) 
28.101681123140814

>  <r_i_glide_emodel>  (1) 
-42.415523431310483

>  <r_i_glide_emodel_strain>  (1) 
1.6342675333454864

>  <r_i_glide_energy>  (1) 
-36.607219079530111

>  <r_i_glide_erotb>  (1) 
0.69437166535620165

>  <r_i_glide_esite>  (1) 
-0.087058118888632741

>  <r_i_glide_evdw>  (1) 
-30.86666538124021

>  <r_i_glide_gscore>  (1) 
-6.6648511141642288

>  <r_i_glide_gscore_strain>  (1) 
0

>  <r_i_glide_hbond>  (1) 
-0.30134755951994585

>  <r_i_glide_ligand_efficiency>  (1) 
-0.22216170380547429

>  <r_i_glide_ligand_efficiency_ln>  (1) 
-1.5143267925073567

>  <r_i_glide_ligand_efficiency_sa>  (1) 
-0.69030806764246289

>  <r_i_glide_lipo>  (1) 
-2.9386745750211012

>  <r_i_glide_metal>  (1) 
-0

>  <r_i_glide_rewards>  (1) 
-1.6277262022852561

>  <r_lp_Energy>  (1) 
50.841352000000001

>  <r_lp_tautomer_probability>  (1) 
1

>  <s_epik_Chemistry_Notes>  (1) 
This compound contains an acetal/aminal-like group ( X-CH(R)-Y where X, Y are N, S, or O) that may be acid/base labile, releasing an aldehyde.

>  <s_epik_cmdline>  (1) 
J2VwaWtfcHl0aG9uJywgJy1waHQnLCAnMS4wJywgJy1waCcsICc3LjQnLCAnLXRuJywgJzgnLCAnLW1hJywgJzUwMCcsICctaW1hZScsICc8aW5maWxlLm1hZT4nLCAnLW9tYWUnLCAnPG91dGZpbGUubWFlPic=

>  <s_epik_input>  (1) 
W0NIMl0xT1tDQEhdKE9bQ0gzXSlbQ0BIXShbT0hdKVtDSDJdW0NASF0xT1tDSDJdW0NASF0oW0NIMl1bTkhdW0NIM10pW0NAQEhdKFtDSDJdT1tDQEhdMk9bUEBdMig9TylbT0hdKVtDQEBIXTNbQ0gyXVtDQEhdKFtDQEhdMzQpW0NIMl1bQ0gyXVtDSDJdNA==

>  <s_glide_docking_method>  (1) 
confgen

>  <s_i_glide_gridfile>  (1) 
gpcr_5ht2c_6bqh_protein_autoprepared_prepared

>  <s_lp_Force_Field>  (1) 
S-OPLS

>  <s_lp_Variant>  (1) 
DiffSBDD_40_num_sample_50-2

>  <s_m_source_file>  (1) 
generated__ligand_DiffSBDD_2026-05-06_prepared.sdf

>  <GenAI_Model>  (1) 
DiffSBDD

>  <Protein>  (1) 
GPCR_5HT2C

$$$$
DiffSBDD_40_num_sample_50
     RDKit          3D

  0  0  0  0  0  0  0  0  0  0999 V3000
M  V30 BEGIN CTAB
M  V30 COUNTS 66 69 0 0 1
M  V30 BEGIN ATOM
M  V30 1 C 38.005690 28.667545 51.658490 0
M  V30 2 C 38.573750 30.467439 55.892271 0
M  V30 3 O 41.467362 29.620473 62.200710 0 CHG=-1
M  V30 4 C 40.158225 28.666624 57.759748 0
M  V30 5 O 39.504149 28.855265 58.998613 0
M  V30 6 C 38.949705 25.403965 56.151599 0 CFG=2
M  V30 7 C 38.157119 28.990228 56.089250 0 CFG=2
M  V30 8 O 39.532604 30.571934 60.616919 0
M  V30 9 C 39.271157 28.045882 56.657167 0 CFG=2
M  V30 10 C 38.404258 27.587613 52.647968 0 CFG=2
M  V30 11 C 40.313057 29.638958 59.872380 0 CFG=1
M  V30 12 C 39.278964 25.851957 58.183060 0
M  V30 13 C 38.691215 26.664584 57.027935 0 CFG=2
M  V30 14 C 37.896691 24.806851 55.234659 0
M  V30 15 O 38.705509 28.120015 53.924629 0
M  V30 16 O 39.467409 30.377305 52.626082 0
M  V30 17 C 38.876062 24.589389 57.432360 0 CFG=1
M  V30 18 C 39.684933 26.974354 52.108616 0
M  V30 19 P 40.103038 29.365213 61.681005 0
M  V30 20 C 41.334609 30.506723 49.467738 0
M  V30 21 O 41.340137 29.860667 50.713695 0
M  V30 22 N 37.471424 31.293741 55.345993 0 CHG=1
M  V30 23 O 40.621776 28.021429 51.853490 0
M  V30 24 C 37.605149 28.393000 54.771842 0
M  V30 25 C 39.119628 29.694959 51.431656 0 CFG=1
M  V30 26 C 37.467417 24.019818 57.533937 0
M  V30 27 O 39.467373 28.036131 61.631102 0
M  V30 28 C 40.306102 28.951790 50.894964 0 CFG=1
M  V30 29 C 36.827033 24.181339 56.144170 0
M  V30 30 C 37.911359 32.577999 54.768767 0
M  V30 31 H 37.067501 29.115950 51.949385 0
M  V30 32 H 37.867413 28.170075 50.702334 0
M  V30 33 H 38.865553 30.923243 56.839439 0
M  V30 34 H 39.441662 30.513912 55.235887 0
M  V30 35 H 41.043419 28.050267 57.920631 0
M  V30 36 H 40.541139 29.620119 57.410571 0
M  V30 37 H 39.955928 25.415115 55.727180 0
M  V30 38 H 37.348558 29.014109 56.819934 0
M  V30 39 H 39.995059 27.882442 55.859226 0
M  V30 40 H 37.631549 26.823046 52.717943 0
M  V30 41 H 41.257577 30.021418 59.495999 0
M  V30 42 H 40.360900 25.937455 58.286677 0
M  V30 43 H 38.761417 26.011919 59.122479 0
M  V30 44 H 37.620607 26.754293 57.231947 0
M  V30 45 H 38.360061 24.018090 54.653505 0
M  V30 46 H 37.474879 25.495910 54.513283 0
M  V30 47 H 39.867471 29.727714 53.188494 0
M  V30 48 H 39.648562 23.821011 57.453513 0
M  V30 49 H 40.105722 26.274827 52.832272 0
M  V30 50 H 39.484292 26.421506 51.189508 0
M  V30 51 H 40.517235 31.226700 49.449254 0
M  V30 52 H 42.267479 31.047881 49.340325 0
M  V30 53 H 41.252835 29.783975 48.653575 0
M  V30 54 H 37.022717 30.775375 54.607548 0
M  V30 55 H 36.891442 29.050753 54.280843 0
M  V30 56 H 37.067440 27.476606 54.978590 0
M  V30 57 H 38.847758 30.400878 50.653280 0
M  V30 58 H 37.467551 22.979513 57.853677 0
M  V30 59 H 36.874763 24.578280 58.254609 0
M  V30 60 H 40.085541 28.421450 49.965707 0
M  V30 61 H 36.464182 23.231711 55.749462 0
M  V30 62 H 35.967460 24.848412 56.219238 0
M  V30 63 H 37.085250 33.066620 54.253550 0
M  V30 64 H 38.287015 33.249488 55.541349 0
M  V30 65 H 38.696150 32.421404 54.031680 0
M  V30 66 H 36.770220 31.490432 56.067909 0
M  V30 END ATOM
M  V30 BEGIN BOND
M  V30 1 1 5 4
M  V30 2 1 7 2
M  V30 3 1 9 4
M  V30 4 1 9 7
M  V30 5 1 10 1
M  V30 6 1 11 5
M  V30 7 1 11 8
M  V30 8 1 13 6
M  V30 9 1 13 9
M  V30 10 1 13 12
M  V30 11 1 14 6
M  V30 12 1 15 10
M  V30 13 1 17 6
M  V30 14 1 17 12
M  V30 15 1 18 10
M  V30 16 1 19 3
M  V30 17 1 19 8
M  V30 18 1 19 11
M  V30 19 1 21 20
M  V30 20 1 22 2
M  V30 21 1 23 18
M  V30 22 1 24 7
M  V30 23 1 24 15
M  V30 24 1 25 1
M  V30 25 1 25 16
M  V30 26 1 26 17
M  V30 27 2 27 19
M  V30 28 1 28 21
M  V30 29 1 28 23
M  V30 30 1 28 25
M  V30 31 1 29 14
M  V30 32 1 29 26
M  V30 33 1 30 22
M  V30 34 1 31 1
M  V30 35 1 32 1
M  V30 36 1 33 2
M  V30 37 1 34 2
M  V30 38 1 35 4
M  V30 39 1 36 4
M  V30 40 1 6 37 CFG=3
M  V30 41 1 7 38 CFG=1
M  V30 42 1 9 39 CFG=3
M  V30 43 1 10 40 CFG=1
M  V30 44 1 11 41 CFG=3
M  V30 45 1 42 12
M  V30 46 1 43 12
M  V30 47 1 13 44 CFG=1
M  V30 48 1 45 14
M  V30 49 1 46 14
M  V30 50 1 47 16
M  V30 51 1 17 48 CFG=3
M  V30 52 1 49 18
M  V30 53 1 50 18
M  V30 54 1 51 20
M  V30 55 1 52 20
M  V30 56 1 53 20
M  V30 57 1 54 22
M  V30 58 1 55 24
M  V30 59 1 56 24
M  V30 60 1 25 57 CFG=3
M  V30 61 1 58 26
M  V30 62 1 59 26
M  V30 63 1 28 60 CFG=3
M  V30 64 1 61 29
M  V30 65 1 62 29
M  V30 66 1 63 30
M  V30 67 1 64 30
M  V30 68 1 65 30
M  V30 69 1 66 22
M  V30 END BOND
M  V30 END CTAB
M  END
>  <i_epik_Tot_Q>  (1) 
0

>  <i_epik_Tot_abs_Q>  (1) 
2

>  <i_i_glide_confnum>  (1) 
295

>  <i_i_glide_lignum>  (1) 
94

>  <i_i_glide_posenum>  (1) 
343

>  <i_i_glide_rotatable_bonds>  (1) 
12

>  <i_lp_mmshare_version>  (1) 
72125

>  <i_m_source_file_index>  (1) 
41

>  <i_f3d_flags>  (1) 
0

>  <num_sample>  (1) 
50

>  <b_lp_Chiralities_Consistent>  (1) 
1

>  <r_epik_Charging_Adjusted_Penalty>  (1) 
0.001220089536417487

>  <r_epik_Ionization_Penalty>  (1) 
0.0012207097255128069

>  <r_epik_Ionization_Penalty_Charging>  (1) 
0.001220089536417487

>  <r_epik_Ionization_Penalty_Neutral>  (1) 
6.2018909532001439e-07

>  <r_epik_State_Penalty>  (1) 
-0

>  <r_glide_ring_energy>  (1) 
2.4996791549734296

>  <r_i_docking_score>  (1) 
-6.6637387187383839

>  <r_i_glide_ecoul>  (1) 
-7.9518710960558945

>  <r_i_glide_eff_state_penalty>  (1) 
-0

>  <r_i_glide_einternal>  (1) 
16.208912598520378

>  <r_i_glide_emodel>  (1) 
-32.534597630836203

>  <r_i_glide_emodel_strain>  (1) 
2.5922596987457069

>  <r_i_glide_energy>  (1) 
-26.824315903636219

>  <r_i_glide_erotb>  (1) 
0.69437166535620165

>  <r_i_glide_esite>  (1) 
-0.094552384774473391

>  <r_i_glide_evdw>  (1) 
-18.872444807580322

>  <r_i_glide_gscore>  (1) 
-6.6637387187383839

>  <r_i_glide_gscore_strain>  (1) 
0

>  <r_i_glide_hbond>  (1) 
-0.35999999999999999

>  <r_i_glide_ligand_efficiency>  (1) 
-0.22212462395794613

>  <r_i_glide_ligand_efficiency_ln>  (1) 
-1.5140740441460856

>  <r_i_glide_ligand_efficiency_sa>  (1) 
-0.69019285193490754

>  <r_i_glide_lipo>  (1) 
-3.481973627891779

>  <r_i_glide_metal>  (1) 
-0

>  <r_i_glide_rewards>  (1) 
-1.2851814666409327

>  <r_lp_Energy>  (1) 
49.981364999999997

>  <r_lp_tautomer_probability>  (1) 
1

>  <s_epik_Chemistry_Notes>  (1) 
This compound contains an acetal/aminal-like group ( X-CH(R)-Y where X, Y are N, S, or O) that may be acid/base labile, releasing an aldehyde.

>  <s_epik_cmdline>  (1) 
J2VwaWtfcHl0aG9uJywgJy1waHQnLCAnMS4wJywgJy1waCcsICc3LjQnLCAnLXRuJywgJzgnLCAnLW1hJywgJzUwMCcsICctaW1hZScsICc8aW5maWxlLm1hZT4nLCAnLW9tYWUnLCAnPG91dGZpbGUubWFlPic=

>  <s_epik_input>  (1) 
W0NIMl0xT1tDQEhdKE9bQ0gzXSlbQ0BIXShbT0hdKVtDSDJdW0NAQEhdMU9bQ0gyXVtDQEhdKFtDSDJdW05IXVtDSDNdKVtDQEBIXShbQ0gyXU9bQ0BIXTJPW1BAXTIoPU8pW09IXSlbQ0BASF0zW0NIMl1bQ0BIXShbQ0BIXTM0KVtDSDJdW0NIMl1bQ0gyXTQ=

>  <s_glide_docking_method>  (1) 
confgen

>  <s_i_glide_gridfile>  (1) 
gpcr_5ht2c_6bqh_protein_autoprepared_prepared

>  <s_lp_Force_Field>  (1) 
S-OPLS

>  <s_lp_Variant>  (1) 
DiffSBDD_40_num_sample_50-1

>  <s_m_source_file>  (1) 
generated__ligand_DiffSBDD_2026-05-06_prepared.sdf

>  <GenAI_Model>  (1) 
DiffSBDD

>  <Protein>  (1) 
GPCR_5HT2C

$$$$
DiffSBDD_32_num_sample_50
     RDKit          3D

  0  0  0  0  0  0  0  0  0  0999 V3000
M  V30 BEGIN CTAB
M  V30 COUNTS 51 54 0 0 1
M  V30 BEGIN ATOM
M  V30 1 C 41.198135 32.821809 64.214943 0
M  V30 2 O 37.067439 30.510745 55.053520 0
M  V30 3 C 39.044069 30.367985 59.568947 0
M  V30 4 C 38.686172 29.701390 57.404177 0
M  V30 5 C 39.269738 26.970819 54.761233 0
M  V30 6 C 42.044335 33.575492 68.248528 0
M  V30 7 N 41.747483 34.402833 65.976410 0
M  V30 8 C 37.768088 28.609750 53.799651 0
M  V30 9 C 39.117765 29.219206 58.780372 0
M  V30 10 C 41.740343 33.317160 66.786914 0
M  V30 11 C 38.599111 28.922851 56.107424 0
M  V30 12 C 38.330996 33.870639 59.796622 0
M  V30 13 C 39.322841 27.709389 55.957411 0
M  V30 14 N 39.358208 30.361956 60.828136 0
M  V30 15 N 41.196167 31.741562 65.029190 0
M  V30 16 N 38.667247 31.470913 59.037981 0
M  V30 17 C 41.470706 34.137061 64.681452 0
M  V30 18 C 38.493565 27.419776 53.687923 0
M  V30 19 C 39.501069 27.781237 59.064768 0
M  V30 20 C 37.807892 29.367077 54.988790 0
M  V30 21 C 41.470274 32.004509 66.326970 0
M  V30 22 F 41.486798 30.977188 67.209304 0
M  V30 23 C 39.397184 32.261412 62.506295 0
M  V30 24 C 40.061817 25.691297 54.634710 0
M  V30 25 C 38.696659 32.437966 60.011201 0
M  V30 26 C 39.139631 31.737453 61.129312 0
M  V30 27 C 40.889082 32.545789 62.747381 0
M  V30 28 S 38.267410 31.537273 57.438174 0
M  V30 29 N 41.462533 35.221406 63.806416 0
M  V30 30 H 36.785887 30.806322 55.914372 0
M  V30 31 H 43.103862 33.797195 68.375259 0
M  V30 32 H 41.463189 34.421896 68.612436 0
M  V30 33 H 41.798907 32.716930 68.873278 0
M  V30 34 H 37.169195 28.947979 52.968742 0
M  V30 35 H 37.624730 34.207594 60.555650 0
M  V30 36 H 39.217938 34.500864 59.856627 0
M  V30 37 H 37.867866 34.028933 58.822193 0
M  V30 38 H 39.938027 27.350010 56.754711 0
M  V30 39 H 38.454917 26.848690 52.771146 0
M  V30 40 H 39.447917 27.621427 60.141353 0
M  V30 41 H 38.811430 27.074208 58.602842 0
M  V30 42 H 40.530171 27.577753 58.768449 0
M  V30 43 H 38.807915 33.157879 62.695380 0
M  V30 44 H 39.067406 31.510469 63.223136 0
M  V30 45 H 40.786926 25.621587 55.445956 0
M  V30 46 H 39.403951 24.823421 54.675870 0
M  V30 47 H 40.609347 25.668465 53.692083 0
M  V30 48 H 41.466804 31.666094 62.461074 0
M  V30 49 H 41.234370 33.344924 62.092778 0
M  V30 50 H 41.253960 35.110054 62.826183 0
M  V30 51 H 41.648205 36.163180 64.133766 0
M  V30 END ATOM
M  V30 BEGIN BOND
M  V30 1 1 9 3
M  V30 2 2 9 4
M  V30 3 1 10 6
M  V30 4 2 10 7
M  V30 5 1 11 4
M  V30 6 2 13 5
M  V30 7 1 13 11
M  V30 8 2 14 3
M  V30 9 1 15 1
M  V30 10 1 16 3
M  V30 11 2 17 1
M  V30 12 1 17 7
M  V30 13 1 18 5
M  V30 14 2 18 8
M  V30 15 1 19 9
M  V30 16 1 20 2
M  V30 17 1 20 8
M  V30 18 2 20 11
M  V30 19 1 21 10
M  V30 20 2 21 15
M  V30 21 1 22 21
M  V30 22 1 24 5
M  V30 23 1 25 12
M  V30 24 1 25 16
M  V30 25 1 26 14
M  V30 26 1 26 23
M  V30 27 2 26 25
M  V30 28 1 27 1
M  V30 29 1 27 23
M  V30 30 1 28 4
M  V30 31 1 28 16
M  V30 32 1 29 17
M  V30 33 1 30 2
M  V30 34 1 31 6
M  V30 35 1 32 6
M  V30 36 1 33 6
M  V30 37 1 34 8
M  V30 38 1 35 12
M  V30 39 1 36 12
M  V30 40 1 37 12
M  V30 41 1 38 13
M  V30 42 1 39 18
M  V30 43 1 40 19
M  V30 44 1 41 19
M  V30 45 1 42 19
M  V30 46 1 43 23
M  V30 47 1 44 23
M  V30 48 1 45 24
M  V30 49 1 46 24
M  V30 50 1 47 24
M  V30 51 1 48 27
M  V30 52 1 49 27
M  V30 53 1 50 29
M  V30 54 1 51 29
M  V30 END BOND
M  V30 END CTAB
M  END
>  <i_epik_Tot_Q>  (1) 
0

>  <i_epik_Tot_abs_Q>  (1) 
0

>  <i_i_glide_confnum>  (1) 
15

>  <i_i_glide_lignum>  (1) 
84

>  <i_i_glide_posenum>  (1) 
339

>  <i_i_glide_rotatable_bonds>  (1) 
5

>  <i_lp_mmshare_version>  (1) 
72125

>  <i_m_source_file_index>  (1) 
33

>  <i_f3d_flags>  (1) 
0

>  <num_sample>  (1) 
50

>  <b_lp_Chiralities_Consistent>  (1) 
1

>  <r_epik_Charging_Adjusted_Penalty>  (1) 
0.42689867469521958

>  <r_epik_Ionization_Penalty>  (1) 
0.21540292489436846

>  <r_epik_Ionization_Penalty_Charging>  (1) 
0.21344933734761001

>  <r_epik_Ionization_Penalty_Neutral>  (1) 
0.0019535875467584477

>  <r_epik_State_Penalty>  (1) 
0.2134493373476096

>  <r_glide_ring_energy>  (1) 
0

>  <r_i_docking_score>  (1) 
-6.6541032604533825

>  <r_i_glide_ecoul>  (1) 
-3.8195583380757383

>  <r_i_glide_eff_state_penalty>  (1) 
0.2134493373476096

>  <r_i_glide_einternal>  (1) 
3.135985168120893

>  <r_i_glide_emodel>  (1) 
-64.73934877610526

>  <r_i_glide_emodel_strain>  (1) 
0.31586609387841236

>  <r_i_glide_energy>  (1) 
-46.571480966826897

>  <r_i_glide_erotb>  (1) 
0.46558767566886761

>  <r_i_glide_esite>  (1) 
-0.028609201569050665

>  <r_i_glide_evdw>  (1) 
-42.75192262875116

>  <r_i_glide_gscore>  (1) 
-6.8675525978009917

>  <r_i_glide_gscore_strain>  (1) 
0

>  <r_i_glide_hbond>  (1) 
-0.2085355042435362

>  <r_i_glide_ligand_efficiency>  (1) 
-0.22945183656735801

>  <r_i_glide_ligand_efficiency_ln>  (1) 
-1.5236209131438641

>  <r_i_glide_ligand_efficiency_sa>  (1) 
-0.70494873817041326

>  <r_i_glide_lipo>  (1) 
-3.2352280741148696

>  <r_i_glide_metal>  (1) 
-0

>  <r_i_glide_rewards>  (1) 
-1.1502376113934838

>  <r_lp_Energy>  (1) 
28.239087999999999

>  <r_lp_tautomer_probability>  (1) 
0.99999990127737282

>  <s_epik_cmdline>  (1) 
J2VwaWtfcHl0aG9uJywgJy1waHQnLCAnMS4wJywgJy1waCcsICc3LjQnLCAnLXRuJywgJzgnLCAnLW1hJywgJzUwMCcsICctaW1hZScsICc8aW5maWxlLm1hZT4nLCAnLW9tYWUnLCAnPG91dGZpbGUubWFlPic=

>  <s_epik_input>  (1) 
W05IMl1jMW5jKFtDSDNdKWMoRiluYzFbQ0gyXVtDSDJdYyhuMiljKFtDSDNdKW4oYzIzKXNjKGMzW0NIM10pLWMoW2NIXWM0W0NIM10pYyhbT0hdKVtjSF1bY0hdNA==

>  <s_glide_docking_method>  (1) 
confgen

>  <s_i_glide_gridfile>  (1) 
gpcr_5ht2c_6bqh_protein_autoprepared_prepared

>  <s_lp_Force_Field>  (1) 
S-OPLS

>  <s_lp_Variant>  (1) 
DiffSBDD_32_num_sample_50-1

>  <s_m_source_file>  (1) 
generated__ligand_DiffSBDD_2026-05-06_prepared.sdf

>  <GenAI_Model>  (1) 
DiffSBDD

>  <Protein>  (1) 
GPCR_5HT2C

$$$$
DiffSBDD_41_num_sample_50
     RDKit          3D

  0  0  0  0  0  0  0  0  0  0999 V3000
M  V30 BEGIN CTAB
M  V30 COUNTS 83 87 0 0 1
M  V30 BEGIN ATOM
M  V30 1 C 42.507902 30.449952 67.108430 0
M  V30 2 C 42.139278 29.049691 66.640356 0 CFG=1
M  V30 3 C 38.514370 31.463862 59.046395 0
M  V30 4 C 41.651700 35.813546 63.597923 0
M  V30 5 C 44.304587 28.924781 65.372924 0 CFG=1
M  V30 6 O 45.427527 28.121522 65.077715 0
M  V30 7 O 45.774771 30.821430 65.453503 0
M  V30 8 C 39.121196 27.572063 52.000819 0
M  V30 9 C 40.783288 27.692902 65.045843 0
M  V30 10 C 38.774445 30.093813 57.040941 0
M  V30 11 C 36.327954 32.730674 61.008451 0
M  V30 12 C 39.786426 31.533542 62.594863 0
M  V30 13 C 41.047145 29.066591 65.518072 0 CFG=2
M  V30 14 C 38.038427 29.241596 53.645101 0
M  V30 15 F 39.886687 28.577064 51.577551 0
M  V30 16 O 38.266468 30.359304 61.198826 0
M  V30 17 C 38.412348 32.838816 59.686912 0 CFG=2
M  V30 18 C 39.872247 30.330902 63.572935 0
M  V30 19 C 38.731332 28.924756 57.837304 0
M  V30 20 C 43.403457 28.201645 66.371295 0 CFG=1
M  V30 21 O 44.066470 27.940013 67.601064 0
M  V30 22 F 39.800638 26.821562 52.868781 0
M  V30 23 C 39.743792 34.734502 60.690607 0 CFG=1
M  V30 24 C 38.382267 31.572817 61.917126 0 CFG=2
M  V30 25 C 38.622470 28.812470 54.989324 0
M  V30 26 N 35.551690 33.621375 61.453467 0
M  V30 27 F 38.820620 26.821460 50.949320 0
M  V30 28 O 40.816019 35.953229 62.461720 0
M  V30 29 C 43.737575 31.054951 66.715216 0
M  V30 30 C 38.452492 30.290393 59.839296 0
M  V30 31 C 39.777243 33.535904 59.743390 0
M  V30 32 C 41.945874 32.442384 68.398607 0
M  V30 33 C 38.667406 31.357481 57.649935 0
M  V30 34 O 38.926784 30.018245 55.676072 0
M  V30 35 C 37.862329 32.808193 61.110840 0 CFG=2
M  V30 36 S 38.449007 34.360894 61.853493 0
M  V30 37 C 43.159742 33.038190 68.014679 0
M  V30 38 C 40.667413 26.502107 64.804178 0
M  V30 39 C 44.707719 30.336512 65.825660 0
M  V30 40 C 41.067077 35.006794 61.433237 0
M  V30 41 C 41.172931 30.147953 64.388001 0
M  V30 42 C 37.825926 28.101525 52.637501 0
M  V30 43 C 38.566080 29.027850 59.228807 0
M  V30 44 C 41.620113 31.152775 67.946649 0
M  V30 45 C 44.053046 32.351090 67.173921 0
M  V30 46 H 41.654185 28.571311 67.495484 0
M  V30 47 H 41.244175 36.421367 64.403589 0
M  V30 48 H 41.683973 34.785848 63.961919 0
M  V30 49 H 42.667315 36.150469 63.394659 0
M  V30 50 H 43.769962 29.037696 64.432886 0
M  V30 51 H 46.000521 28.625029 64.519221 0
M  V30 52 H 35.945447 31.834700 60.511057 0
M  V30 53 H 39.970518 32.447831 63.157408 0
M  V30 54 H 40.576992 31.449056 61.851914 0
M  V30 55 H 40.124178 29.326611 66.039497 0
M  V30 56 H 37.079381 29.717623 53.853491 0
M  V30 57 H 38.667190 30.013200 53.198451 0
M  V30 58 H 37.767724 33.455018 59.054615 0
M  V30 59 H 39.691157 29.412079 63.016043 0
M  V30 60 H 39.054269 30.421431 64.285401 0
M  V30 61 H 38.821257 27.950107 57.384376 0
M  V30 62 H 43.161398 27.214630 65.982649 0
M  V30 63 H 44.373629 28.757227 67.962378 0
M  V30 64 H 39.420595 35.637451 60.179182 0
M  V30 65 H 37.680264 31.465801 62.740276 0
M  V30 66 H 39.536094 28.230976 54.876460 0
M  V30 67 H 37.876893 28.195667 55.492092 0
M  V30 68 H 34.573600 33.427357 61.288465 0
M  V30 69 H 40.487777 32.821426 60.151898 0
M  V30 70 H 40.085472 33.826960 58.740875 0
M  V30 71 H 41.263792 32.975947 69.044112 0
M  V30 72 H 38.706206 32.250553 57.042900 0
M  V30 73 H 43.407535 34.021447 68.367068 0
M  V30 74 H 40.578997 25.449922 64.653518 0
M  V30 75 H 41.448480 34.072203 61.846717 0
M  V30 76 H 41.829672 35.399654 60.760366 0
M  V30 77 H 41.419912 31.114948 64.824919 0
M  V30 78 H 41.985003 29.906324 63.704203 0
M  V30 79 H 37.273684 27.281754 53.097371 0
M  V30 80 H 37.180487 28.480651 51.849405 0
M  V30 81 H 38.523101 28.133442 59.832702 0
M  V30 82 H 40.687675 30.697476 68.244928 0
M  V30 83 H 44.984134 32.818253 66.883378 0
M  V30 END ATOM
M  V30 BEGIN BOND
M  V30 1 1 2 1
M  V30 2 1 6 5
M  V30 3 1 13 2
M  V30 4 1 13 9
M  V30 5 1 15 8
M  V30 6 1 17 3
M  V30 7 1 18 12
M  V30 8 1 19 10
M  V30 9 1 20 2
M  V30 10 1 20 5
M  V30 11 1 21 20
M  V30 12 1 22 8
M  V30 13 1 24 12
M  V30 14 1 24 16
M  V30 15 1 25 14
M  V30 16 2 26 11
M  V30 17 1 27 8
M  V30 18 1 28 4
M  V30 19 1 29 1
M  V30 20 2 30 3
M  V30 21 1 30 16
M  V30 22 1 31 17
M  V30 23 1 31 23
M  V30 24 1 33 3
M  V30 25 2 33 10
M  V30 26 1 34 10
M  V30 27 1 34 25
M  V30 28 1 35 11 CFG=3
M  V30 29 1 35 17
M  V30 30 1 35 24
M  V30 31 1 36 23
M  V30 32 1 36 35
M  V30 33 2 37 32
M  V30 34 3 38 9
M  V30 35 1 39 5
M  V30 36 2 39 7
M  V30 37 1 39 29
M  V30 38 1 40 23
M  V30 39 1 40 28
M  V30 40 1 41 13
M  V30 41 1 41 18
M  V30 42 1 42 8
M  V30 43 1 42 14
M  V30 44 2 43 19
M  V30 45 1 43 30
M  V30 46 2 44 1
M  V30 47 1 44 32
M  V30 48 2 45 29
M  V30 49 1 45 37
M  V30 50 1 2 46 CFG=1
M  V30 51 1 47 4
M  V30 52 1 48 4
M  V30 53 1 49 4
M  V30 54 1 5 50 CFG=3
M  V30 55 1 51 6
M  V30 56 1 52 11
M  V30 57 1 53 12
M  V30 58 1 54 12
M  V30 59 1 13 55 CFG=1
M  V30 60 1 56 14
M  V30 61 1 57 14
M  V30 62 1 17 58 CFG=3
M  V30 63 1 59 18
M  V30 64 1 60 18
M  V30 65 1 61 19
M  V30 66 1 20 62 CFG=3
M  V30 67 1 63 21
M  V30 68 1 23 64 CFG=3
M  V30 69 1 24 65 CFG=1
M  V30 70 1 66 25
M  V30 71 1 67 25
M  V30 72 1 68 26
M  V30 73 1 69 31
M  V30 74 1 70 31
M  V30 75 1 71 32
M  V30 76 1 72 33
M  V30 77 1 73 37
M  V30 78 1 74 38
M  V30 79 1 75 40
M  V30 80 1 76 40
M  V30 81 1 77 41
M  V30 82 1 78 41
M  V30 83 1 79 42
M  V30 84 1 80 42
M  V30 85 1 81 43
M  V30 86 1 82 44
M  V30 87 1 83 45
M  V30 END BOND
M  V30 END CTAB
M  END
>  <i_epik_Tot_Q>  (1) 
0

>  <i_epik_Tot_abs_Q>  (1) 
0

>  <i_i_glide_confnum>  (1) 
2390

>  <i_i_glide_lignum>  (1) 
98

>  <i_i_glide_posenum>  (1) 
191

>  <i_i_glide_rotatable_bonds>  (1) 
16

>  <i_lp_mmshare_version>  (1) 
72125

>  <i_m_source_file_index>  (1) 
42

>  <i_f3d_flags>  (1) 
0

>  <num_sample>  (1) 
50

>  <b_lp_Chiralities_Consistent>  (1) 
1

>  <r_epik_Charging_Adjusted_Penalty>  (1) 
0.41067983895260396

>  <r_epik_Ionization_Penalty>  (1) 
0.0048607436090088536

>  <r_epik_Ionization_Penalty_Charging>  (1) 
0

>  <r_epik_Ionization_Penalty_Neutral>  (1) 
0.0048607436090088536

>  <r_epik_State_Penalty>  (1) 
0.41067983895260396

>  <r_glide_ring_energy>  (1) 
1.8793194922327006

>  <r_i_docking_score>  (1) 
-6.6522548448356087

>  <r_i_glide_ecoul>  (1) 
2.0611460110147251

>  <r_i_glide_eff_state_penalty>  (1) 
0.41067983895260396

>  <r_i_glide_einternal>  (1) 
13.347622106708219

>  <r_i_glide_emodel>  (1) 
-55.510925311000406

>  <r_i_glide_emodel_strain>  (1) 
2.0212749102048875

>  <r_i_glide_energy>  (1) 
-44.678805455353135

>  <r_i_glide_erotb>  (1) 
0.41134081239429626

>  <r_i_glide_esite>  (1) 
0

>  <r_i_glide_evdw>  (1) 
-46.739951466367863

>  <r_i_glide_gscore>  (1) 
-7.062934683788213

>  <r_i_glide_gscore_strain>  (1) 
0

>  <r_i_glide_hbond>  (1) 
0

>  <r_i_glide_ligand_efficiency>  (1) 
-0.14782788544079131

>  <r_i_glide_ligand_efficiency_ln>  (1) 
-1.3839654560712622

>  <r_i_glide_ligand_efficiency_sa>  (1) 
-0.52580801594127469

>  <r_i_glide_lipo>  (1) 
-3.6404652332269931

>  <r_i_glide_metal>  (1) 
-0

>  <r_i_glide_rewards>  (1) 
-1.80598459128933

>  <r_lp_Energy>  (1) 
42.813420999999998

>  <r_lp_tautomer_probability>  (1) 
0.5

>  <s_epik_Chemistry_Notes>  (1) 
This compound has an imine and may undergo hydrolysis.

>  <s_epik_cmdline>  (1) 
J2VwaWtfcHl0aG9uJywgJy1waHQnLCAnMS4wJywgJy1waCcsICc3LjQnLCAnLXRuJywgJzgnLCAnLW1hJywgJzUwMCcsICctaW1hZScsICc8aW5maWxlLm1hZT4nLCAnLW9tYWUnLCAnPG91dGZpbGUubWFlPic=

>  <s_epik_input>  (1) 
W2NIXTFbY0hdW2NIXVtjSF1jKGMxMilDKD1PKVtDQEBIXShbT0hdKVtDQEBIXShbT0hdKVtDQEBIXTJbQ0BASF0oQyNbQ0hdKVtDSDJdW0NIMl1bQ0gyXVtDQEBIXTNPYyhjNFtDQEBIXShbQ0BAXTM1L1tDSF09Ti9bSF0pW0NIMl1bQ0BASF0oUzUpW0NIMl1PW0NIM10pW2NIXVtjSF1jKFtjSF00KU9bQ0gyXVtDSDJdW0NIMl1DKEYpKEYpRg==

>  <s_glide_docking_method>  (1) 
confgen

>  <s_i_glide_gridfile>  (1) 
gpcr_5ht2c_6bqh_protein_autoprepared_prepared

>  <s_lp_Force_Field>  (1) 
S-OPLS

>  <s_lp_Variant>  (1) 
DiffSBDD_41_num_sample_50-3

>  <s_m_source_file>  (1) 
generated__ligand_DiffSBDD_2026-05-06_prepared.sdf

>  <GenAI_Model>  (1) 
DiffSBDD

>  <Protein>  (1) 
GPCR_5HT2C

$$$$
DiffSBDD_47_num_sample_50
     RDKit          3D

  0  0  0  0  0  0  0  0  0  0999 V3000
M  V30 BEGIN CTAB
M  V30 COUNTS 47 49 0 0 1
M  V30 BEGIN ATOM
M  V30 1 C 40.228312 31.761852 61.999194 0
M  V30 2 C 39.889003 34.253605 61.591945 0
M  V30 3 C 41.470076 34.903545 63.824514 0
M  V30 4 C 38.667404 29.034273 53.272977 0
M  V30 5 C 38.632350 26.867542 54.368186 0
M  V30 6 N 40.683659 29.391200 62.427292 0
M  V30 7 C 39.200621 30.034905 60.627114 0
M  V30 8 C 39.867403 29.074836 61.405565 0
M  V30 9 C 37.474992 30.563806 54.802759 0
M  V30 10 C 38.577464 27.697357 53.195254 0
M  V30 11 O 40.145129 28.496573 58.427640 0
M  V30 12 N 38.531231 29.311180 57.065270 0
M  V30 13 C 39.155511 28.866233 55.815778 0 CFG=2
M  V30 14 C 38.807525 29.806857 54.592236 0
M  V30 15 C 41.256678 33.553317 63.488235 0
M  V30 16 O 42.235874 35.221430 64.907814 0
M  V30 17 C 40.112260 35.599586 61.936956 0
M  V30 18 C 39.076123 29.088629 58.272314 0
M  V30 19 C 39.382480 31.394537 60.922779 0
M  V30 20 C 38.292361 29.608767 59.482972 0
M  V30 21 C 38.884986 27.383296 55.576634 0
M  V30 22 C 40.459512 33.200544 62.362625 0
M  V30 23 C 40.900020 35.922328 63.049429 0
M  V30 24 C 40.848227 30.701156 62.718968 0
M  V30 25 C 39.913909 30.869007 54.440203 0
M  V30 26 H 39.281529 34.032285 60.732771 0
M  V30 27 H 38.625696 29.621429 52.369136 0
M  V30 28 H 38.470925 25.803967 54.270692 0
M  V30 29 H 39.743395 28.021436 61.200239 0
M  V30 30 H 37.504476 31.236588 55.660998 0
M  V30 31 H 37.238726 31.190017 53.944260 0
M  V30 32 H 36.643085 29.875530 54.949418 0
M  V30 33 H 38.459852 27.232534 52.226458 0
M  V30 34 H 37.651671 29.806503 57.003355 0
M  V30 35 H 40.239075 28.904541 55.947028 0
M  V30 36 H 41.703931 32.789081 64.097604 0
M  V30 37 H 42.532753 34.469820 65.395540 0
M  V30 38 H 39.674191 36.387180 61.341917 0
M  V30 39 H 38.877495 32.140220 60.334560 0
M  V30 40 H 37.627251 28.821430 59.832062 0
M  V30 41 H 37.657134 30.444024 59.183278 0
M  V30 42 H 38.924905 26.733976 56.439377 0
M  V30 43 H 41.067400 36.955399 63.309474 0
M  V30 44 H 41.503821 30.907354 63.545866 0
M  V30 45 H 40.004752 31.475026 55.342617 0
M  V30 46 H 40.888451 30.421429 54.253501 0
M  V30 47 H 39.703992 31.547437 53.612305 0
M  V30 END ATOM
M  V30 BEGIN BOND
M  V30 1 2 8 6
M  V30 2 1 8 7
M  V30 3 2 10 4
M  V30 4 1 10 5
M  V30 5 1 13 12
M  V30 6 1 14 4
M  V30 7 1 14 9
M  V30 8 1 14 13
M  V30 9 2 15 3
M  V30 10 1 16 3
M  V30 11 1 17 2
M  V30 12 2 18 11
M  V30 13 1 18 12
M  V30 14 1 19 1
M  V30 15 2 19 7
M  V30 16 1 20 7
M  V30 17 1 20 18
M  V30 18 2 21 5
M  V30 19 1 21 13
M  V30 20 1 22 1
M  V30 21 2 22 2
M  V30 22 1 22 15
M  V30 23 1 23 3
M  V30 24 2 23 17
M  V30 25 2 24 1
M  V30 26 1 24 6
M  V30 27 1 25 14
M  V30 28 1 26 2
M  V30 29 1 27 4
M  V30 30 1 28 5
M  V30 31 1 29 8
M  V30 32 1 30 9
M  V30 33 1 31 9
M  V30 34 1 32 9
M  V30 35 1 33 10
M  V30 36 1 34 12
M  V30 37 1 13 35 CFG=1
M  V30 38 1 36 15
M  V30 39 1 37 16
M  V30 40 1 38 17
M  V30 41 1 39 19
M  V30 42 1 40 20
M  V30 43 1 41 20
M  V30 44 1 42 21
M  V30 45 1 43 23
M  V30 46 1 44 24
M  V30 47 1 45 25
M  V30 48 1 46 25
M  V30 49 1 47 25
M  V30 END BOND
M  V30 END CTAB
M  END
>  <i_epik_Tot_Q>  (1) 
0

>  <i_epik_Tot_abs_Q>  (1) 
0

>  <i_i_glide_confnum>  (1) 
42

>  <i_i_glide_lignum>  (1) 
108

>  <i_i_glide_posenum>  (1) 
205

>  <i_i_glide_rotatable_bonds>  (1) 
6

>  <i_lp_mmshare_version>  (1) 
72125

>  <i_m_source_file_index>  (1) 
48

>  <i_f3d_flags>  (1) 
0

>  <num_sample>  (1) 
50

>  <b_lp_Chiralities_Consistent>  (1) 
1

>  <r_epik_Charging_Adjusted_Penalty>  (1) 
0.0032589894025149397

>  <r_epik_Ionization_Penalty>  (1) 
0.0038156857198904941

>  <r_epik_Ionization_Penalty_Charging>  (1) 
0

>  <r_epik_Ionization_Penalty_Neutral>  (1) 
0.0038156857198904941

>  <r_epik_State_Penalty>  (1) 
0.0032589894025149397

>  <r_glide_ring_energy>  (1) 
0.22159941248723586

>  <r_i_docking_score>  (1) 
-6.6407688278694943

>  <r_i_glide_ecoul>  (1) 
0.40813444194247217

>  <r_i_glide_eff_state_penalty>  (1) 
0.0032589894025149397

>  <r_i_glide_einternal>  (1) 
0.45647748222409668

>  <r_i_glide_emodel>  (1) 
-60.934513255974721

>  <r_i_glide_emodel_strain>  (1) 
0

>  <r_i_glide_energy>  (1) 
-41.450102550035261

>  <r_i_glide_erotb>  (1) 
0.84319913175930694

>  <r_i_glide_esite>  (1) 
-0.0062910959041920138

>  <r_i_glide_evdw>  (1) 
-41.858236991977734

>  <r_i_glide_gscore>  (1) 
-6.6440278172720095

>  <r_i_glide_gscore_strain>  (1) 
0

>  <r_i_glide_hbond>  (1) 
0

>  <r_i_glide_ligand_efficiency>  (1) 
-0.26563075311477979

>  <r_i_glide_ligand_efficiency_ln>  (1) 
-1.5740612199878989

>  <r_i_glide_ligand_efficiency_sa>  (1) 
-0.7767090339224586

>  <r_i_glide_lipo>  (1) 
-3.7756067334982806

>  <r_i_glide_metal>  (1) 
-0

>  <r_i_glide_rewards>  (1) 
-1.6736374363213276

>  <r_lp_Energy>  (1) 
36.557407999999995

>  <r_lp_tautomer_probability>  (1) 
0.99999999999736477

>  <s_epik_cmdline>  (1) 
J2VwaWtfcHl0aG9uJywgJy1waHQnLCAnMS4wJywgJy1waCcsICc3LjQnLCAnLXRuJywgJzgnLCAnLW1hJywgJzUwMCcsICctaW1hZScsICc8aW5maWxlLm1hZT4nLCAnLW9tYWUnLCAnPG91dGZpbGUubWFlPic=

>  <s_epik_input>  (1) 
W09IXWMxW2NIXWMoW2NIXVtjSF1bY0hdMSktYzJbY0hdYyhbY0hdbltjSF0yKVtDSDJdQyg9TylbTkhdW0NAQEhdM1tDSF09W0NIXVtDSF09W0NIXUMzKFtDSDNdKVtDSDNd

>  <s_glide_docking_method>  (1) 
confgen

>  <s_i_glide_gridfile>  (1) 
gpcr_5ht2c_6bqh_protein_autoprepared_prepared

>  <s_lp_Force_Field>  (1) 
S-OPLS

>  <s_lp_Variant>  (1) 
DiffSBDD_47_num_sample_50-2

>  <s_m_source_file>  (1) 
generated__ligand_DiffSBDD_2026-05-06_prepared.sdf

>  <GenAI_Model>  (1) 
DiffSBDD

>  <Protein>  (1) 
GPCR_5HT2C

$$$$
DiffSBDD_3_num_sample_50
     RDKit          3D

  0  0  0  0  0  0  0  0  0  0999 V3000
M  V30 BEGIN CTAB
M  V30 COUNTS 73 76 0 0 1
M  V30 BEGIN ATOM
M  V30 1 C 35.353583 31.853127 60.559865 0
M  V30 2 N 38.169067 39.384052 60.653503 0
M  V30 3 C 36.173954 34.313142 60.717801 0
M  V30 4 C 39.687134 27.455170 58.650856 0 CFG=2
M  V30 5 C 39.813374 29.994241 60.976764 0
M  V30 6 S 41.867417 34.370731 64.260868 0
M  V30 7 C 38.063221 34.062639 59.167489 0
M  V30 8 C 37.867402 38.304325 60.359908 0
M  V30 9 C 38.113881 24.669603 56.634056 0
M  V30 10 C 40.962873 33.035281 63.441477 0 CFG=1
M  V30 11 C 38.638186 27.076484 57.612020 0 CFG=1
M  V30 12 C 35.820999 33.009327 61.453499 0
M  V30 13 C 37.763172 31.529572 59.547008 0 CFG=2
M  V30 14 C 39.542174 29.802756 59.488862 0
M  V30 15 C 40.341772 28.823372 58.667869 0
M  V30 16 C 40.341650 33.608110 62.166929 0
M  V30 17 N 37.613137 34.459136 60.512515 0
M  V30 18 C 37.501840 36.930037 59.974887 0
M  V30 19 O 40.016370 26.613554 57.581617 0
M  V30 20 C 39.556909 35.887398 61.218250 0
M  V30 21 C 41.184292 35.661703 63.190539 0
M  V30 22 C 38.040839 35.816511 60.918642 0 CFG=2
M  V30 23 C 39.219933 27.010284 55.158598 0
M  V30 24 C 40.098244 28.673650 61.704678 0
M  V30 25 N 38.615155 30.499051 58.889160 0 CHG=1
M  V30 26 C 37.719538 26.100298 56.993022 0 CFG=1
M  V30 27 C 36.448729 30.896687 60.054986 0 CFG=2
M  V30 28 C 37.530823 32.732327 58.619473 0
M  V30 29 C 39.975226 35.068290 62.458493 0 CFG=2
M  V30 30 O 35.871612 30.081796 59.053500 0
M  V30 31 N 38.267407 27.305787 56.238771 0
M  V30 32 F 41.764363 32.009802 63.154348 0
M  V30 33 O 37.227361 24.156603 55.660206 0
M  V30 34 H 34.667406 31.241976 61.144435 0
M  V30 35 H 34.756667 32.246769 59.735313 0
M  V30 36 H 35.596321 34.465158 59.804528 0
M  V30 37 H 35.867405 35.105265 61.394131 0
M  V30 38 H 39.643228 26.941705 59.602379 0
M  V30 39 H 38.984688 30.442677 61.517221 0
M  V30 40 H 39.152430 34.021424 59.151253 0
M  V30 41 H 37.744829 34.816239 58.451339 0
M  V30 42 H 39.145624 24.569728 56.305059 0
M  V30 43 H 38.023775 24.055612 57.530767 0
M  V30 44 H 40.190580 32.670774 64.119450 0
M  V30 45 H 34.970616 33.257777 62.090105 0
M  V30 46 H 36.623794 32.700808 62.125742 0
M  V30 47 H 38.308657 31.930008 60.393121 0
M  V30 48 H 40.667387 30.662247 61.087397 0
M  V30 49 H 40.414337 29.185152 57.641013 0
M  V30 50 H 41.067438 33.566660 61.355334 0
M  V30 51 H 39.477452 33.022276 61.864987 0
M  V30 52 H 37.867401 36.821421 58.958350 0
M  V30 53 H 36.413916 36.897135 59.919294 0
M  V30 54 H 40.162684 35.628935 60.349406 0
M  V30 55 H 39.796029 36.925060 61.453482 0
M  V30 56 H 40.906996 36.534249 63.780554 0
M  V30 57 H 41.949022 35.972920 62.480015 0
M  V30 58 H 37.584681 36.023433 61.887955 0
M  V30 59 H 38.677469 26.740604 54.252004 0
M  V30 60 H 39.929101 26.210481 55.357286 0
M  V30 61 H 39.804044 27.901948 54.933479 0
M  V30 62 H 40.306069 28.861773 62.758591 0
M  V30 63 H 40.960737 28.142135 61.301910 0
M  V30 64 H 39.229482 28.017602 61.669439 0
M  V30 65 H 41.362416 28.750676 59.045362 0
M  V30 66 H 36.667469 26.242368 57.230629 0
M  V30 67 H 36.717174 30.244985 60.880083 0
M  V30 68 H 36.479547 32.866305 58.398419 0
M  V30 69 H 37.987884 32.556385 57.644824 0
M  V30 70 H 39.149504 35.074633 63.168165 0
M  V30 71 H 35.587465 30.645030 58.332667 0
M  V30 72 H 36.342915 24.211588 55.988516 0
M  V30 73 H 38.444020 30.334102 57.899971 0
M  V30 END ATOM
M  V30 BEGIN BOND
M  V30 1 3 8 2
M  V30 2 1 10 6
M  V30 3 1 11 4
M  V30 4 1 12 1
M  V30 5 1 12 3
M  V30 6 1 14 5
M  V30 7 1 15 4
M  V30 8 1 15 14
M  V30 9 1 16 10
M  V30 10 1 17 3
M  V30 11 1 17 7
M  V30 12 1 18 8
M  V30 13 1 19 4
M  V30 14 1 11 19 CFG=3
M  V30 15 1 21 6
M  V30 16 1 22 17
M  V30 17 1 22 18
M  V30 18 1 22 20
M  V30 19 1 24 5
M  V30 20 1 25 13
M  V30 21 2 25 14
M  V30 22 1 26 9
M  V30 23 1 26 11
M  V30 24 1 27 1
M  V30 25 1 27 13
M  V30 26 1 28 7
M  V30 27 1 28 13
M  V30 28 1 29 16
M  V30 29 1 29 20
M  V30 30 1 29 21
M  V30 31 1 30 27
M  V30 32 1 31 11
M  V30 33 1 31 23
M  V30 34 1 31 26
M  V30 35 1 32 10
M  V30 36 1 33 9
M  V30 37 1 34 1
M  V30 38 1 35 1
M  V30 39 1 36 3
M  V30 40 1 37 3
M  V30 41 1 4 38 CFG=1
M  V30 42 1 39 5
M  V30 43 1 40 7
M  V30 44 1 41 7
M  V30 45 1 42 9
M  V30 46 1 43 9
M  V30 47 1 10 44 CFG=1
M  V30 48 1 45 12
M  V30 49 1 46 12
M  V30 50 1 13 47 CFG=1
M  V30 51 1 48 5
M  V30 52 1 49 15
M  V30 53 1 50 16
M  V30 54 1 51 16
M  V30 55 1 52 18
M  V30 56 1 53 18
M  V30 57 1 54 20
M  V30 58 1 55 20
M  V30 59 1 56 21
M  V30 60 1 57 21
M  V30 61 1 22 58 CFG=1
M  V30 62 1 59 23
M  V30 63 1 60 23
M  V30 64 1 61 23
M  V30 65 1 62 24
M  V30 66 1 63 24
M  V30 67 1 64 24
M  V30 68 1 65 15
M  V30 69 1 26 66 CFG=1
M  V30 70 1 27 67 CFG=1
M  V30 71 1 68 28
M  V30 72 1 69 28
M  V30 73 1 29 70 CFG=1
M  V30 74 1 71 30
M  V30 75 1 72 33
M  V30 76 1 73 25
M  V30 END BOND
M  V30 END CTAB
M  END
>  <i_epik_Tot_Q>  (1) 
1

>  <i_epik_Tot_abs_Q>  (1) 
1

>  <i_i_glide_confnum>  (1) 
494

>  <i_i_glide_lignum>  (1) 
11

>  <i_i_glide_posenum>  (1) 
371

>  <i_i_glide_rotatable_bonds>  (1) 
11

>  <i_lp_mmshare_version>  (1) 
72125

>  <i_m_source_file_index>  (1) 
4

>  <i_f3d_flags>  (1) 
0

>  <num_sample>  (1) 
50

>  <b_lp_Chiralities_Consistent>  (1) 
1

>  <r_epik_Charging_Adjusted_Penalty>  (1) 
0.69158801815778803

>  <r_epik_Ionization_Penalty>  (1) 
0.18004840766126984

>  <r_epik_Ionization_Penalty_Charging>  (1) 
0.063917621844604325

>  <r_epik_Ionization_Penalty_Neutral>  (1) 
0.11613078581666553

>  <r_epik_State_Penalty>  (1) 
0.62767039631318366

>  <r_glide_ring_energy>  (1) 
0

>  <r_i_docking_score>  (1) 
-6.6377942412214006

>  <r_i_glide_ecoul>  (1) 
-5.5806298865647515

>  <r_i_glide_eff_state_penalty>  (1) 
0.62767039631318366

>  <r_i_glide_einternal>  (1) 
9.5605922112194559

>  <r_i_glide_emodel>  (1) 
-58.83723594478446

>  <r_i_glide_emodel_strain>  (1) 
0.48785385082950938

>  <r_i_glide_energy>  (1) 
-48.341846577303521

>  <r_i_glide_erotb>  (1) 
0.69427784923131142

>  <r_i_glide_esite>  (1) 
-0.012918245771145349

>  <r_i_glide_evdw>  (1) 
-42.76121669073877

>  <r_i_glide_gscore>  (1) 
-7.2654646375345839

>  <r_i_glide_gscore_strain>  (1) 
0

>  <r_i_glide_hbond>  (1) 
-0.16

>  <r_i_glide_ligand_efficiency>  (1) 
-0.20114528003701215

>  <r_i_glide_ligand_efficiency_ln>  (1) 
-1.4762110705884295

>  <r_i_glide_ligand_efficiency_sa>  (1) 
-0.64518039103534064

>  <r_i_glide_lipo>  (1) 
-3.4509388036471398

>  <r_i_glide_metal>  (1) 
-0

>  <r_i_glide_rewards>  (1) 
-1.3607301198259589

>  <r_lp_Energy>  (1) 
29.912270999999997

>  <s_epik_Chemistry_Notes>  (1) 
This compound has an imine and may undergo hydrolysis.

>  <s_epik_cmdline>  (1) 
J2VwaWtfcHl0aG9uJywgJy1waHQnLCAnMS4wJywgJy1waCcsICc3LjQnLCAnLXRuJywgJzgnLCAnLW1hJywgJzUwMCcsICctaW1hZScsICc8aW5maWxlLm1hZT4nLCAnLW9tYWUnLCAnPG91dGZpbGUubWFlPic=

>  <s_epik_input>  (1) 
RltDQEhdMVNbQ0gyXVtDQEhdKFtDSDJdMSlbQ0gyXVtDQEBIXShbQ0gyXUMjTilOKFtDSDJdW0NIMl0yKVtDSDJdW0NIMl1bQ0gyXVtDQEBIXShbT0hdKVtDQEhdMltOSF1DKD1bQ0hdXFtDSDNdKVxbQ0gyXVtDQEhdKE8zKVtDQF0zNFtDQEhdKFtDSDJdW09IXSlONFtDSDNd

>  <s_glide_docking_method>  (1) 
confgen

>  <s_i_glide_gridfile>  (1) 
gpcr_5ht2c_6bqh_protein_autoprepared_prepared

>  <s_lp_Force_Field>  (1) 
S-OPLS

>  <s_lp_Variant>  (1) 
DiffSBDD_3_num_sample_50-2

>  <s_m_source_file>  (1) 
generated__ligand_DiffSBDD_2026-05-06_prepared.sdf

>  <GenAI_Model>  (1) 
DiffSBDD

>  <Protein>  (1) 
GPCR_5HT2C

$$$$
DiffSBDD_20_num_sample_50
     RDKit          3D

  0  0  0  0  0  0  0  0  0  0999 V3000
M  V30 BEGIN CTAB
M  V30 COUNTS 77 81 0 0 1
M  V30 BEGIN ATOM
M  V30 1 C 37.402838 36.498023 61.960423 0
M  V30 2 C 38.858183 36.935586 63.867714 0
M  V30 3 C 37.351771 33.263323 60.635386 0 CFG=2
M  V30 4 C 40.424651 27.008023 56.430285 0
M  V30 5 C 39.729930 35.915564 63.453295 0
M  V30 6 C 37.146360 29.819316 58.867737 0
M  V30 7 C 41.467402 33.844661 62.660621 0
M  V30 8 C 38.520319 29.849125 58.169970 0 CFG=1
M  V30 9 C 38.002921 28.905935 55.844731 0
M  V30 10 C 38.774604 28.685088 57.171311 0 CFG=2
M  V30 11 C 38.667855 31.257530 57.575884 0
M  V30 12 F 36.278585 25.218369 56.602822 0
M  V30 13 C 38.593663 32.335131 58.661645 0
M  V30 14 C 40.878375 35.621437 64.216337 0
M  V30 15 O 38.120162 30.572940 60.924375 0
M  V30 16 C 38.397885 27.318227 57.762254 0
M  V30 17 C 37.043535 35.429829 59.230908 0
M  V30 18 C 37.078885 30.860385 59.992745 0 CFG=1
M  V30 19 C 37.919594 34.673515 60.260646 0 CFG=1
M  V30 20 C 40.330633 34.135043 61.886817 0
M  V30 21 C 37.467555 28.573769 52.806996 0
M  V30 22 F 37.415024 23.746309 55.510479 0
M  V30 23 C 38.007738 29.832750 53.506224 0
M  V30 24 O 38.378818 25.775547 55.875115 0
M  V30 25 C 37.696454 37.221427 63.125192 0
M  V30 26 C 38.264814 35.471358 61.524736 0
M  V30 27 C 38.839702 29.520949 54.716591 0
M  V30 28 C 38.134783 24.313458 57.703965 0
M  V30 29 C 39.490835 24.996790 57.683325 0
M  V30 30 C 37.507650 24.759083 56.369340 0
M  V30 31 N 37.377618 32.255882 59.525723 0 CFG=1 CHG=1
M  V30 32 C 39.180266 26.272394 56.938718 0 CFG=1
M  V30 33 C 41.742242 34.587022 63.822411 0
M  V30 34 C 40.284866 28.439786 56.955761 0
M  V30 35 O 36.085108 33.362351 60.955955 0 CHG=-1
M  V30 36 C 39.445233 35.172840 62.280920 0
M  V30 37 H 36.509209 36.726817 61.403867 0
M  V30 38 H 39.075246 37.498955 64.764071 0
M  V30 39 H 38.048395 32.907803 61.387428 0
M  V30 40 H 40.462328 26.980607 55.342741 0
M  V30 41 H 41.351980 26.566655 56.793648 0
M  V30 42 H 36.968342 28.842536 59.301707 0
M  V30 43 H 36.338929 29.994563 58.154747 0
M  V30 44 H 42.134455 33.050084 62.360434 0
M  V30 45 H 39.284887 29.740405 58.939163 0
M  V30 46 H 37.596531 27.969088 55.476711 0
M  V30 47 H 37.115812 29.515526 56.019781 0
M  V30 48 H 39.618584 31.349161 57.053495 0
M  V30 49 H 37.888550 31.458351 56.838860 0
M  V30 50 H 39.467402 32.283763 59.306057 0
M  V30 51 H 38.631764 33.286159 58.134139 0
M  V30 52 H 41.091128 36.188477 65.111251 0
M  V30 53 H 37.745477 30.460636 61.783663 0
M  V30 54 H 38.721589 27.271517 58.803812 0
M  V30 55 H 37.321876 27.147523 57.764080 0
M  V30 56 H 37.467388 36.401152 58.978331 0
M  V30 57 H 36.958641 34.858314 58.307765 0
M  V30 58 H 36.026328 35.594906 59.586882 0
M  V30 59 H 36.107785 30.815852 60.488958 0
M  V30 60 H 38.881747 34.591533 59.772122 0
M  V30 61 H 40.139229 33.555591 61.004267 0
M  V30 62 H 37.013018 28.821396 51.853508 0
M  V30 63 H 38.264176 27.857826 52.605977 0
M  V30 64 H 36.708640 28.069580 53.405970 0
M  V30 65 H 37.209542 30.495434 53.853501 0
M  V30 66 H 38.667410 30.379988 52.832345 0
M  V30 67 H 37.026256 38.001452 63.453462 0
M  V30 68 H 39.312336 30.444947 55.042599 0
M  V30 69 H 39.638374 28.853481 54.403433 0
M  V30 70 H 37.550593 24.706938 58.534585 0
M  V30 71 H 38.194912 23.235044 57.853437 0
M  V30 72 H 40.207483 24.403757 57.114922 0
M  V30 73 H 39.924355 25.221430 58.653492 0
M  V30 74 H 42.618671 34.362076 64.412305 0
M  V30 75 H 40.758580 29.166247 56.305457 0
M  V30 76 H 40.813664 28.502203 57.908150 0
M  V30 77 H 36.596844 32.507950 58.931922 0
M  V30 END ATOM
M  V30 BEGIN BOND
M  V30 1 1 5 2
M  V30 2 1 8 6
M  V30 3 1 10 8
M  V30 4 1 10 9 CFG=3
M  V30 5 1 11 8
M  V30 6 1 13 11
M  V30 7 2 14 5
M  V30 8 1 16 10
M  V30 9 1 18 6
M  V30 10 1 18 15
M  V30 11 1 19 3
M  V30 12 1 19 17
M  V30 13 1 20 7
M  V30 14 1 23 21
M  V30 15 1 25 1
M  V30 16 2 25 2
M  V30 17 2 26 1
M  V30 18 1 26 19
M  V30 19 1 27 9
M  V30 20 1 27 23
M  V30 21 1 29 28
M  V30 22 1 30 12
M  V30 23 1 30 22
M  V30 24 1 30 24
M  V30 25 1 30 28
M  V30 26 1 31 3
M  V30 27 1 31 13
M  V30 28 1 31 18
M  V30 29 1 32 4
M  V30 30 1 32 16
M  V30 31 1 32 24 CFG=3
M  V30 32 1 32 29
M  V30 33 2 33 7
M  V30 34 1 33 14
M  V30 35 1 34 4
M  V30 36 1 34 10
M  V30 37 1 35 3
M  V30 38 1 36 5
M  V30 39 2 36 20
M  V30 40 1 36 26
M  V30 41 1 37 1
M  V30 42 1 38 2
M  V30 43 1 3 39 CFG=1
M  V30 44 1 40 4
M  V30 45 1 41 4
M  V30 46 1 42 6
M  V30 47 1 43 6
M  V30 48 1 44 7
M  V30 49 1 8 45 CFG=1
M  V30 50 1 46 9
M  V30 51 1 47 9
M  V30 52 1 48 11
M  V30 53 1 49 11
M  V30 54 1 50 13
M  V30 55 1 51 13
M  V30 56 1 52 14
M  V30 57 1 53 15
M  V30 58 1 54 16
M  V30 59 1 55 16
M  V30 60 1 56 17
M  V30 61 1 57 17
M  V30 62 1 58 17
M  V30 63 1 18 59 CFG=1
M  V30 64 1 19 60 CFG=3
M  V30 65 1 61 20
M  V30 66 1 62 21
M  V30 67 1 63 21
M  V30 68 1 64 21
M  V30 69 1 65 23
M  V30 70 1 66 23
M  V30 71 1 67 25
M  V30 72 1 68 27
M  V30 73 1 69 27
M  V30 74 1 70 28
M  V30 75 1 71 28
M  V30 76 1 72 29
M  V30 77 1 73 29
M  V30 78 1 74 33
M  V30 79 1 75 34
M  V30 80 1 76 34
M  V30 81 1 31 77 CFG=3
M  V30 END BOND
M  V30 END CTAB
M  END
>  <i_epik_Tot_Q>  (1) 
0

>  <i_epik_Tot_abs_Q>  (1) 
2

>  <i_i_glide_confnum>  (1) 
912

>  <i_i_glide_lignum>  (1) 
58

>  <i_i_glide_posenum>  (1) 
225

>  <i_i_glide_rotatable_bonds>  (1) 
8

>  <i_lp_mmshare_version>  (1) 
72125

>  <i_m_source_file_index>  (1) 
21

>  <i_f3d_flags>  (1) 
0

>  <num_sample>  (1) 
50

>  <b_lp_Chiralities_Consistent>  (1) 
1

>  <r_epik_Charging_Adjusted_Penalty>  (1) 
0.70686764658740575

>  <r_epik_Ionization_Penalty>  (1) 
0.13730248461042968

>  <r_epik_Ionization_Penalty_Charging>  (1) 
0.016711854413244867

>  <r_epik_Ionization_Penalty_Neutral>  (1) 
0.12059063019718481

>  <r_epik_State_Penalty>  (1) 
0.6901557921741609

>  <r_glide_ring_energy>  (1) 
0.79567227155826992

>  <r_i_docking_score>  (1) 
-6.634745016019763

>  <r_i_glide_ecoul>  (1) 
-0.091153637388755371

>  <r_i_glide_eff_state_penalty>  (1) 
0.6901557921741609

>  <r_i_glide_einternal>  (1) 
16.348199312582324

>  <r_i_glide_emodel>  (1) 
-43.688604994561338

>  <r_i_glide_emodel_strain>  (1) 
1.6386720907768222

>  <r_i_glide_energy>  (1) 
-36.981934879623367

>  <r_i_glide_erotb>  (1) 
0.48702584280874928

>  <r_i_glide_esite>  (1) 
-0.105892931545743

>  <r_i_glide_evdw>  (1) 
-36.89078124223461

>  <r_i_glide_gscore>  (1) 
-7.3249008081939238

>  <r_i_glide_gscore_strain>  (1) 
0

>  <r_i_glide_hbond>  (1) 
0

>  <r_i_glide_ligand_efficiency>  (1) 
-0.18429847266721563

>  <r_i_glide_ligand_efficiency_ln>  (1) 
-1.4475221124000806

>  <r_i_glide_ligand_efficiency_sa>  (1) 
-0.60854014882954099

>  <r_i_glide_lipo>  (1) 
-4.4223140985640752

>  <r_i_glide_metal>  (1) 
-0

>  <r_i_glide_rewards>  (1) 
-1.4255075131728114

>  <r_lp_Energy>  (1) 
64.332168999999993

>  <s_epik_Chemistry_Notes>  (1) 
This compound contains an acetal/aminal-like group ( X-CH(R)-Y where X, Y are N, S, or O) that may be acid/base labile, releasing an aldehyde.

>  <s_epik_cmdline>  (1) 
J2VwaWtfcHl0aG9uJywgJy1waHQnLCAnMS4wJywgJy1waCcsICc3LjQnLCAnLXRuJywgJzgnLCAnLW1hJywgJzUwMCcsICctaW1hZScsICc8aW5maWxlLm1hZT4nLCAnLW9tYWUnLCAnPG91dGZpbGUubWFlPic=

>  <s_epik_input>  (1) 
W2NIXTFbY0hdW2NIXVtjSF1jKGMxMiljKFtjSF1bY0hdW2NIXTIpW0NASF0oW0NIM10pW0NAQEhdKFtPSF0pTihbQ0gyXVtDSDJdMylbQ0BIXShbT0hdKVtDSDJdW0NASF0zW0NAQF0oW0NIMl00KShbQ0gyXVtDSDJdW0NIMl1bQ0gzXSlbQ0gyXVtDSDJdW0NAXTQ1T0MoRikoRilbQ0gyXVtDSDJdNQ==

>  <s_glide_docking_method>  (1) 
confgen

>  <s_i_glide_gridfile>  (1) 
gpcr_5ht2c_6bqh_protein_autoprepared_prepared

>  <s_lp_Force_Field>  (1) 
S-OPLS

>  <s_lp_Variant>  (1) 
DiffSBDD_20_num_sample_50-3

>  <s_m_source_file>  (1) 
generated__ligand_DiffSBDD_2026-05-06_prepared.sdf

>  <GenAI_Model>  (1) 
DiffSBDD

>  <Protein>  (1) 
GPCR_5HT2C

$$$$
DiffSBDD_17_num_sample_50
     RDKit          3D

  0  0  0  0  0  0  0  0  0  0999 V3000
M  V30 BEGIN CTAB
M  V30 COUNTS 67 69 0 0 1
M  V30 BEGIN ATOM
M  V30 1 C 41.996649 32.381359 63.296476 0
M  V30 2 S 37.957664 30.043624 55.055753 0
M  V30 3 C 37.024769 37.221350 63.704890 0
M  V30 4 O 37.862693 33.471507 60.057268 0
M  V30 5 C 37.917485 32.390974 60.637950 0
M  V30 6 C 37.816720 37.153897 61.008660 0
M  V30 7 N 39.022810 32.073631 61.391226 0
M  V30 8 C 39.728885 29.556254 61.303658 0 CFG=2
M  V30 9 O 40.996234 29.183123 61.838479 0
M  V30 10 C 39.582907 27.686256 58.565787 0
M  V30 11 C 38.624426 26.932915 57.631442 0
M  V30 12 C 41.574615 32.481784 61.817006 0
M  V30 13 C 39.995299 29.778893 59.793835 0
M  V30 14 O 37.067732 28.021312 53.044545 0 CHG=-1
M  V30 15 C 38.187942 36.534341 63.333429 0
M  V30 16 C 40.160437 33.042807 61.490260 0 CFG=2
M  V30 17 C 39.770670 34.287099 62.323033 0
M  V30 18 C 36.267294 37.900546 62.736448 0
M  V30 19 C 40.954016 28.493374 63.079492 0
M  V30 20 N 39.093275 29.056946 58.862495 0 CFG=1 CHG=1
M  V30 21 C 38.308705 27.717781 56.346385 0 CFG=1
M  V30 22 C 38.881287 29.846485 57.617532 0
M  V30 23 C 38.983116 28.789287 54.223980 0 CFG=2
M  V30 24 C 38.317227 28.032866 53.070463 0
M  V30 25 C 39.787899 35.652318 61.582482 0
M  V30 26 C 37.909379 29.169843 56.640138 0 CFG=1
M  V30 27 C 39.158090 30.775201 62.112753 0
M  V30 28 O 39.074880 27.478767 52.243529 0
M  V30 29 C 39.436815 27.784801 55.305453 0
M  V30 30 S 36.531837 31.291448 60.446162 0 CHG=-1
M  V30 31 C 38.575805 36.476232 61.984667 0
M  V30 32 C 36.667430 37.875548 61.390391 0
M  V30 33 H 42.837277 31.696666 63.409157 0
M  V30 34 H 41.208584 32.038624 63.962188 0
M  V30 35 H 42.321504 33.353156 63.669233 0
M  V30 36 H 36.713533 37.221443 64.738505 0
M  V30 37 H 38.107687 37.112311 59.969742 0
M  V30 38 H 39.067110 28.698534 61.415655 0
M  V30 39 H 39.696211 27.129885 59.495351 0
M  V30 40 H 40.574534 27.738486 58.113177 0
M  V30 41 H 39.036889 25.954816 57.378497 0
M  V30 42 H 37.692307 26.737469 58.161398 0
M  V30 43 H 42.314394 33.126514 61.343382 0
M  V30 44 H 41.703516 31.524370 61.325630 0
M  V30 45 H 39.867294 30.821529 59.572331 0
M  V30 46 H 41.034587 29.565032 59.537602 0
M  V30 47 H 38.767243 36.021380 64.084592 0
M  V30 48 H 40.267287 33.374778 60.457167 0
M  V30 49 H 38.751003 34.099584 62.653501 0
M  V30 50 H 40.326356 34.369561 63.253727 0
M  V30 51 H 35.375521 38.436779 63.025933 0
M  V30 52 H 41.957200 28.150399 63.333156 0
M  V30 53 H 40.305256 27.621826 63.025514 0
M  V30 54 H 40.610149 29.128248 63.895842 0
M  V30 55 H 37.467353 27.221578 55.861475 0
M  V30 56 H 38.478768 30.832235 57.860211 0
M  V30 57 H 39.845816 30.018474 57.137002 0
M  V30 58 H 39.847222 29.306570 53.806173 0
M  V30 59 H 40.705574 36.200588 61.797002 0
M  V30 60 H 39.752473 35.506379 60.502904 0
M  V30 61 H 36.902674 29.222614 57.054552 0
M  V30 62 H 39.746921 30.943057 63.001428 0
M  V30 63 H 38.220035 30.476459 62.576908 0
M  V30 64 H 40.365473 28.133369 55.755977 0
M  V30 65 H 39.646674 26.794821 54.895557 0
M  V30 66 H 36.083178 38.393092 60.651265 0
M  V30 67 H 38.185441 28.990633 59.302313 0
M  V30 END ATOM
M  V30 BEGIN BOND
M  V30 1 2 5 4
M  V30 2 1 7 5
M  V30 3 1 9 8
M  V30 4 1 11 10
M  V30 5 1 12 1
M  V30 6 1 13 8
M  V30 7 1 15 3
M  V30 8 1 16 7
M  V30 9 1 16 12
M  V30 10 1 17 16
M  V30 11 2 18 3
M  V30 12 1 19 9
M  V30 13 1 20 10
M  V30 14 1 20 13
M  V30 15 1 21 11
M  V30 16 1 22 20
M  V30 17 1 23 2
M  V30 18 1 24 14
M  V30 19 1 24 23
M  V30 20 1 25 17
M  V30 21 1 26 2
M  V30 22 1 26 21
M  V30 23 1 26 22
M  V30 24 1 27 7
M  V30 25 1 27 8
M  V30 26 2 28 24
M  V30 27 1 29 21
M  V30 28 1 29 23
M  V30 29 1 30 5
M  V30 30 1 31 6
M  V30 31 2 31 15
M  V30 32 1 31 25
M  V30 33 2 32 6
M  V30 34 1 32 18
M  V30 35 1 33 1
M  V30 36 1 34 1
M  V30 37 1 35 1
M  V30 38 1 36 3
M  V30 39 1 37 6
M  V30 40 1 8 38 CFG=3
M  V30 41 1 39 10
M  V30 42 1 40 10
M  V30 43 1 41 11
M  V30 44 1 42 11
M  V30 45 1 43 12
M  V30 46 1 44 12
M  V30 47 1 45 13
M  V30 48 1 46 13
M  V30 49 1 47 15
M  V30 50 1 16 48 CFG=3
M  V30 51 1 49 17
M  V30 52 1 50 17
M  V30 53 1 51 18
M  V30 54 1 52 19
M  V30 55 1 53 19
M  V30 56 1 54 19
M  V30 57 1 21 55 CFG=3
M  V30 58 1 56 22
M  V30 59 1 57 22
M  V30 60 1 23 58 CFG=3
M  V30 61 1 59 25
M  V30 62 1 60 25
M  V30 63 1 26 61 CFG=1
M  V30 64 1 62 27
M  V30 65 1 63 27
M  V30 66 1 64 29
M  V30 67 1 65 29
M  V30 68 1 66 32
M  V30 69 1 20 67 CFG=1
M  V30 END BOND
M  V30 END CTAB
M  END
>  <i_epik_Tot_Q>  (1) 
-1

>  <i_epik_Tot_abs_Q>  (1) 
3

>  <i_i_glide_confnum>  (1) 
142

>  <i_i_glide_lignum>  (1) 
48

>  <i_i_glide_posenum>  (1) 
301

>  <i_i_glide_rotatable_bonds>  (1) 
12

>  <i_lp_mmshare_version>  (1) 
72125

>  <i_m_source_file_index>  (1) 
18

>  <i_f3d_flags>  (1) 
0

>  <num_sample>  (1) 
50

>  <b_lp_Chiralities_Consistent>  (1) 
1

>  <r_epik_Charging_Adjusted_Penalty>  (1) 
0.068943464179595071

>  <r_epik_Ionization_Penalty>  (1) 
0.034590213650767733

>  <r_epik_Ionization_Penalty_Charging>  (1) 
0.034589667735814351

>  <r_epik_Ionization_Penalty_Neutral>  (1) 
5.4591495337813188e-07

>  <r_epik_State_Penalty>  (1) 
0.034353796443780713

>  <r_glide_ring_energy>  (1) 
0

>  <r_i_docking_score>  (1) 
-6.6277997831612616

>  <r_i_glide_ecoul>  (1) 
-0.57480357125468839

>  <r_i_glide_eff_state_penalty>  (1) 
0.034353796443780713

>  <r_i_glide_einternal>  (1) 
14.697395362440741

>  <r_i_glide_emodel>  (1) 
-48.404780416829624

>  <r_i_glide_emodel_strain>  (1) 
4.8411084167676961

>  <r_i_glide_energy>  (1) 
-37.375575376353801

>  <r_i_glide_erotb>  (1) 
0.61675831554288163

>  <r_i_glide_esite>  (1) 
0

>  <r_i_glide_evdw>  (1) 
-36.80077180509911

>  <r_i_glide_gscore>  (1) 
-6.6621535796050422

>  <r_i_glide_gscore_strain>  (1) 
0.21027710419192402

>  <r_i_glide_hbond>  (1) 
-0.32000000000000001

>  <r_i_glide_ligand_efficiency>  (1) 
-0.20711874322378943

>  <r_i_glide_ligand_efficiency_ln>  (1) 
-1.484145038448436

>  <r_i_glide_ligand_efficiency_sa>  (1) 
-0.65756102175154951

>  <r_i_glide_lipo>  (1) 
-3.7341403684499115

>  <r_i_glide_metal>  (1) 
-0

>  <r_i_glide_rewards>  (1) 
-1.5087895049467774

>  <r_lp_Energy>  (1) 
40.638894999999998

>  <s_epik_cmdline>  (1) 
J2VwaWtfcHl0aG9uJywgJy1waHQnLCAnMS4wJywgJy1waCcsICc3LjQnLCAnLXRuJywgJzgnLCAnLW1hJywgJzUwMCcsICctaW1hZScsICc8aW5maWxlLm1hZT4nLCAnLW9tYWUnLCAnPG91dGZpbGUubWFlPic=

>  <s_epik_input>  (1) 
W2NIXTFbY0hdW2NIXVtjSF1bY0hdYzFbQ0gyXVtDSDJdW0NAQEhdKFtDSDJdW0NIM10pTihDKD1PKVtTSF0pW0NIMl1bQ0hdKE9bQ0gzXSlbQ0gyXU4oW0NIMl1bQ0gyXTIpW0NIMl1bQ0BIXShbQ0BIXTIzKVNbQ0BASF0oW0NIMl0zKUMoPU8pW09IXQ==

>  <s_glide_docking_method>  (1) 
confgen

>  <s_i_glide_gridfile>  (1) 
gpcr_5ht2c_6bqh_protein_autoprepared_prepared

>  <s_lp_Force_Field>  (1) 
S-OPLS

>  <s_lp_Variant>  (1) 
DiffSBDD_17_num_sample_50-1

>  <s_m_source_file>  (1) 
generated__ligand_DiffSBDD_2026-05-06_prepared.sdf

>  <GenAI_Model>  (1) 
DiffSBDD

>  <Protein>  (1) 
GPCR_5HT2C

$$$$
DiffSBDD_10_num_sample_50
     RDKit          3D

  0  0  0  0  0  0  0  0  0  0999 V3000
M  V30 BEGIN CTAB
M  V30 COUNTS 65 67 0 0 1
M  V30 BEGIN ATOM
M  V30 1 C 37.698721 28.685466 57.106146 0
M  V30 2 C 37.867298 27.353917 56.327795 0
M  V30 3 C 39.883874 29.209434 50.350115 0
M  V30 4 N 38.441447 28.662888 54.327595 0
M  V30 5 O 35.948548 34.221221 61.853484 0 CHG=-1
M  V30 6 O 39.067400 31.021906 58.728823 0
M  V30 7 C 40.791378 33.930401 63.453386 0
M  V30 8 C 40.238268 30.119665 51.351392 0
M  V30 9 C 38.949102 35.282165 61.801858 0
M  V30 10 O 35.642607 32.881960 59.708271 0
M  V30 11 N 40.134586 31.810549 62.481133 0
M  V30 12 C 39.773336 29.942266 52.664693 0
M  V30 13 C 38.386161 33.721166 59.290407 0
M  V30 14 C 39.996857 33.198249 62.548142 0
M  V30 15 C 37.823158 27.383619 54.753044 0 CFG=1
M  V30 16 C 39.978119 26.006710 54.253503 0
M  V30 17 C 38.919836 28.833374 52.985310 0
M  V30 18 O 36.263330 31.665225 61.853494 0
M  V30 19 C 37.852053 29.854288 54.893952 0
M  V30 20 N 37.867409 31.153727 56.840838 0
M  V30 21 C 38.452394 26.031603 54.340933 0
M  V30 22 P 36.414842 32.982392 61.201014 0
M  V30 23 C 39.614710 37.504151 62.791858 0
M  V30 24 C 40.668569 35.330156 63.531598 0
M  V30 25 C 38.325771 31.645036 57.973324 0
M  V30 26 N 37.915622 32.901495 58.181523 0
M  V30 27 C 39.067410 28.109508 50.653566 0
M  V30 28 O 40.168339 30.821352 53.633881 0
M  V30 29 F 40.330984 29.390178 49.088422 0
M  V30 30 C 38.574630 27.924216 51.957948 0
M  V30 31 C 39.067998 33.879415 61.710614 0
M  V30 32 C 38.284538 29.878766 56.335985 0 CFG=1
M  V30 33 C 38.218892 33.110144 60.690018 0 CFG=2
M  V30 34 C 39.747102 36.004447 62.708039 0
M  V30 35 H 38.206301 28.589434 58.066559 0
M  V30 36 H 36.667398 28.883699 57.384814 0
M  V30 37 H 38.842548 26.978086 56.635968 0
M  V30 38 H 37.153015 26.623324 56.710180 0
M  V30 39 H 41.498788 33.416893 64.088838 0
M  V30 40 H 40.877302 30.957266 51.114753 0
M  V30 41 H 38.246750 35.805723 61.170206 0
M  V30 42 H 36.216676 32.420553 59.115888 0
M  V30 43 H 40.664962 31.318150 63.184565 0
M  V30 44 H 39.465544 31.259813 61.960148 0
M  V30 45 H 39.442692 33.926347 59.108431 0
M  V30 46 H 37.866908 34.677738 59.236271 0
M  V30 47 H 36.780427 27.397371 54.434525 0
M  V30 48 H 40.267403 24.969585 54.177925 0
M  V30 49 H 40.358502 26.512714 53.370172 0
M  V30 50 H 40.461284 26.432313 55.133282 0
M  V30 51 H 38.026491 30.791906 54.372133 0
M  V30 52 H 36.766733 29.747792 54.853381 0
M  V30 53 H 37.222504 31.703040 56.283639 0
M  V30 54 H 38.164329 25.279890 55.078105 0
M  V30 55 H 37.983501 25.623821 53.453520 0
M  V30 56 H 39.867297 37.871757 63.787043 0
M  V30 57 H 40.266969 37.978155 62.060233 0
M  V30 58 H 38.585844 37.779333 62.566860 0
M  V30 59 H 41.281733 35.887381 64.226274 0
M  V30 60 H 37.294544 33.331751 57.508205 0
M  V30 61 H 38.803403 27.410434 49.878277 0
M  V30 62 H 39.869446 30.534237 54.484199 0
M  V30 63 H 37.925047 27.098715 52.155085 0
M  V30 64 H 39.375789 29.829480 56.374456 0
M  V30 65 H 38.561134 32.088809 60.688760 0
M  V30 END ATOM
M  V30 BEGIN BOND
M  V30 1 1 2 1
M  V30 2 2 8 3
M  V30 3 1 12 8
M  V30 4 1 14 7
M  V30 5 1 14 11
M  V30 6 1 15 2
M  V30 7 1 15 4
M  V30 8 1 17 4
M  V30 9 2 17 12
M  V30 10 1 19 4
M  V30 11 1 21 15
M  V30 12 1 21 16
M  V30 13 1 22 5
M  V30 14 1 22 10
M  V30 15 2 22 18
M  V30 16 2 24 7
M  V30 17 2 25 6
M  V30 18 1 25 20
M  V30 19 1 26 13
M  V30 20 1 26 25
M  V30 21 1 27 3
M  V30 22 1 28 12
M  V30 23 1 29 3
M  V30 24 1 30 17
M  V30 25 2 30 27
M  V30 26 1 31 9
M  V30 27 2 31 14
M  V30 28 1 32 1
M  V30 29 1 32 19
M  V30 30 1 32 20
M  V30 31 1 33 13
M  V30 32 1 33 22
M  V30 33 1 33 31
M  V30 34 2 34 9
M  V30 35 1 34 23
M  V30 36 1 34 24
M  V30 37 1 35 1
M  V30 38 1 36 1
M  V30 39 1 37 2
M  V30 40 1 38 2
M  V30 41 1 39 7
M  V30 42 1 40 8
M  V30 43 1 41 9
M  V30 44 1 42 10
M  V30 45 1 43 11
M  V30 46 1 44 11
M  V30 47 1 45 13
M  V30 48 1 46 13
M  V30 49 1 15 47 CFG=1
M  V30 50 1 48 16
M  V30 51 1 49 16
M  V30 52 1 50 16
M  V30 53 1 51 19
M  V30 54 1 52 19
M  V30 55 1 53 20
M  V30 56 1 54 21
M  V30 57 1 55 21
M  V30 58 1 56 23
M  V30 59 1 57 23
M  V30 60 1 58 23
M  V30 61 1 59 24
M  V30 62 1 60 26
M  V30 63 1 61 27
M  V30 64 1 62 28
M  V30 65 1 63 30
M  V30 66 1 32 64 CFG=3
M  V30 67 1 33 65 CFG=3
M  V30 END BOND
M  V30 END CTAB
M  END
>  <i_epik_Tot_Q>  (1) 
-1

>  <i_epik_Tot_abs_Q>  (1) 
1

>  <i_i_glide_confnum>  (1) 
1

>  <i_i_glide_lignum>  (1) 
32

>  <i_i_glide_posenum>  (1) 
332

>  <i_i_glide_rotatable_bonds>  (1) 
11

>  <i_lp_mmshare_version>  (1) 
72125

>  <i_m_source_file_index>  (1) 
11

>  <i_f3d_flags>  (1) 
0

>  <num_sample>  (1) 
50

>  <b_lp_Chiralities_Consistent>  (1) 
1

>  <r_epik_Charging_Adjusted_Penalty>  (1) 
0.73638213407736119

>  <r_epik_Ionization_Penalty>  (1) 
0.43605758440355569

>  <r_epik_Ionization_Penalty_Charging>  (1) 
4.3620522216925192e-06

>  <r_epik_Ionization_Penalty_Neutral>  (1) 
0.43605322235133398

>  <r_epik_State_Penalty>  (1) 
0.73637777202513954

>  <r_glide_ring_energy>  (1) 
0

>  <r_i_docking_score>  (1) 
-6.6268746915841898

>  <r_i_glide_ecoul>  (1) 
-11.85429721070664

>  <r_i_glide_eff_state_penalty>  (1) 
0.73637777202513954

>  <r_i_glide_einternal>  (1) 
13.217637403530922

>  <r_i_glide_emodel>  (1) 
-55.35536673170607

>  <r_i_glide_emodel_strain>  (1) 
9.137135194723669

>  <r_i_glide_energy>  (1) 
-49.100287120882811

>  <r_i_glide_erotb>  (1) 
0.66918926381983879

>  <r_i_glide_esite>  (1) 
-0.25568606566189367

>  <r_i_glide_evdw>  (1) 
-37.245989910176171

>  <r_i_glide_gscore>  (1) 
-7.3632524636093297

>  <r_i_glide_gscore_strain>  (1) 
1.2842837986809172

>  <r_i_glide_hbond>  (1) 
-0.21985241880644515

>  <r_i_glide_ligand_efficiency>  (1) 
-0.19490807916424088

>  <r_i_glide_ligand_efficiency_ln>  (1) 
-1.4640624969099547

>  <r_i_glide_ligand_efficiency_sa>  (1) 
-0.63142651342480083

>  <r_i_glide_lipo>  (1) 
-4.4122092084707818

>  <r_i_glide_metal>  (1) 
-0

>  <r_i_glide_rewards>  (1) 
-0.78853375605616072

>  <r_lp_Energy>  (1) 
40.406531000000001

>  <r_lp_tautomer_probability>  (1) 
0.99999999999736477

>  <s_epik_cmdline>  (1) 
J2VwaWtfcHl0aG9uJywgJy1waHQnLCAnMS4wJywgJy1waCcsICc3LjQnLCAnLXRuJywgJzgnLCAnLW1hJywgJzUwMCcsICctaW1hZScsICc8aW5maWxlLm1hZT4nLCAnLW9tYWUnLCAnPG91dGZpbGUubWFlPic=

>  <s_epik_input>  (1) 
RmMxW2NIXWMoW09IXSljKFtjSF1bY0hdMSlOMltDQEBIXShbQ0gyXVtDSDNdKVtDSDJdW0NIMl1bQ0BASF0oW0NIMl0yKVtOSF1DKD1PKVtOSF1bQ0gyXVtDQEhdKFAoPU8pKFtPSF0pW09IXSljM1tjSF1jKFtDSDNdKVtjSF1bY0hdYzNbTkgyXQ==

>  <s_glide_docking_method>  (1) 
confgen

>  <s_i_glide_gridfile>  (1) 
gpcr_5ht2c_6bqh_protein_autoprepared_prepared

>  <s_lp_Force_Field>  (1) 
S-OPLS

>  <s_lp_Variant>  (1) 
DiffSBDD_10_num_sample_50-1

>  <s_m_source_file>  (1) 
generated__ligand_DiffSBDD_2026-05-06_prepared.sdf

>  <GenAI_Model>  (1) 
DiffSBDD

>  <Protein>  (1) 
GPCR_5HT2C

$$$$
DiffSBDD_34_num_sample_50
     RDKit          3D

  0  0  0  0  0  0  0  0  0  0999 V3000
M  V30 BEGIN CTAB
M  V30 COUNTS 50 51 0 0 1
M  V30 BEGIN ATOM
M  V30 1 C 38.157508 28.999182 53.846315 0 CFG=2
M  V30 2 C 38.934263 32.542207 61.607126 0
M  V30 3 C 39.056045 27.722544 51.842772 0
M  V30 4 C 38.267059 33.311197 55.745290 0
M  V30 5 C 39.059394 29.844272 59.016065 0
M  V30 6 C 39.615089 34.848662 60.632883 0
M  V30 7 C 39.067403 28.906487 52.713888 0
M  V30 8 C 38.903413 30.321853 54.271480 0
M  V30 9 C 39.818924 29.941723 52.495727 0
M  V30 10 C 38.179365 29.948704 56.625204 0
M  V30 11 C 37.907193 28.102053 55.007824 0
M  V30 12 C 40.889948 35.079863 61.468736 0
M  V30 13 C 40.670363 35.957405 62.712882 0
M  V30 14 C 37.868762 28.554881 56.270262 0
M  V30 15 C 38.534481 33.998834 61.321877 0
M  V30 16 O 41.867624 36.021272 63.453202 0
M  V30 17 O 39.043544 31.818043 60.390659 0
M  V30 18 O 39.070706 29.783866 61.435191 0
M  V30 19 O 39.747567 27.621411 50.831488 0
M  V30 20 C 38.703175 30.798945 55.680392 0
M  V30 21 N 39.669133 30.949450 53.414423 0
M  V30 22 C 39.265644 32.185696 56.018045 0
M  V30 23 C 37.982888 30.413029 58.068061 0 CFG=1
M  V30 24 O 36.689018 30.021361 58.493356 0
M  V30 25 C 39.056549 30.471410 60.415018 0
M  V30 26 H 37.174300 29.250875 53.452293 0
M  V30 27 H 39.867765 32.487548 62.166954 0
M  V30 28 H 38.164897 32.085716 62.232042 0
M  V30 29 H 38.376651 26.929484 52.156920 0
M  V30 30 H 38.719127 34.295013 55.849565 0
M  V30 31 H 37.854684 33.238265 54.738909 0
M  V30 32 H 37.446464 33.262866 56.455533 0
M  V30 33 H 40.044669 30.000501 58.579750 0
M  V30 34 H 38.933219 28.765571 59.115228 0
M  V30 35 H 39.187168 35.816186 60.368057 0
M  V30 36 H 39.869259 34.374850 59.685408 0
M  V30 37 H 40.527656 30.056580 51.687278 0
M  V30 38 H 37.685636 27.066528 54.794149 0
M  V30 39 H 41.637117 35.563791 60.837311 0
M  V30 40 H 41.322535 34.122261 61.759959 0
M  V30 41 H 39.891611 35.557097 63.360607 0
M  V30 42 H 40.370524 36.964005 62.421698 0
M  V30 43 H 37.625183 27.860922 57.062643 0
M  V30 44 H 38.255195 34.481950 62.253558 0
M  V30 45 H 37.633074 33.999535 60.708530 0
M  V30 46 H 41.833332 36.761667 64.051653 0
M  V30 47 H 39.604858 32.237944 57.049535 0
M  V30 48 H 40.176730 32.361996 55.453501 0
M  V30 49 H 37.949124 31.498514 58.124152 0
M  V30 50 H 36.067598 30.568481 58.008476 0
M  V30 END ATOM
M  V30 BEGIN BOND
M  V30 1 1 7 1
M  V30 2 1 7 3
M  V30 3 1 8 1
M  V30 4 2 9 7
M  V30 5 1 11 1
M  V30 6 1 12 6
M  V30 7 1 13 12
M  V30 8 1 14 10
M  V30 9 2 14 11
M  V30 10 1 15 2
M  V30 11 1 15 6
M  V30 12 1 16 13
M  V30 13 1 17 2
M  V30 14 2 19 3
M  V30 15 1 20 8
M  V30 16 2 20 10
M  V30 17 2 21 8
M  V30 18 1 21 9
M  V30 19 1 22 4
M  V30 20 1 22 20
M  V30 21 1 23 5
M  V30 22 1 23 10
M  V30 23 1 24 23
M  V30 24 1 25 5
M  V30 25 1 25 17
M  V30 26 2 25 18
M  V30 27 1 1 26 CFG=3
M  V30 28 1 27 2
M  V30 29 1 28 2
M  V30 30 1 29 3
M  V30 31 1 30 4
M  V30 32 1 31 4
M  V30 33 1 32 4
M  V30 34 1 33 5
M  V30 35 1 34 5
M  V30 36 1 35 6
M  V30 37 1 36 6
M  V30 38 1 37 9
M  V30 39 1 38 11
M  V30 40 1 39 12
M  V30 41 1 40 12
M  V30 42 1 41 13
M  V30 43 1 42 13
M  V30 44 1 43 14
M  V30 45 1 44 15
M  V30 46 1 45 15
M  V30 47 1 46 16
M  V30 48 1 47 22
M  V30 49 1 48 22
M  V30 50 1 23 49 CFG=3
M  V30 51 1 50 24
M  V30 END BOND
M  V30 END CTAB
M  END
>  <i_epik_Tot_Q>  (1) 
0

>  <i_epik_Tot_abs_Q>  (1) 
0

>  <i_i_glide_confnum>  (1) 
756

>  <i_i_glide_lignum>  (1) 
88

>  <i_i_glide_posenum>  (1) 
210

>  <i_i_glide_rotatable_bonds>  (1) 
13

>  <i_lp_mmshare_version>  (1) 
72125

>  <i_m_source_file_index>  (1) 
35

>  <i_f3d_flags>  (1) 
0

>  <num_sample>  (1) 
50

>  <b_lp_Chiralities_Consistent>  (1) 
1

>  <r_epik_Charging_Adjusted_Penalty>  (1) 
0.012701380709717016

>  <r_epik_Ionization_Penalty>  (1) 
0.012701608846652416

>  <r_epik_Ionization_Penalty_Charging>  (1) 
0

>  <r_epik_Ionization_Penalty_Neutral>  (1) 
0.012701608846652416

>  <r_epik_State_Penalty>  (1) 
0.012701380709717016

>  <r_glide_ring_energy>  (1) 
0

>  <r_i_docking_score>  (1) 
-6.6218752616708123

>  <r_i_glide_ecoul>  (1) 
-6.7945370406390069

>  <r_i_glide_eff_state_penalty>  (1) 
0.012701380709717016

>  <r_i_glide_einternal>  (1) 
8.057416288579784

>  <r_i_glide_emodel>  (1) 
-59.253604531676061

>  <r_i_glide_emodel_strain>  (1) 
0.071736252584770455

>  <r_i_glide_energy>  (1) 
-44.170999937984234

>  <r_i_glide_erotb>  (1) 
1.4185672597553849

>  <r_i_glide_esite>  (1) 
0

>  <r_i_glide_evdw>  (1) 
-37.376462897345228

>  <r_i_glide_gscore>  (1) 
-6.6345766423805292

>  <r_i_glide_gscore_strain>  (1) 
0

>  <r_i_glide_hbond>  (1) 
-0.45599999999999996

>  <r_i_glide_ligand_efficiency>  (1) 
-0.26487501046683248

>  <r_i_glide_ligand_efficiency_ln>  (1) 
-1.5695828786043216

>  <r_i_glide_ligand_efficiency_sa>  (1) 
-0.77449922901433677

>  <r_i_glide_lipo>  (1) 
-2.2623324692765276

>  <r_i_glide_metal>  (1) 
-0

>  <r_i_glide_rewards>  (1) 
-2.4468077318962744

>  <r_lp_Energy>  (1) 
18.317083999999998

>  <s_epik_Chemistry_Notes>  (1) 
This compound has an ester and may undergo hydrolysis at high or low pH. This compound has an imine and may undergo hydrolysis.

>  <s_epik_cmdline>  (1) 
J2VwaWtfcHl0aG9uJywgJy1waHQnLCAnMS4wJywgJy1waCcsICc3LjQnLCAnLXRuJywgJzgnLCAnLW1hJywgJzUwMCcsICctaW1hZScsICc8aW5maWxlLm1hZT4nLCAnLW9tYWUnLCAnPG91dGZpbGUubWFlPic=

>  <s_epik_input>  (1) 
Tz1bQ0hdQzE9W0NIXU49QyhbQ0BIXTEyKUMoW0NIMl1bQ0gzXSk9QyhbQ0hdPVtDSF0yKVtDQEBIXShbT0hdKVtDSDJdQyg9TylPW0NIMl1bQ0gyXVtDSDJdW0NIMl1bQ0gyXVtPSF0=

>  <s_glide_docking_method>  (1) 
confgen

>  <s_i_glide_gridfile>  (1) 
gpcr_5ht2c_6bqh_protein_autoprepared_prepared

>  <s_lp_Force_Field>  (1) 
S-OPLS

>  <s_lp_Variant>  (1) 
DiffSBDD_34_num_sample_50-2

>  <s_m_source_file>  (1) 
generated__ligand_DiffSBDD_2026-05-06_prepared.sdf

>  <GenAI_Model>  (1) 
DiffSBDD

>  <Protein>  (1) 
GPCR_5HT2C

$$$$
DiffSBDD_48_num_sample_50
     RDKit          3D

  0  0  0  0  0  0  0  0  0  0999 V3000
M  V30 BEGIN CTAB
M  V30 COUNTS 84 87 0 0 1
M  V30 BEGIN ATOM
M  V30 1 N 42.317402 28.253525 64.848140 0
M  V30 2 C 39.346368 29.635630 53.498191 0
M  V30 3 O 38.050575 26.720782 55.341964 0
M  V30 4 C 41.113631 30.379017 50.826494 0
M  V30 5 S 41.070047 28.021456 59.183573 0
M  V30 6 C 39.172766 28.766355 57.433525 0 CFG=2
M  V30 7 C 41.251123 34.995783 66.389552 0
M  V30 8 C 39.152880 28.759084 54.786714 0 CFG=1
M  V30 9 C 40.494899 27.985339 57.490462 0
M  V30 10 C 41.565648 32.722087 67.011039 0
M  V30 11 C 39.825794 29.648425 61.073058 0
M  V30 12 C 41.072052 25.388895 65.566104 0
M  V30 13 C 41.310646 31.342263 67.579481 0
M  V30 14 C 43.392028 28.944604 65.371149 0
M  V30 15 C 39.027939 29.582332 56.112258 0
M  V30 16 C 43.067382 34.846820 64.720140 0
M  V30 17 C 39.493563 28.849096 52.155021 0
M  V30 18 C 43.017413 30.068693 66.273608 0
M  V30 19 C 39.774342 29.657625 50.865175 0
M  V30 20 N 40.730528 29.511286 66.084982 0
M  V30 21 C 40.380661 28.830179 62.279475 0
M  V30 22 C 42.492277 25.725947 65.078228 0
M  V30 23 C 39.576028 28.816145 59.777116 0 CFG=1
M  V30 24 O 44.554901 28.608520 65.138972 0
M  V30 25 C 40.919316 28.742874 64.888104 0 CFG=1
M  V30 26 C 43.910694 32.319409 66.100948 0
M  V30 27 C 44.108110 30.967723 66.809246 0
M  V30 28 N 39.123230 29.616079 58.636162 0
M  V30 29 C 42.524017 26.974529 64.156309 0
M  V30 30 C 42.622547 33.117969 66.392901 0
M  V30 31 C 37.988064 27.763005 54.653078 0
M  V30 32 N 42.508792 34.374077 65.952273 0
M  V30 33 C 43.462882 25.782916 66.268303 0
M  V30 34 C 40.481069 33.746033 67.063045 0
M  V30 35 C 40.545110 29.599764 63.622837 0
M  V30 36 C 41.736669 30.256617 66.610151 0
M  V30 37 O 37.067420 28.063167 53.864946 0 CHG=-1
M  V30 38 H 38.521749 30.345495 53.424286 0
M  V30 39 H 40.241115 30.243509 53.639822 0
M  V30 40 H 41.309459 30.799162 49.839607 0
M  V30 41 H 41.126434 31.203195 51.539639 0
M  V30 42 H 41.919489 29.685406 51.053386 0
M  V30 43 H 38.348215 28.056394 57.520810 0
M  V30 44 H 40.683827 35.426358 65.562665 0
M  V30 45 H 41.461662 35.780772 67.115966 0
M  V30 46 H 40.032963 28.130876 54.885027 0
M  V30 47 H 41.270036 28.424976 56.863597 0
M  V30 48 H 40.359196 26.955569 57.158281 0
M  V30 49 H 38.881102 30.106101 61.369111 0
M  V30 50 H 40.509940 30.469310 60.855501 0
M  V30 51 H 40.707235 26.122172 66.286076 0
M  V30 52 H 40.364328 25.337767 64.737743 0
M  V30 53 H 41.051447 24.421672 66.061291 0
M  V30 54 H 40.252597 31.246723 67.792700 0
M  V30 55 H 41.825670 31.232618 68.534000 0
M  V30 56 H 38.072294 30.109688 56.120253 0
M  V30 57 H 39.790587 30.361939 56.103860 0
M  V30 58 H 42.478943 34.498299 63.870137 0
M  V30 59 H 43.102582 35.936866 64.700184 0
M  V30 60 H 44.056836 34.421483 64.653514 0
M  V30 61 H 40.267365 28.090751 52.253488 0
M  V30 62 H 38.581146 28.288628 51.958042 0
M  V30 63 H 39.777344 29.729336 66.339999 0
M  V30 64 H 39.735806 28.967388 50.021576 0
M  V30 65 H 39.013331 30.396983 50.653513 0
M  V30 66 H 41.347802 28.418233 61.996298 0
M  V30 67 H 39.716816 27.984986 62.453471 0
M  V30 68 H 42.808148 24.889823 64.451335 0
M  V30 69 H 38.838205 28.034284 59.967586 0
M  V30 70 H 40.267393 27.881572 64.955917 0
M  V30 71 H 44.785152 32.952870 66.253897 0
M  V30 72 H 43.867414 32.036272 65.053505 0
M  V30 73 H 44.045454 31.073588 67.892180 0
M  V30 74 H 45.102336 30.573257 66.593739 0
M  V30 75 H 39.758491 30.387529 58.505140 0
M  V30 76 H 41.713225 26.842347 63.453522 0
M  V30 77 H 43.440906 26.993068 63.564066 0
M  V30 78 H 43.142942 26.507916 67.016192 0
M  V30 79 H 43.534682 24.813311 66.761301 0
M  V30 80 H 44.462540 26.066242 65.947050 0
M  V30 81 H 39.867398 33.389365 66.253606 0
M  V30 82 H 39.979738 33.913513 68.017440 0
M  V30 83 H 39.601640 30.107002 63.824337 0
M  V30 84 H 41.279691 30.395441 63.492179 0
M  V30 END ATOM
M  V30 BEGIN BOND
M  V30 1 1 8 2
M  V30 2 1 9 5
M  V30 3 1 9 6
M  V30 4 1 13 10
M  V30 5 1 14 1
M  V30 6 1 15 6
M  V30 7 1 15 8
M  V30 8 1 17 2
M  V30 9 1 18 14
M  V30 10 1 19 4
M  V30 11 1 19 17
M  V30 12 1 21 11
M  V30 13 1 22 12
M  V30 14 1 23 5
M  V30 15 1 23 11
M  V30 16 2 24 14
M  V30 17 1 25 1
M  V30 18 1 25 20
M  V30 19 1 27 18
M  V30 20 1 27 26
M  V30 21 1 28 6
M  V30 22 1 28 23
M  V30 23 1 29 1
M  V30 24 1 29 22
M  V30 25 2 30 10
M  V30 26 1 30 26
M  V30 27 2 31 3
M  V30 28 1 31 8
M  V30 29 1 32 7
M  V30 30 1 32 16
M  V30 31 1 32 30
M  V30 32 1 33 22
M  V30 33 1 34 7
M  V30 34 1 34 10
M  V30 35 1 35 21
M  V30 36 1 35 25
M  V30 37 1 36 13
M  V30 38 2 36 18
M  V30 39 1 36 20
M  V30 40 1 37 31
M  V30 41 1 38 2
M  V30 42 1 39 2
M  V30 43 1 40 4
M  V30 44 1 41 4
M  V30 45 1 42 4
M  V30 46 1 6 43 CFG=1
M  V30 47 1 44 7
M  V30 48 1 45 7
M  V30 49 1 8 46 CFG=1
M  V30 50 1 47 9
M  V30 51 1 48 9
M  V30 52 1 49 11
M  V30 53 1 50 11
M  V30 54 1 51 12
M  V30 55 1 52 12
M  V30 56 1 53 12
M  V30 57 1 54 13
M  V30 58 1 55 13
M  V30 59 1 56 15
M  V30 60 1 57 15
M  V30 61 1 58 16
M  V30 62 1 59 16
M  V30 63 1 60 16
M  V30 64 1 61 17
M  V30 65 1 62 17
M  V30 66 1 63 20
M  V30 67 1 64 19
M  V30 68 1 65 19
M  V30 69 1 66 21
M  V30 70 1 67 21
M  V30 71 1 68 22
M  V30 72 1 23 69 CFG=1
M  V30 73 1 25 70 CFG=1
M  V30 74 1 71 26
M  V30 75 1 72 26
M  V30 76 1 73 27
M  V30 77 1 74 27
M  V30 78 1 75 28
M  V30 79 1 76 29
M  V30 80 1 77 29
M  V30 81 1 78 33
M  V30 82 1 79 33
M  V30 83 1 80 33
M  V30 84 1 81 34
M  V30 85 1 82 34
M  V30 86 1 83 35
M  V30 87 1 84 35
M  V30 END BOND
M  V30 END CTAB
M  END
>  <i_epik_Tot_Q>  (1) 
-1

>  <i_epik_Tot_abs_Q>  (1) 
1

>  <i_i_glide_confnum>  (1) 
1398

>  <i_i_glide_lignum>  (1) 
109

>  <i_i_glide_posenum>  (1) 
339

>  <i_i_glide_rotatable_bonds>  (1) 
12

>  <i_lp_mmshare_version>  (1) 
72125

>  <i_m_source_file_index>  (1) 
49

>  <i_f3d_flags>  (1) 
0

>  <num_sample>  (1) 
50

>  <b_lp_Chiralities_Consistent>  (1) 
1

>  <r_epik_Charging_Adjusted_Penalty>  (1) 
0.0013214273227819019

>  <r_epik_Ionization_Penalty>  (1) 
0.0045694995394012904

>  <r_epik_Ionization_Penalty_Charging>  (1) 
0.0013214273227819019

>  <r_epik_Ionization_Penalty_Neutral>  (1) 
0.0032480722166193885

>  <r_epik_State_Penalty>  (1) 
-0

>  <r_glide_ring_energy>  (1) 
1.2111851229297446

>  <r_i_docking_score>  (1) 
-6.6187172418587616

>  <r_i_glide_ecoul>  (1) 
-0.17740307454287707

>  <r_i_glide_eff_state_penalty>  (1) 
-0

>  <r_i_glide_einternal>  (1) 
8.8323560205432496

>  <r_i_glide_emodel>  (1) 
-35.173110584693376

>  <r_i_glide_emodel_strain>  (1) 
5.2079789680398534

>  <r_i_glide_energy>  (1) 
-36.870114487685363

>  <r_i_glide_erotb>  (1) 
0.6562967932688043

>  <r_i_glide_esite>  (1) 
-0.03506649802823706

>  <r_i_glide_evdw>  (1) 
-36.692711413142483

>  <r_i_glide_gscore>  (1) 
-6.6187172418587616

>  <r_i_glide_gscore_strain>  (1) 
0.30199474200996335

>  <r_i_glide_hbond>  (1) 
0

>  <r_i_glide_ligand_efficiency>  (1) 
-0.17888424977996653

>  <r_i_glide_ligand_efficiency_ln>  (1) 
-1.4354446050120906

>  <r_i_glide_ligand_efficiency_sa>  (1) 
-0.59608200603209738

>  <r_i_glide_lipo>  (1) 
-4.4346714201879678

>  <r_i_glide_metal>  (1) 
-0

>  <r_i_glide_rewards>  (1) 
-1.2460248270827692

>  <r_lp_Energy>  (1) 
18.394539999999999

>  <r_lp_tautomer_probability>  (1) 
1

>  <s_epik_Chemistry_Notes>  (1) 
This compound has an imine and may undergo hydrolysis. This compound contains an acetal/aminal-like group ( X-CH(R)-Y where X, Y are N, S, or O) that may be acid/base labile, releasing an aldehyde.

>  <s_epik_cmdline>  (1) 
J2VwaWtfcHl0aG9uJywgJy1waHQnLCAnMS4wJywgJy1waCcsICc3LjQnLCAnLXRuJywgJzgnLCAnLW1hJywgJzUwMCcsICctaW1hZScsICc8aW5maWxlLm1hZT4nLCAnLW9tYWUnLCAnPG91dGZpbGUubWFlPic=

>  <s_epik_input>  (1) 
W0NIMl0xW0NIMl1OKFtDSDNdKUMoPUMxMilbQ0gyXVtDSDJdW0NAQEhdM0MoW0NIMl0yKT1OW0NASF0oTihDMz1PKVtDSDJdW0NIXShbQ0gzXSlbQ0gzXSlbQ0gyXVtDSDJdW0NIMl1bQ0BASF0oW05IXTQpU1tDSDJdW0NAQEhdNFtDSDJdW0NAQEhdKEMoPU8pW09IXSlbQ0gyXVtDSDJdW0NIMl1bQ0gzXQ==

>  <s_glide_docking_method>  (1) 
confgen

>  <s_i_glide_gridfile>  (1) 
gpcr_5ht2c_6bqh_protein_autoprepared_prepared

>  <s_lp_Force_Field>  (1) 
S-OPLS

>  <s_lp_Variant>  (1) 
DiffSBDD_48_num_sample_50-1

>  <s_m_source_file>  (1) 
generated__ligand_DiffSBDD_2026-05-06_prepared.sdf

>  <GenAI_Model>  (1) 
DiffSBDD

>  <Protein>  (1) 
GPCR_5HT2C

$$$$
DiffSBDD_19_num_sample_50
     RDKit          3D

  0  0  0  0  0  0  0  0  0  0999 V3000
M  V30 BEGIN CTAB
M  V30 COUNTS 46 49 0 0 1
M  V30 BEGIN ATOM
M  V30 1 N 39.386832 27.526351 56.511766 0
M  V30 2 C 40.380151 29.265342 60.532731 0
M  V30 3 C 39.641441 28.816335 55.835095 0
M  V30 4 C 38.005352 30.020945 59.854869 0
M  V30 5 N 38.028304 30.902816 60.892941 0
M  V30 6 C 40.070791 29.695963 61.952571 0
M  V30 7 C 39.074580 28.908069 59.828254 0 CFG=1
M  V30 8 F 37.467355 29.280762 55.064298 0
M  V30 9 O 39.039300 26.395694 58.548820 0
M  V30 10 O 37.165376 30.076961 58.957666 0
M  V30 11 N 38.664321 27.794184 53.795573 0
M  V30 12 N 39.702067 34.578151 61.609034 0
M  V30 13 C 39.640917 32.245659 62.348267 0 CFG=2
M  V30 14 O 39.388784 28.645337 58.465912 0
M  V30 15 C 41.097767 32.655686 62.095014 0
M  V30 16 O 37.639682 28.022067 52.802488 0
M  V30 17 C 38.256646 26.608097 54.545447 0
M  V30 18 C 39.044387 30.845011 61.988352 0 CFG=1
M  V30 19 C 37.038529 32.003546 60.971384 0
M  V30 20 C 38.695418 28.995954 54.630248 0 CFG=2
M  V30 21 C 38.984558 33.405948 61.651659 0
M  V30 22 C 37.804803 33.299766 61.034519 0
M  V30 23 C 39.280115 26.339594 55.662157 0
M  V30 24 C 39.251955 27.426527 57.907356 0
M  V30 25 C 40.862110 34.140445 61.853501 0
M  V30 26 H 41.050976 28.404633 60.542604 0
M  V30 27 H 40.899674 30.054125 59.993174 0
M  V30 28 H 39.555264 29.712232 56.448447 0
M  V30 29 H 40.669647 28.801688 55.481988 0
M  V30 30 H 40.982423 29.956385 62.490428 0
M  V30 31 H 39.658805 28.834854 62.481651 0
M  V30 32 H 38.632843 28.044109 60.327374 0
M  V30 33 H 41.515813 32.199756 61.197213 0
M  V30 34 H 36.889568 28.208656 53.348395 0
M  V30 35 H 37.261679 26.744810 54.972540 0
M  V30 36 H 38.202049 25.750496 53.876193 0
M  V30 37 H 38.424484 30.601941 62.853399 0
M  V30 38 H 36.367887 32.048399 60.111365 0
M  V30 39 H 36.410210 31.900793 61.853675 0
M  V30 40 H 39.012997 29.850473 54.030673 0
M  V30 41 H 37.377685 34.151042 60.523969 0
M  V30 42 H 38.979350 25.451982 56.220415 0
M  V30 43 H 40.261536 26.121469 55.238065 0
M  V30 44 H 41.741358 34.786293 61.905773 0
M  V30 45 H 39.467398 32.396030 63.415925 0
M  V30 46 H 41.753676 32.480844 62.948242 0
M  V30 END ATOM
M  V30 BEGIN BOND
M  V30 1 1 3 1
M  V30 2 1 5 4
M  V30 3 1 6 2
M  V30 4 1 7 2
M  V30 5 1 7 4
M  V30 6 2 10 4
M  V30 7 1 14 7
M  V30 8 1 15 13
M  V30 9 1 16 11
M  V30 10 1 17 11
M  V30 11 1 18 5
M  V30 12 1 18 6
M  V30 13 1 18 13
M  V30 14 1 19 5
M  V30 15 1 20 3
M  V30 16 1 20 8
M  V30 17 1 20 11
M  V30 18 1 21 12
M  V30 19 1 21 13
M  V30 20 1 22 19
M  V30 21 2 22 21
M  V30 22 1 23 1
M  V30 23 1 23 17
M  V30 24 1 24 1
M  V30 25 2 24 9
M  V30 26 1 24 14
M  V30 27 2 25 12
M  V30 28 1 25 15
M  V30 29 1 26 2
M  V30 30 1 27 2
M  V30 31 1 28 3
M  V30 32 1 29 3
M  V30 33 1 30 6
M  V30 34 1 31 6
M  V30 35 1 7 32 CFG=1
M  V30 36 1 33 15
M  V30 37 1 34 16
M  V30 38 1 35 17
M  V30 39 1 36 17
M  V30 40 1 18 37 CFG=1
M  V30 41 1 38 19
M  V30 42 1 39 19
M  V30 43 1 20 40 CFG=3
M  V30 44 1 41 22
M  V30 45 1 42 23
M  V30 46 1 43 23
M  V30 47 1 44 25
M  V30 48 1 13 45 CFG=1
M  V30 49 1 46 15
M  V30 END BOND
M  V30 END CTAB
M  END
>  <i_epik_Tot_Q>  (1) 
0

>  <i_epik_Tot_abs_Q>  (1) 
0

>  <i_i_glide_confnum>  (1) 
1

>  <i_i_glide_lignum>  (1) 
55

>  <i_i_glide_posenum>  (1) 
181

>  <i_i_glide_rotatable_bonds>  (1) 
4

>  <i_lp_mmshare_version>  (1) 
72125

>  <i_m_source_file_index>  (1) 
20

>  <i_f3d_flags>  (1) 
0

>  <num_sample>  (1) 
50

>  <b_lp_Chiralities_Consistent>  (1) 
1

>  <r_epik_Charging_Adjusted_Penalty>  (1) 
0

>  <r_epik_Ionization_Penalty>  (1) 
0.00023690808741792311

>  <r_epik_Ionization_Penalty_Charging>  (1) 
0

>  <r_epik_Ionization_Penalty_Neutral>  (1) 
0.00023690808741792311

>  <r_epik_State_Penalty>  (1) 
-0

>  <r_glide_ring_energy>  (1) 
0.27322882293606887

>  <r_i_docking_score>  (1) 
-6.6151529523417487

>  <r_i_glide_ecoul>  (1) 
2.1673978051894447

>  <r_i_glide_eff_state_penalty>  (1) 
-0

>  <r_i_glide_einternal>  (1) 
0.96757003214448778

>  <r_i_glide_emodel>  (1) 
-58.74037687616466

>  <r_i_glide_emodel_strain>  (1) 
0.044313473561899741

>  <r_i_glide_energy>  (1) 
-42.166979123072473

>  <r_i_glide_erotb>  (1) 
0.46110279215177946

>  <r_i_glide_esite>  (1) 
0

>  <r_i_glide_evdw>  (1) 
-44.334376928261918

>  <r_i_glide_gscore>  (1) 
-6.6151529523417487

>  <r_i_glide_gscore_strain>  (1) 
0

>  <r_i_glide_hbond>  (1) 
0

>  <r_i_glide_ligand_efficiency>  (1) 
-0.26460611809366996

>  <r_i_glide_ligand_efficiency_ln>  (1) 
-1.5679894898419791

>  <r_i_glide_ligand_efficiency_sa>  (1) 
-0.77371298294553936

>  <r_i_glide_lipo>  (1) 
-2.1476379947253306

>  <r_i_glide_metal>  (1) 
-0

>  <r_i_glide_rewards>  (1) 
-3.0370085741335182

>  <r_lp_Energy>  (1) 
47.112966999999998

>  <r_lp_tautomer_probability>  (1) 
1

>  <s_epik_Chemistry_Notes>  (1) 
This compound has an ester and may undergo hydrolysis at high or low pH. This compound has an imine and may undergo hydrolysis. This compound has a N-S or N-O group and may undergo hydrolysis at high or low pH.

>  <s_epik_cmdline>  (1) 
J2VwaWtfcHl0aG9uJywgJy1waHQnLCAnMS4wJywgJy1waCcsICc3LjQnLCAnLXRuJywgJzgnLCAnLW1hJywgJzUwMCcsICctaW1hZScsICc8aW5maWxlLm1hZT4nLCAnLW9tYWUnLCAnPG91dGZpbGUubWFlPic=

>  <s_epik_input>  (1) 
W0NIMl0xW0NIMl1OKFtPSF0pW0NAQEhdKEYpW0NIMl1OMUMoPU8pT1tDQEhdKEMyPU8pW0NIMl1bQ0gyXVtDQEBIXShOMjMpQz00QyhbQ0gyXVtDSDJdMyk9TltDSDJdW0NIXTQ=

>  <s_glide_docking_method>  (1) 
confgen

>  <s_i_glide_gridfile>  (1) 
gpcr_5ht2c_6bqh_protein_autoprepared_prepared

>  <s_lp_Force_Field>  (1) 
S-OPLS

>  <s_lp_Variant>  (1) 
DiffSBDD_19_num_sample_50-4

>  <s_m_source_file>  (1) 
generated__ligand_DiffSBDD_2026-05-06_prepared.sdf

>  <GenAI_Model>  (1) 
DiffSBDD

>  <Protein>  (1) 
GPCR_5HT2C

$$$$
DiffSBDD_31_num_sample_50
     RDKit          3D

  0  0  0  0  0  0  0  0  0  0999 V3000
M  V30 BEGIN CTAB
M  V30 COUNTS 35 36 0 0 1
M  V30 BEGIN ATOM
M  V30 1 C 39.342504 30.203542 53.187223 0
M  V30 2 C 38.481916 29.086497 53.263830 0
M  V30 3 C 40.207349 29.395905 51.053503 0
M  V30 4 C 38.574345 27.473876 56.274141 0
M  V30 5 C 39.197685 27.349080 57.540816 0
M  V30 6 C 37.527455 28.937512 54.441500 0
M  V30 7 C 38.204985 28.764995 55.798799 0
M  V30 8 O 40.043219 28.367715 59.542914 0
M  V30 9 O 40.267399 26.021430 54.253476 0
M  V30 10 C 39.358980 28.274042 51.132647 0
M  V30 11 C 38.453542 29.901343 56.597061 0
M  V30 12 C 38.294882 26.220960 55.434028 0 CFG=2
M  V30 13 C 37.188228 25.363190 56.067056 0
M  V30 14 C 38.494393 28.119825 52.234744 0
M  V30 15 C 40.198457 30.359791 52.079002 0
M  V30 16 F 39.558069 26.126292 58.005513 0
M  V30 17 N 39.467401 25.381056 55.272604 0
M  V30 18 C 39.067399 29.764287 57.854427 0
M  V30 19 C 39.442570 28.493184 58.323998 0
M  V30 20 H 39.334682 30.947383 53.970504 0
M  V30 21 H 40.863534 29.518703 50.205490 0
M  V30 22 H 36.788359 28.159584 54.253531 0
M  V30 23 H 36.934583 29.852792 54.483102 0
M  V30 24 H 40.287727 27.472533 59.725537 0
M  V30 25 H 40.340687 25.339628 53.602426 0
M  V30 26 H 39.365615 27.535020 50.344388 0
M  V30 27 H 38.167046 30.882172 56.243816 0
M  V30 28 H 37.955968 26.465768 54.432100 0
M  V30 29 H 36.267406 25.935340 56.172989 0
M  V30 30 H 36.961912 24.494659 55.447398 0
M  V30 31 H 37.465356 24.999641 57.056918 0
M  V30 32 H 37.837427 27.263948 52.286644 0
M  V30 33 H 40.846720 31.221430 52.015586 0
M  V30 34 H 40.085795 25.421434 56.074589 0
M  V30 35 H 39.251255 30.638059 58.460391 0
M  V30 END ATOM
M  V30 BEGIN BOND
M  V30 1 1 2 1
M  V30 2 1 5 4
M  V30 3 1 6 2
M  V30 4 2 7 4
M  V30 5 1 7 6
M  V30 6 2 10 3
M  V30 7 1 11 7
M  V30 8 1 12 4
M  V30 9 1 13 12
M  V30 10 2 14 2
M  V30 11 1 14 10
M  V30 12 2 15 1
M  V30 13 1 15 3
M  V30 14 1 16 5
M  V30 15 1 17 9
M  V30 16 1 17 12
M  V30 17 2 18 11
M  V30 18 2 19 5
M  V30 19 1 19 8
M  V30 20 1 19 18
M  V30 21 1 20 1
M  V30 22 1 21 3
M  V30 23 1 22 6
M  V30 24 1 23 6
M  V30 25 1 24 8
M  V30 26 1 25 9
M  V30 27 1 26 10
M  V30 28 1 27 11
M  V30 29 1 12 28 CFG=3
M  V30 30 1 29 13
M  V30 31 1 30 13
M  V30 32 1 31 13
M  V30 33 1 32 14
M  V30 34 1 33 15
M  V30 35 1 34 17
M  V30 36 1 35 18
M  V30 END BOND
M  V30 END CTAB
M  END
>  <i_epik_Tot_Q>  (1) 
0

>  <i_epik_Tot_abs_Q>  (1) 
0

>  <i_i_glide_confnum>  (1) 
67

>  <i_i_glide_lignum>  (1) 
83

>  <i_i_glide_posenum>  (1) 
230

>  <i_i_glide_rotatable_bonds>  (1) 
6

>  <i_lp_mmshare_version>  (1) 
72125

>  <i_m_source_file_index>  (1) 
32

>  <i_f3d_flags>  (1) 
0

>  <num_sample>  (1) 
50

>  <b_lp_Chiralities_Consistent>  (1) 
1

>  <r_epik_Charging_Adjusted_Penalty>  (1) 
0.023527113832685478

>  <r_epik_Ionization_Penalty>  (1) 
0.024468661873060751

>  <r_epik_Ionization_Penalty_Charging>  (1) 
0

>  <r_epik_Ionization_Penalty_Neutral>  (1) 
0.024468661873060751

>  <r_epik_State_Penalty>  (1) 
0.023527113832685478

>  <r_glide_ring_energy>  (1) 
0

>  <r_i_docking_score>  (1) 
-6.6036808322638763

>  <r_i_glide_ecoul>  (1) 
-1.0314919442622545

>  <r_i_glide_eff_state_penalty>  (1) 
0.023527113832685478

>  <r_i_glide_einternal>  (1) 
1.5190675191050782

>  <r_i_glide_emodel>  (1) 
-49.263052757953815

>  <r_i_glide_emodel_strain>  (1) 
0

>  <r_i_glide_energy>  (1) 
-33.176313087149062

>  <r_i_glide_erotb>  (1) 
1.038060136543584

>  <r_i_glide_esite>  (1) 
0

>  <r_i_glide_evdw>  (1) 
-32.144821142886805

>  <r_i_glide_gscore>  (1) 
-6.6272079460965614

>  <r_i_glide_gscore_strain>  (1) 
0

>  <r_i_glide_hbond>  (1) 
0

>  <r_i_glide_ligand_efficiency>  (1) 
-0.34756214906651978

>  <r_i_glide_ligand_efficiency_ln>  (1) 
-1.6741749250382372

>  <r_i_glide_ligand_efficiency_sa>  (1) 
-0.92743541160244392

>  <r_i_glide_lipo>  (1) 
-3.1083971118092948

>  <r_i_glide_metal>  (1) 
-0

>  <r_i_glide_rewards>  (1) 
-2.794906122047172

>  <r_lp_Energy>  (1) 
22.995338

>  <r_lp_tautomer_probability>  (1) 
0.99999999999736477

>  <s_epik_Chemistry_Notes>  (1) 
This compound has a N-S or N-O group and may undergo hydrolysis at high or low pH.

>  <s_epik_cmdline>  (1) 
J2VwaWtfcHl0aG9uJywgJy1waHQnLCAnMS4wJywgJy1waCcsICc3LjQnLCAnLXRuJywgJzgnLCAnLW1hJywgJzUwMCcsICctaW1hZScsICc8aW5maWxlLm1hZT4nLCAnLW9tYWUnLCAnPG91dGZpbGUubWFlPic=

>  <s_epik_input>  (1) 
W2NIXTFbY0hdW2NIXVtjSF1bY0hdYzFbQ0gyXWMyW2NIXVtjSF1jKFtPSF0pYyhGKWMyW0NASF0oW0NIM10pW05IXVtPSF0=

>  <s_glide_docking_method>  (1) 
confgen

>  <s_i_glide_gridfile>  (1) 
gpcr_5ht2c_6bqh_protein_autoprepared_prepared

>  <s_lp_Force_Field>  (1) 
S-OPLS

>  <s_lp_Variant>  (1) 
DiffSBDD_31_num_sample_50-1

>  <s_m_source_file>  (1) 
generated__ligand_DiffSBDD_2026-05-06_prepared.sdf

>  <GenAI_Model>  (1) 
DiffSBDD

>  <Protein>  (1) 
GPCR_5HT2C

$$$$
DiffSBDD_40_num_sample_50
     RDKit          3D

  0  0  0  0  0  0  0  0  0  0999 V3000
M  V30 BEGIN CTAB
M  V30 COUNTS 66 69 0 0 1
M  V30 BEGIN ATOM
M  V30 1 C 39.008037 32.108371 59.912390 0
M  V30 2 C 41.445903 28.273053 58.340405 0
M  V30 3 O 36.178238 23.699099 55.453545 0 CHG=-1
M  V30 4 C 39.734323 27.078230 55.527739 0
M  V30 5 O 38.382572 26.759593 55.775802 0
M  V30 6 C 39.916082 30.959753 55.201716 0 CFG=2
M  V30 7 C 40.032953 28.382080 57.718975 0 CFG=2
M  V30 8 O 38.726458 24.421654 55.957726 0
M  V30 9 C 40.062982 28.453555 56.134322 0 CFG=2
M  V30 10 C 39.503715 30.763688 60.508275 0 CFG=2
M  V30 11 C 38.074174 25.483153 55.250000 0 CFG=1
M  V30 12 C 38.967254 29.542546 53.923630 0
M  V30 13 C 39.255911 29.580361 55.437018 0 CFG=2
M  V30 14 C 39.458496 32.162119 56.010591 0
M  V30 15 O 39.265065 29.531142 59.802219 0
M  V30 16 O 36.870750 31.286594 59.053604 0
M  V30 17 C 39.279279 31.034552 53.832940 0 CFG=1
M  V30 18 C 38.888408 30.635703 61.909354 0
M  V30 19 P 37.082306 24.421460 56.372368 0
M  V30 20 C 35.067364 33.400708 61.444596 0
M  V30 21 O 35.627816 32.099959 61.453493 0
M  V30 22 N 42.236897 27.221430 57.689426 0 CHG=1
M  V30 23 O 37.476181 30.821428 61.853524 0
M  V30 24 C 39.319534 29.564537 58.378542 0
M  V30 25 C 37.474042 32.230286 59.916362 0 CFG=1
M  V30 26 C 38.202161 32.094010 53.888237 0
M  V30 27 O 36.667418 25.339376 57.453513 0
M  V30 28 C 37.014340 32.046791 61.377613 0 CFG=1
M  V30 29 C 38.387796 32.878864 55.198688 0
M  V30 30 C 43.671545 27.184155 58.014096 0
M  V30 31 H 39.432061 32.349041 58.944260 0
M  V30 32 H 39.398954 32.904962 60.547182 0
M  V30 33 H 41.974301 29.221366 58.253439 0
M  V30 34 H 41.379343 28.052005 59.406273 0
M  V30 35 H 39.916998 27.058929 54.453988 0
M  V30 36 H 40.380906 26.313634 55.957197 0
M  V30 37 H 40.994713 30.886944 55.053502 0
M  V30 38 H 39.472082 27.491518 58.011920 0
M  V30 39 H 41.094670 28.648612 55.853554 0
M  V30 40 H 40.586465 30.825761 60.622481 0
M  V30 41 H 38.105860 25.369441 54.170999 0
M  V30 42 H 39.675748 28.963413 53.335203 0
M  V30 43 H 37.939787 29.276577 53.670392 0
M  V30 44 H 38.272611 29.707514 55.888750 0
M  V30 45 H 40.280823 32.829682 56.253560 0
M  V30 46 H 38.972868 31.869112 56.930879 0
M  V30 47 H 36.278508 31.700821 58.426239 0
M  V30 48 H 40.026378 31.231459 53.062138 0
M  V30 49 H 39.106636 29.654980 62.333884 0
M  V30 50 H 39.318575 31.374569 62.586100 0
M  V30 51 H 33.995140 33.293375 61.588026 0
M  V30 52 H 35.454999 34.020547 62.253385 0
M  V30 53 H 35.229963 33.914458 60.497585 0
M  V30 54 H 41.839121 26.315437 57.896423 0
M  V30 55 H 38.302009 29.625080 58.008027 0
M  V30 56 H 39.867401 30.421435 58.046266 0
M  V30 57 H 37.195387 33.227169 59.575550 0
M  V30 58 H 38.267403 32.765249 53.036728 0
M  V30 59 H 37.218123 31.628141 53.864853 0
M  V30 60 H 37.430565 32.819108 62.027823 0
M  V30 61 H 38.667868 33.919882 55.053512 0
M  V30 62 H 37.467333 32.901571 55.770981 0
M  V30 63 H 44.185889 26.482877 57.357172 0
M  V30 64 H 44.124154 28.163080 57.853857 0
M  V30 65 H 43.826285 26.827175 59.033807 0
M  V30 66 H 42.166119 27.360975 56.692590 0
M  V30 END ATOM
M  V30 BEGIN BOND
M  V30 1 1 5 4
M  V30 2 1 7 2
M  V30 3 1 9 4
M  V30 4 1 9 7
M  V30 5 1 10 1
M  V30 6 1 11 5
M  V30 7 1 11 8
M  V30 8 1 13 6
M  V30 9 1 13 9
M  V30 10 1 13 12
M  V30 11 1 14 6
M  V30 12 1 15 10
M  V30 13 1 17 6
M  V30 14 1 17 12
M  V30 15 1 18 10
M  V30 16 1 19 3
M  V30 17 1 19 8
M  V30 18 1 19 11
M  V30 19 1 21 20
M  V30 20 1 22 2
M  V30 21 1 23 18
M  V30 22 1 24 7
M  V30 23 1 24 15
M  V30 24 1 25 1
M  V30 25 1 25 16
M  V30 26 1 26 17
M  V30 27 2 27 19
M  V30 28 1 28 21
M  V30 29 1 28 23
M  V30 30 1 28 25
M  V30 31 1 29 14
M  V30 32 1 29 26
M  V30 33 1 30 22
M  V30 34 1 31 1
M  V30 35 1 32 1
M  V30 36 1 33 2
M  V30 37 1 34 2
M  V30 38 1 35 4
M  V30 39 1 36 4
M  V30 40 1 6 37 CFG=3
M  V30 41 1 7 38 CFG=3
M  V30 42 1 9 39 CFG=1
M  V30 43 1 10 40 CFG=1
M  V30 44 1 11 41 CFG=3
M  V30 45 1 42 12
M  V30 46 1 43 12
M  V30 47 1 13 44 CFG=1
M  V30 48 1 45 14
M  V30 49 1 46 14
M  V30 50 1 47 16
M  V30 51 1 17 48 CFG=3
M  V30 52 1 49 18
M  V30 53 1 50 18
M  V30 54 1 51 20
M  V30 55 1 52 20
M  V30 56 1 53 20
M  V30 57 1 54 22
M  V30 58 1 55 24
M  V30 59 1 56 24
M  V30 60 1 25 57 CFG=3
M  V30 61 1 58 26
M  V30 62 1 59 26
M  V30 63 1 28 60 CFG=1
M  V30 64 1 61 29
M  V30 65 1 62 29
M  V30 66 1 63 30
M  V30 67 1 64 30
M  V30 68 1 65 30
M  V30 69 1 66 22
M  V30 END BOND
M  V30 END CTAB
M  END
>  <i_epik_Tot_Q>  (1) 
0

>  <i_epik_Tot_abs_Q>  (1) 
2

>  <i_i_glide_confnum>  (1) 
1080

>  <i_i_glide_lignum>  (1) 
94

>  <i_i_glide_posenum>  (1) 
364

>  <i_i_glide_rotatable_bonds>  (1) 
12

>  <i_lp_mmshare_version>  (1) 
72125

>  <i_m_source_file_index>  (1) 
41

>  <i_f3d_flags>  (1) 
0

>  <num_sample>  (1) 
50

>  <b_lp_Chiralities_Consistent>  (1) 
1

>  <r_epik_Charging_Adjusted_Penalty>  (1) 
0.001220089536417487

>  <r_epik_Ionization_Penalty>  (1) 
0.0012207097255128069

>  <r_epik_Ionization_Penalty_Charging>  (1) 
0.001220089536417487

>  <r_epik_Ionization_Penalty_Neutral>  (1) 
6.2018909532001439e-07

>  <r_epik_State_Penalty>  (1) 
-0

>  <r_glide_ring_energy>  (1) 
2.4996791549734296

>  <r_i_docking_score>  (1) 
-6.5904900839734388

>  <r_i_glide_ecoul>  (1) 
-10.198646580404761

>  <r_i_glide_eff_state_penalty>  (1) 
-0

>  <r_i_glide_einternal>  (1) 
23.25454765920022

>  <r_i_glide_emodel>  (1) 
-41.299300916031982

>  <r_i_glide_emodel_strain>  (1) 
4.60560923590279

>  <r_i_glide_energy>  (1) 
-41.305533991239962

>  <r_i_glide_erotb>  (1) 
0.69437166535620165

>  <r_i_glide_esite>  (1) 
-0.046265398232754877

>  <r_i_glide_evdw>  (1) 
-31.106887410835199

>  <r_i_glide_gscore>  (1) 
-6.5904900839734388

>  <r_i_glide_gscore_strain>  (1) 
0.15140230897569751

>  <r_i_glide_hbond>  (1) 
-0.59588749954651798

>  <r_i_glide_ligand_efficiency>  (1) 
-0.21968300279911462

>  <r_i_glide_ligand_efficiency_ln>  (1) 
-1.4974311562196909

>  <r_i_glide_ligand_efficiency_sa>  (1) 
-0.68260616730296164

>  <r_i_glide_lipo>  (1) 
-2.3869603501256265

>  <r_i_glide_metal>  (1) 
-0

>  <r_i_glide_rewards>  (1) 
-1.3220094527979649

>  <r_lp_Energy>  (1) 
49.981364999999997

>  <r_lp_tautomer_probability>  (1) 
1

>  <s_epik_Chemistry_Notes>  (1) 
This compound contains an acetal/aminal-like group ( X-CH(R)-Y where X, Y are N, S, or O) that may be acid/base labile, releasing an aldehyde.

>  <s_epik_cmdline>  (1) 
J2VwaWtfcHl0aG9uJywgJy1waHQnLCAnMS4wJywgJy1waCcsICc3LjQnLCAnLXRuJywgJzgnLCAnLW1hJywgJzUwMCcsICctaW1hZScsICc8aW5maWxlLm1hZT4nLCAnLW9tYWUnLCAnPG91dGZpbGUubWFlPic=

>  <s_epik_input>  (1) 
W0NIMl0xT1tDQEhdKE9bQ0gzXSlbQ0BIXShbT0hdKVtDSDJdW0NAQEhdMU9bQ0gyXVtDQEhdKFtDSDJdW05IXVtDSDNdKVtDQEBIXShbQ0gyXU9bQ0BIXTJPW1BAXTIoPU8pW09IXSlbQ0BASF0zW0NIMl1bQ0BIXShbQ0BIXTM0KVtDSDJdW0NIMl1bQ0gyXTQ=

>  <s_glide_docking_method>  (1) 
confgen

>  <s_i_glide_gridfile>  (1) 
gpcr_5ht2c_6bqh_protein_autoprepared_prepared

>  <s_lp_Force_Field>  (1) 
S-OPLS

>  <s_lp_Variant>  (1) 
DiffSBDD_40_num_sample_50-1

>  <s_m_source_file>  (1) 
generated__ligand_DiffSBDD_2026-05-06_prepared.sdf

>  <GenAI_Model>  (1) 
DiffSBDD

>  <Protein>  (1) 
GPCR_5HT2C

$$$$
DiffSBDD_5_num_sample_50
     RDKit          3D

  0  0  0  0  0  0  0  0  0  0999 V3000
M  V30 BEGIN CTAB
M  V30 COUNTS 80 82 0 0 1
M  V30 BEGIN ATOM
M  V30 1 C 38.405026 34.376809 60.471206 0
M  V30 2 C 37.713792 36.903262 60.700471 0 CFG=2
M  V30 3 N 38.771787 29.399473 53.449420 0
M  V30 4 F 41.067085 34.272946 68.462471 0
M  V30 5 C 38.147432 31.928387 58.136214 0
M  V30 6 N 37.758614 33.977474 59.415771 0 CHG=1
M  V30 7 C 38.651393 29.825842 56.701019 0 CFG=1
M  V30 8 C 40.719985 35.840523 66.736199 0 CFG=2
M  V30 9 C 35.915911 38.032889 62.144078 0
M  V30 10 C 37.481279 32.526242 59.389367 0 CFG=2
M  V30 11 N 38.646037 33.398132 61.290214 0
M  V30 12 C 36.267368 39.521232 62.072608 0
M  V30 13 C 39.134836 36.092587 63.219224 0 CFG=2
M  V30 14 C 35.009825 37.734936 63.363587 0
M  V30 15 N 41.259786 35.612125 64.381138 0 CHG=1
M  V30 16 C 37.784890 28.907971 54.402667 0
M  V30 17 C 36.712832 36.725284 59.541745 0
M  V30 18 C 38.141319 32.092077 60.816340 0
M  V30 19 C 38.846824 35.814279 60.701512 0 CFG=1
M  V30 20 C 41.303652 34.901566 65.671738 0
M  V30 21 O 38.570283 27.661644 52.018804 0
M  V30 22 C 40.159754 35.112388 67.966606 0
M  V30 23 C 40.102605 29.393452 51.405333 0
M  V30 24 C 39.076399 28.739533 52.323169 0
M  V30 25 S 39.456787 36.821324 65.893829 0
M  V30 26 C 39.851840 35.956446 61.866909 0
M  V30 27 C 38.092972 37.217118 63.094422 0
M  V30 28 C 40.358945 28.221327 57.154855 0
M  V30 29 O 38.976593 28.459553 56.935510 0
M  V30 30 O 37.467352 31.190176 55.061974 0
M  V30 31 N 37.058313 37.035460 62.041365 0 CFG=2 CHG=1
M  V30 32 C 37.572792 29.878841 55.587191 0 CFG=2
M  V30 33 N 40.045735 36.421447 64.324652 0
M  V30 34 C 38.151792 30.391940 58.056280 0
M  V30 35 H 38.207368 37.857413 60.511670 0
M  V30 36 H 39.214467 30.286685 53.643106 0
M  V30 37 H 39.162809 32.304921 58.026452 0
M  V30 38 H 37.604030 32.329713 57.284681 0
M  V30 39 H 39.538411 30.366470 56.361261 0
M  V30 40 H 41.495114 36.537327 67.052003 0
M  V30 41 H 35.280044 38.021430 61.263263 0
M  V30 42 H 36.405850 32.342660 59.383962 0
M  V30 43 H 39.150659 33.496657 62.158093 0
M  V30 44 H 35.469460 40.021625 61.529899 0
M  V30 45 H 36.267391 39.995425 63.051800 0
M  V30 46 H 37.179722 39.734501 61.515227 0
M  V30 47 H 38.667556 35.162315 63.450812 0
M  V30 48 H 34.070964 38.282768 63.283494 0
M  V30 49 H 34.756168 36.679707 63.453346 0
M  V30 50 H 35.467127 38.025581 64.306451 0
M  V30 51 H 41.280955 34.989654 63.588024 0
M  V30 52 H 38.052286 27.908180 54.746184 0
M  V30 53 H 36.841510 28.793323 53.869901 0
M  V30 54 H 37.230494 36.524277 58.605285 0
M  V30 55 H 36.008232 35.914675 59.726707 0
M  V30 56 H 36.131409 37.621409 59.355657 0
M  V30 57 H 37.400683 31.688724 61.506709 0
M  V30 58 H 38.959203 31.379589 60.710568 0
M  V30 59 H 39.479040 36.021315 59.853568 0
M  V30 60 H 42.317502 34.583381 65.908999 0
M  V30 61 H 40.691019 34.004025 65.589198 0
M  V30 62 H 39.902048 35.811354 68.763370 0
M  V30 63 H 39.270094 34.526717 67.733845 0
M  V30 64 H 40.944577 28.721902 51.245548 0
M  V30 65 H 39.650320 29.610936 50.439091 0
M  V30 66 H 40.487454 30.325160 51.820431 0
M  V30 67 H 40.556385 35.125598 61.852896 0
M  V30 68 H 40.456552 36.849608 61.696385 0
M  V30 69 H 37.625629 37.459746 64.044638 0
M  V30 70 H 38.725168 38.021404 62.772389 0
M  V30 71 H 40.522962 27.161771 57.349595 0
M  V30 72 H 40.949933 28.491418 56.279368 0
M  V30 73 H 40.730375 28.784536 58.010324 0
M  V30 74 H 36.814720 31.655860 55.581164 0
M  V30 75 H 36.618984 29.626064 56.039911 0
M  V30 76 H 37.155324 30.002648 58.274978 0
M  V30 77 H 38.794449 30.013401 58.850385 0
M  V30 78 H 42.018448 36.282937 64.340448 0
M  V30 79 H 37.476515 34.588493 58.659717 0
M  V30 80 H 36.625459 36.139699 62.223098 0
M  V30 END ATOM
M  V30 BEGIN BOND
M  V30 1 2 6 1
M  V30 2 1 10 5
M  V30 3 1 10 6
M  V30 4 1 11 1
M  V30 5 1 12 9
M  V30 6 1 14 9
M  V30 7 1 16 3
M  V30 8 1 17 2
M  V30 9 1 18 10
M  V30 10 1 18 11
M  V30 11 1 19 1
M  V30 12 1 19 2
M  V30 13 1 20 8
M  V30 14 1 20 15
M  V30 15 1 22 4
M  V30 16 1 22 8
M  V30 17 1 24 3
M  V30 18 2 24 21
M  V30 19 1 24 23
M  V30 20 1 25 8
M  V30 21 1 26 13
M  V30 22 1 26 19
M  V30 23 1 27 13
M  V30 24 1 29 7
M  V30 25 1 29 28
M  V30 26 1 31 2
M  V30 27 1 31 9
M  V30 28 1 31 27
M  V30 29 1 32 7
M  V30 30 1 32 16
M  V30 31 1 32 30
M  V30 32 1 33 13
M  V30 33 1 33 15
M  V30 34 1 33 25
M  V30 35 1 34 5
M  V30 36 1 34 7
M  V30 37 1 2 35 CFG=3
M  V30 38 1 36 3
M  V30 39 1 37 5
M  V30 40 1 38 5
M  V30 41 1 7 39 CFG=3
M  V30 42 1 8 40 CFG=1
M  V30 43 1 41 9
M  V30 44 1 10 42 CFG=1
M  V30 45 1 43 11
M  V30 46 1 44 12
M  V30 47 1 45 12
M  V30 48 1 46 12
M  V30 49 1 13 47 CFG=1
M  V30 50 1 48 14
M  V30 51 1 49 14
M  V30 52 1 50 14
M  V30 53 1 51 15
M  V30 54 1 52 16
M  V30 55 1 53 16
M  V30 56 1 54 17
M  V30 57 1 55 17
M  V30 58 1 56 17
M  V30 59 1 57 18
M  V30 60 1 58 18
M  V30 61 1 19 59 CFG=3
M  V30 62 1 60 20
M  V30 63 1 61 20
M  V30 64 1 62 22
M  V30 65 1 63 22
M  V30 66 1 64 23
M  V30 67 1 65 23
M  V30 68 1 66 23
M  V30 69 1 67 26
M  V30 70 1 68 26
M  V30 71 1 69 27
M  V30 72 1 70 27
M  V30 73 1 71 28
M  V30 74 1 72 28
M  V30 75 1 73 28
M  V30 76 1 74 30
M  V30 77 1 32 75 CFG=1
M  V30 78 1 76 34
M  V30 79 1 77 34
M  V30 80 1 78 15
M  V30 81 1 79 6
M  V30 82 1 31 80 CFG=1
M  V30 END BOND
M  V30 END CTAB
M  END
>  <i_epik_Tot_Q>  (1) 
3

>  <i_epik_Tot_abs_Q>  (1) 
3

>  <i_i_glide_confnum>  (1) 
585

>  <i_i_glide_lignum>  (1) 
17

>  <i_i_glide_posenum>  (1) 
158

>  <i_i_glide_rotatable_bonds>  (1) 
13

>  <i_lp_mmshare_version>  (1) 
72125

>  <i_m_source_file_index>  (1) 
6

>  <i_f3d_flags>  (1) 
0

>  <num_sample>  (1) 
50

>  <b_lp_Chiralities_Consistent>  (1) 
1

>  <r_epik_Charging_Adjusted_Penalty>  (1) 
0.16301919670703535

>  <r_epik_Ionization_Penalty>  (1) 
0.082191666583868089

>  <r_epik_Ionization_Penalty_Charging>  (1) 
0.082191230012028396

>  <r_epik_Ionization_Penalty_Neutral>  (1) 
4.3657183969654913e-07

>  <r_epik_State_Penalty>  (1) 
0.080827966695006942

>  <r_glide_ring_energy>  (1) 
0

>  <r_i_docking_score>  (1) 
-6.5864037922702625

>  <r_i_glide_ecoul>  (1) 
-5.1038580950231127

>  <r_i_glide_eff_state_penalty>  (1) 
0.080827966695006942

>  <r_i_glide_einternal>  (1) 
12.208480304711962

>  <r_i_glide_emodel>  (1) 
-48.406285354122545

>  <r_i_glide_emodel_strain>  (1) 
5.3046539836965394

>  <r_i_glide_energy>  (1) 
-42.990873394781573

>  <r_i_glide_erotb>  (1) 
0.63983490757673345

>  <r_i_glide_esite>  (1) 
-0.026105023501982728

>  <r_i_glide_evdw>  (1) 
-37.88701529975846

>  <r_i_glide_gscore>  (1) 
-6.6672317589652694

>  <r_i_glide_gscore_strain>  (1) 
0.32616349592413485

>  <r_i_glide_hbond>  (1) 
-0.19040053032265081

>  <r_i_glide_ligand_efficiency>  (1) 
-0.1937177585961842

>  <r_i_glide_ligand_efficiency_ln>  (1) 
-1.4551213400812331

>  <r_i_glide_ligand_efficiency_sa>  (1) 
-0.62757033686522101

>  <r_i_glide_lipo>  (1) 
-3.219028920578145

>  <r_i_glide_metal>  (1) 
-0

>  <r_i_glide_rewards>  (1) 
-1.5377662088219688

>  <r_lp_Energy>  (1) 
42.251275999999997

>  <s_epik_Chemistry_Notes>  (1) 
This compound has an imine and may undergo hydrolysis. This compound has a N-S or N-O group and may undergo hydrolysis at high or low pH.

>  <s_epik_cmdline>  (1) 
J2VwaWtfcHl0aG9uJywgJy1waHQnLCAnMS4wJywgJy1waCcsICc3LjQnLCAnLXRuJywgJzgnLCAnLW1hJywgJzUwMCcsICctaW1hZScsICc8aW5maWxlLm1hZT4nLCAnLW9tYWUnLCAnPG91dGZpbGUubWFlPic=

>  <s_epik_input>  (1) 
RltDSDJdW0NASF0xW0NIMl1bTkhdTihTMSlbQ0BASF0oW0NIMl1OMltDSF0oW0NIM10pW0NIM10pW0NIMl1bQ0BASF0oW0NASF0yW0NIM10pQzM9TltDQEhdKFtDSDJdW05IXTMpW0NIMl1bQ0gyXVtDQEBIXShPW0NIM10pW0NAQEhdKFtPSF0pW0NIMl1bTkhdQyg9TylbQ0gzXQ==

>  <s_glide_docking_method>  (1) 
confgen

>  <s_i_glide_gridfile>  (1) 
gpcr_5ht2c_6bqh_protein_autoprepared_prepared

>  <s_lp_Force_Field>  (1) 
S-OPLS

>  <s_lp_Variant>  (1) 
DiffSBDD_5_num_sample_50-4

>  <s_m_source_file>  (1) 
generated__ligand_DiffSBDD_2026-05-06_prepared.sdf

>  <GenAI_Model>  (1) 
DiffSBDD

>  <Protein>  (1) 
GPCR_5HT2C

$$$$
DiffSBDD_18_num_sample_50
     RDKit          3D

  0  0  0  0  0  0  0  0  0  0999 V3000
M  V30 BEGIN CTAB
M  V30 COUNTS 73 75 0 0 1
M  V30 BEGIN ATOM
M  V30 1 C 39.391782 29.429865 55.363541 0
M  V30 2 C 39.013280 30.931347 55.273000 0 CFG=1
M  V30 3 C 38.653313 24.852872 56.689885 0
M  V30 4 F 42.667435 33.665447 66.815312 0
M  V30 5 C 40.254877 32.288539 62.746458 0
M  V30 6 C 39.226287 29.071613 60.021815 0 CFG=2
M  V30 7 C 37.930734 24.615036 55.365892 0
M  V30 8 C 40.954383 33.323151 63.574479 0
M  V30 9 F 40.556745 34.986244 61.878846 0
M  V30 10 C 38.237858 28.428135 55.137908 0
M  V30 11 C 41.725148 35.621429 63.853501 0
M  V30 12 C 40.029184 27.771987 59.852584 0
M  V30 13 C 40.380205 30.864962 63.278663 0 CFG=2
M  V30 14 N 41.715974 30.269443 63.277282 0
M  V30 15 C 38.946575 29.744118 58.674418 0
M  V30 16 C 38.072447 31.010501 58.699152 0
M  V30 17 O 41.206657 28.021430 59.102215 0
M  V30 18 C 42.263704 35.290296 65.110643 0
M  V30 19 O 39.642187 32.597299 61.721604 0
M  V30 20 C 41.500610 32.993510 64.842128 0
M  V30 21 S 39.598316 26.382553 56.497594 0
M  V30 22 C 37.746018 33.323902 57.696720 0
M  V30 23 C 37.497625 25.992944 54.861119 0
M  V30 24 C 41.069144 34.649595 63.087890 0
M  V30 25 C 38.613215 31.345141 53.853502 0
M  V30 26 N 37.939585 31.328550 56.228680 0 CHG=1
M  V30 27 F 39.467402 26.818545 53.961530 0
M  V30 28 C 40.002599 29.733742 62.304908 0 CFG=2
M  V30 29 C 41.179217 28.967937 62.911202 0
M  V30 30 C 39.654758 30.995316 52.776332 0
M  V30 31 C 38.381236 31.938421 57.506843 0 CFG=2
M  V30 32 C 38.685592 26.952541 55.033329 0 CFG=1
M  V30 33 C 42.150640 33.979358 65.604531 0
M  V30 34 N 39.944883 30.006954 60.869426 0
M  V30 35 H 40.181041 29.225756 54.649413 0
M  V30 36 H 39.889952 29.219369 56.300894 0
M  V30 37 H 39.915115 31.504484 55.492296 0
M  V30 38 H 39.301154 24.021692 56.970095 0
M  V30 39 H 37.929416 24.996528 57.492604 0
M  V30 40 H 38.267404 28.833114 60.476127 0
M  V30 41 H 38.621032 24.167111 54.653501 0
M  V30 42 H 37.086928 23.933499 55.477409 0
M  V30 43 H 37.514172 28.531705 55.945137 0
M  V30 44 H 37.703397 28.680235 54.222128 0
M  V30 45 H 41.816411 36.628169 63.471925 0
M  V30 46 H 39.430571 27.025146 59.332829 0
M  V30 47 H 40.279513 27.344970 60.820797 0
M  V30 48 H 39.877652 30.716637 64.236418 0
M  V30 49 H 42.100539 30.236802 64.216433 0
M  V30 50 H 39.909958 30.014968 58.248679 0
M  V30 51 H 38.487872 29.011219 58.013440 0
M  V30 52 H 37.014602 30.743856 58.723886 0
M  V30 53 H 38.254196 31.571979 59.614414 0
M  V30 54 H 41.790995 27.282849 59.188956 0
M  V30 55 H 42.762809 36.046640 65.696917 0
M  V30 56 H 41.417891 31.993197 65.233815 0
M  V30 57 H 38.166001 33.825608 58.569004 0
M  V30 58 H 37.923717 33.967841 56.834558 0
M  V30 59 H 36.669274 33.263691 57.853504 0
M  V30 60 H 36.667402 26.332669 55.476546 0
M  V30 61 H 37.142356 25.959688 53.830074 0
M  V30 62 H 37.663499 30.879375 53.609214 0
M  V30 63 H 38.435658 32.421418 53.836184 0
M  V30 64 H 37.323259 30.554228 56.429998 0
M  V30 65 H 39.058726 29.298828 62.627512 0
M  V30 66 H 40.901769 28.365711 63.778846 0
M  V30 67 H 41.810902 28.421444 62.210095 0
M  V30 68 H 39.473291 31.559710 51.861693 0
M  V30 69 H 40.667401 31.221429 53.106896 0
M  V30 70 H 39.621810 29.936630 52.517504 0
M  V30 71 H 39.455723 32.117968 57.475200 0
M  V30 72 H 39.576964 30.947949 60.740692 0
M  V30 73 H 37.346703 32.023916 55.790511 0
M  V30 END ATOM
M  V30 BEGIN BOND
M  V30 1 1 2 1
M  V30 2 1 7 3
M  V30 3 1 8 5
M  V30 4 1 10 1
M  V30 5 1 12 6
M  V30 6 1 13 5
M  V30 7 1 14 13
M  V30 8 1 15 6
M  V30 9 1 16 15
M  V30 10 1 17 12
M  V30 11 2 18 11
M  V30 12 2 19 5
M  V30 13 1 20 8
M  V30 14 1 21 3
M  V30 15 1 23 7
M  V30 16 2 24 8
M  V30 17 1 24 9
M  V30 18 1 24 11
M  V30 19 1 25 2
M  V30 20 1 26 2
M  V30 21 1 28 13
M  V30 22 1 29 14
M  V30 23 1 29 28
M  V30 24 1 30 25
M  V30 25 1 31 16
M  V30 26 1 31 22
M  V30 27 1 31 26
M  V30 28 1 32 10
M  V30 29 1 32 21
M  V30 30 1 32 23
M  V30 31 1 32 27 CFG=3
M  V30 32 1 33 4
M  V30 33 1 33 18
M  V30 34 2 33 20
M  V30 35 1 34 6
M  V30 36 1 34 28
M  V30 37 1 35 1
M  V30 38 1 36 1
M  V30 39 1 2 37 CFG=1
M  V30 40 1 38 3
M  V30 41 1 39 3
M  V30 42 1 6 40 CFG=1
M  V30 43 1 41 7
M  V30 44 1 42 7
M  V30 45 1 43 10
M  V30 46 1 44 10
M  V30 47 1 45 11
M  V30 48 1 46 12
M  V30 49 1 47 12
M  V30 50 1 13 48 CFG=1
M  V30 51 1 49 14
M  V30 52 1 50 15
M  V30 53 1 51 15
M  V30 54 1 52 16
M  V30 55 1 53 16
M  V30 56 1 54 17
M  V30 57 1 55 18
M  V30 58 1 56 20
M  V30 59 1 57 22
M  V30 60 1 58 22
M  V30 61 1 59 22
M  V30 62 1 60 23
M  V30 63 1 61 23
M  V30 64 1 62 25
M  V30 65 1 63 25
M  V30 66 1 64 26
M  V30 67 1 28 65 CFG=1
M  V30 68 1 66 29
M  V30 69 1 67 29
M  V30 70 1 68 30
M  V30 71 1 69 30
M  V30 72 1 70 30
M  V30 73 1 31 71 CFG=3
M  V30 74 1 72 34
M  V30 75 1 73 26
M  V30 END BOND
M  V30 END CTAB
M  END
>  <i_epik_Tot_Q>  (1) 
1

>  <i_epik_Tot_abs_Q>  (1) 
1

>  <i_i_glide_confnum>  (1) 
7623

>  <i_i_glide_lignum>  (1) 
51

>  <i_i_glide_posenum>  (1) 
372

>  <i_i_glide_rotatable_bonds>  (1) 
15

>  <i_lp_mmshare_version>  (1) 
72125

>  <i_m_source_file_index>  (1) 
19

>  <i_f3d_flags>  (1) 
0

>  <num_sample>  (1) 
50

>  <b_lp_Chiralities_Consistent>  (1) 
1

>  <r_epik_Charging_Adjusted_Penalty>  (1) 
1.2230517339192002

>  <r_epik_Ionization_Penalty>  (1) 
1.2279427693353704

>  <r_epik_Ionization_Penalty_Charging>  (1) 
0.0005303694580283578

>  <r_epik_Ionization_Penalty_Neutral>  (1) 
1.2274123998773421

>  <r_epik_State_Penalty>  (1) 
1.2225213644611719

>  <r_glide_ring_energy>  (1) 
0

>  <r_i_docking_score>  (1) 
-6.5826755568279163

>  <r_i_glide_ecoul>  (1) 
-7.1365291343190638

>  <r_i_glide_eff_state_penalty>  (1) 
1.2225213644611719

>  <r_i_glide_einternal>  (1) 
21.794701247392293

>  <r_i_glide_emodel>  (1) 
-67.694576027588582

>  <r_i_glide_emodel_strain>  (1) 
0.4054625572240127

>  <r_i_glide_energy>  (1) 
-52.623793462717266

>  <r_i_glide_erotb>  (1) 
0.97048419377231765

>  <r_i_glide_esite>  (1) 
-0.10000000000000001

>  <r_i_glide_evdw>  (1) 
-45.487264328398204

>  <r_i_glide_gscore>  (1) 
-7.8051969212890882

>  <r_i_glide_gscore_strain>  (1) 
0

>  <r_i_glide_hbond>  (1) 
-0.056404844824450601

>  <r_i_glide_ligand_efficiency>  (1) 
-0.19360810461258576

>  <r_i_glide_ligand_efficiency_ln>  (1) 
-1.4542976682985569

>  <r_i_glide_ligand_efficiency_sa>  (1) 
-0.62721510052589846

>  <r_i_glide_lipo>  (1) 
-3.6063706422731507

>  <r_i_glide_metal>  (1) 
-0

>  <r_i_glide_rewards>  (1) 
-1.6680630413960356

>  <r_lp_Energy>  (1) 
36.781953999999999

>  <r_lp_tautomer_probability>  (1) 
0.99990000499974985

>  <s_epik_cmdline>  (1) 
J2VwaWtfcHl0aG9uJywgJy1waHQnLCAnMS4wJywgJy1waCcsICc3LjQnLCAnLXRuJywgJzgnLCAnLW1hJywgJzUwMCcsICctaW1hZScsICc8aW5maWxlLm1hZT4nLCAnLW9tYWUnLCAnPG91dGZpbGUubWFlPic=

>  <s_epik_input>  (1) 
W0NIMl0xW0NIMl1bQ0gyXVNbQ0BdMShGKVtDSDJdW0NIMl1bQ0BASF0oW0NIMl1bQ0gzXSlbTkhdW0NAQEhdKFtDSDNdKVtDSDJdW0NIMl1bQ0BASF0oW0NIMl1bT0hdKVtOSF1bQ0BIXTJbQ0gyXVtOSF1bQ0BIXTJDKD1PKWMzW2NIXWMoRilbY0hdW2NIXWMzRg==

>  <s_glide_docking_method>  (1) 
confgen

>  <s_i_glide_gridfile>  (1) 
gpcr_5ht2c_6bqh_protein_autoprepared_prepared

>  <s_lp_Force_Field>  (1) 
S-OPLS

>  <s_lp_Variant>  (1) 
DiffSBDD_18_num_sample_50-2

>  <s_m_source_file>  (1) 
generated__ligand_DiffSBDD_2026-05-06_prepared.sdf

>  <GenAI_Model>  (1) 
DiffSBDD

>  <Protein>  (1) 
GPCR_5HT2C

$$$$
DiffSBDD_12_num_sample_50
     RDKit          3D

  0  0  0  0  0  0  0  0  0  0999 V3000
M  V30 BEGIN CTAB
M  V30 COUNTS 69 71 0 0 1
M  V30 BEGIN ATOM
M  V30 1 C 36.612960 36.468473 59.471956 0
M  V30 2 C 38.844483 29.214665 54.391016 0
M  V30 3 C 38.429183 32.294041 56.152499 0
M  V30 4 O 37.869521 32.264041 58.554287 0
M  V30 5 N 38.369357 29.812739 55.558780 0
M  V30 6 F 37.467464 23.621422 57.852813 0
M  V30 7 N 38.630911 33.321886 55.454229 0
M  V30 8 C 38.383055 35.950170 61.233326 0
M  V30 9 C 40.102083 30.700194 51.150354 0
M  V30 10 C 37.611152 37.002685 60.458209 0
M  V30 11 C 37.053828 35.002019 59.446651 0
M  V30 12 C 38.829033 33.606833 60.435558 0
M  V30 13 C 38.021501 24.666870 57.229161 0
M  V30 14 C 38.464582 27.057707 57.870549 0
M  V30 15 N 39.067419 30.075045 53.328476 0
M  V30 16 N 38.267171 29.079936 56.734876 0
M  V30 17 C 38.917133 32.185604 57.586978 0
M  V30 18 C 38.052508 36.171661 62.717302 0
M  V30 19 N 39.067408 27.937765 54.318709 0
M  V30 20 O 37.585357 31.537503 62.170147 0
M  V30 21 C 38.438219 25.791250 55.047548 0
M  V30 22 C 37.678107 31.086939 55.610678 0
M  V30 23 O 40.267411 30.180479 49.853411 0
M  V30 24 C 38.317427 32.234897 59.915193 0 CFG=1
M  V30 25 C 39.913268 36.150729 61.114298 0
M  V30 26 C 38.690467 27.092178 55.377212 0
M  V30 27 C 37.918026 24.726742 55.903897 0
M  V30 28 C 38.473577 27.727296 56.711952 0
M  V30 29 C 38.764210 25.628886 58.048534 0
M  V30 30 C 38.686546 30.676779 62.435925 0
M  V30 31 C 39.500647 29.594175 52.023625 0
M  V30 32 C 37.209159 31.636806 60.800230 0
M  V30 33 O 37.788061 38.210115 60.628285 0
M  V30 34 N 37.843771 34.684801 60.655339 0
M  V30 35 H 36.702644 36.946824 58.500064 0
M  V30 36 H 35.601831 36.591423 59.853523 0
M  V30 37 H 38.199772 33.262307 54.543240 0
M  V30 38 H 36.849203 30.821420 56.251684 0
M  V30 39 H 39.467416 31.583699 51.099376 0
M  V30 40 H 41.067402 31.023568 51.536904 0
M  V30 41 H 37.629115 34.821419 58.540988 0
M  V30 42 H 36.187124 34.342723 59.378903 0
M  V30 43 H 39.340881 33.422671 61.380408 0
M  V30 44 H 39.601989 33.945914 59.748760 0
M  V30 45 H 38.293254 27.610475 58.783275 0
M  V30 46 H 38.913628 31.070494 53.396400 0
M  V30 47 H 37.938708 29.547989 57.568173 0
M  V30 48 H 39.467257 31.253149 57.699335 0
M  V30 49 H 38.279973 37.193305 63.026533 0
M  V30 50 H 36.994473 36.021384 62.936943 0
M  V30 51 H 38.667406 35.540372 63.355553 0
M  V30 52 H 38.569982 25.541308 54.009985 0
M  V30 53 H 39.615515 33.003765 57.753907 0
M  V30 54 H 37.225963 31.333201 54.650007 0
M  V30 55 H 39.407690 30.021327 49.483411 0
M  V30 56 H 39.156262 31.538912 59.951742 0
M  V30 57 H 40.212845 37.144378 61.453528 0
M  V30 58 H 40.462764 35.441745 61.733699 0
M  V30 59 H 40.267321 36.021269 60.098978 0
M  V30 60 H 37.403804 23.912918 55.414664 0
M  V30 61 H 38.525217 25.397909 59.078029 0
M  V30 62 H 39.835634 25.465409 57.927880 0
M  V30 63 H 38.705334 30.421433 63.494675 0
M  V30 64 H 38.642230 29.744210 61.873424 0
M  V30 65 H 39.630987 31.168030 62.203787 0
M  V30 66 H 40.232874 28.792963 52.135568 0
M  V30 67 H 38.634744 29.154547 51.526538 0
M  V30 68 H 36.313988 32.256416 60.742787 0
M  V30 69 H 36.920579 30.652146 60.429190 0
M  V30 END ATOM
M  V30 BEGIN BOND
M  V30 1 1 5 2
M  V30 2 2 7 3
M  V30 3 1 10 1
M  V30 4 1 10 8
M  V30 5 1 11 1
M  V30 6 1 13 6
M  V30 7 1 15 2
M  V30 8 1 16 5
M  V30 9 1 17 3
M  V30 10 1 17 4
M  V30 11 1 18 8
M  V30 12 2 19 2
M  V30 13 1 22 3
M  V30 14 1 22 5
M  V30 15 1 23 9
M  V30 16 1 24 4
M  V30 17 1 24 12
M  V30 18 1 25 8
M  V30 19 1 26 19
M  V30 20 2 26 21
M  V30 21 2 27 13
M  V30 22 1 27 21
M  V30 23 2 28 14
M  V30 24 1 28 16
M  V30 25 1 28 26
M  V30 26 1 29 13
M  V30 27 1 29 14
M  V30 28 1 30 20
M  V30 29 1 31 9
M  V30 30 1 31 15
M  V30 31 1 32 20
M  V30 32 1 32 24
M  V30 33 2 33 10
M  V30 34 1 34 8
M  V30 35 1 34 11
M  V30 36 1 34 12
M  V30 37 1 35 1
M  V30 38 1 36 1
M  V30 39 1 37 7
M  V30 40 1 38 22
M  V30 41 1 39 9
M  V30 42 1 40 9
M  V30 43 1 41 11
M  V30 44 1 42 11
M  V30 45 1 43 12
M  V30 46 1 44 12
M  V30 47 1 45 14
M  V30 48 1 46 15
M  V30 49 1 47 16
M  V30 50 1 48 17
M  V30 51 1 49 18
M  V30 52 1 50 18
M  V30 53 1 51 18
M  V30 54 1 52 21
M  V30 55 1 53 17
M  V30 56 1 54 22
M  V30 57 1 55 23
M  V30 58 1 24 56 CFG=3
M  V30 59 1 57 25
M  V30 60 1 58 25
M  V30 61 1 59 25
M  V30 62 1 60 27
M  V30 63 1 61 29
M  V30 64 1 62 29
M  V30 65 1 63 30
M  V30 66 1 64 30
M  V30 67 1 65 30
M  V30 68 1 66 31
M  V30 69 1 67 31
M  V30 70 1 68 32
M  V30 71 1 69 32
M  V30 END BOND
M  V30 END CTAB
M  END
>  <i_epik_Tot_Q>  (1) 
0

>  <i_epik_Tot_abs_Q>  (1) 
0

>  <i_i_glide_confnum>  (1) 
3396

>  <i_i_glide_lignum>  (1) 
39

>  <i_i_glide_posenum>  (1) 
257

>  <i_i_glide_rotatable_bonds>  (1) 
13

>  <i_lp_mmshare_version>  (1) 
72125

>  <i_m_source_file_index>  (1) 
13

>  <i_f3d_flags>  (1) 
0

>  <num_sample>  (1) 
50

>  <b_lp_Chiralities_Consistent>  (1) 
1

>  <r_epik_Charging_Adjusted_Penalty>  (1) 
0.55554580925232466

>  <r_epik_Ionization_Penalty>  (1) 
0.16124304309229381

>  <r_epik_Ionization_Penalty_Charging>  (1) 
0

>  <r_epik_Ionization_Penalty_Neutral>  (1) 
0.16124304309229381

>  <r_epik_State_Penalty>  (1) 
0.55554580925232466

>  <r_glide_ring_energy>  (1) 
0.004571206772424714

>  <r_i_docking_score>  (1) 
-6.5801658387646835

>  <r_i_glide_ecoul>  (1) 
-5.3773684342187043

>  <r_i_glide_eff_state_penalty>  (1) 
0.55554580925232466

>  <r_i_glide_einternal>  (1) 
15.019284849163473

>  <r_i_glide_emodel>  (1) 
-61.794800055063391

>  <r_i_glide_emodel_strain>  (1) 
3.0116687855413602

>  <r_i_glide_energy>  (1) 
-50.270463174411361

>  <r_i_glide_erotb>  (1) 
0.97331795518224939

>  <r_i_glide_esite>  (1) 
-0.076808974542216968

>  <r_i_glide_evdw>  (1) 
-44.893094740192659

>  <r_i_glide_gscore>  (1) 
-7.1357116480170077

>  <r_i_glide_gscore_strain>  (1) 
0

>  <r_i_glide_hbond>  (1) 
-0.48963184516766328

>  <r_i_glide_ligand_efficiency>  (1) 
-0.19353428937543188

>  <r_i_glide_ligand_efficiency_ln>  (1) 
-1.4537432011831815

>  <r_i_glide_ligand_efficiency_sa>  (1) 
-0.62697596781250065

>  <r_i_glide_lipo>  (1) 
-3.5107778985276474

>  <r_i_glide_metal>  (1) 
-0

>  <r_i_glide_rewards>  (1) 
-0.98055088281929048

>  <r_lp_Energy>  (1) 
34.747627000000001

>  <r_lp_tautomer_probability>  (1) 
0.49996700039999997

>  <s_epik_Chemistry_Notes>  (1) 
This compound has an imine and may undergo hydrolysis.

>  <s_epik_cmdline>  (1) 
J2VwaWtfcHl0aG9uJywgJy1waHQnLCAnMS4wJywgJy1waCcsICc3LjQnLCAnLXRuJywgJzgnLCAnLW1hJywgJzUwMCcsICctaW1hZScsICc8aW5maWxlLm1hZT4nLCAnLW9tYWUnLCAnPG91dGZpbGUubWFlPic=

>  <s_epik_input>  (1) 
W0NIM11DMShbQ0gzXSlDKD1PKVtDSDJdW0NIMl1OMVtDSDJdW0NAQEhdKFtDSDJdT1tDSDNdKU8vW0NIXT1DKFxbTkgyXSlbQ0gyXU4oQyg9TjIpW05IXVtDSDJdW0NIMl1bT0hdKVtOSF1DKEMyMyk9W0NIXVtDSDJdQyhGKT1bQ0hdW0NIXT0z

>  <s_glide_docking_method>  (1) 
confgen

>  <s_i_glide_gridfile>  (1) 
gpcr_5ht2c_6bqh_protein_autoprepared_prepared

>  <s_lp_Force_Field>  (1) 
S-OPLS

>  <s_lp_Variant>  (1) 
DiffSBDD_12_num_sample_50-1

>  <s_m_source_file>  (1) 
generated__ligand_DiffSBDD_2026-05-06_prepared.sdf

>  <GenAI_Model>  (1) 
DiffSBDD

>  <Protein>  (1) 
GPCR_5HT2C

$$$$
DiffSBDD_10_num_sample_50
     RDKit          3D

  0  0  0  0  0  0  0  0  0  0999 V3000
M  V30 BEGIN CTAB
M  V30 COUNTS 64 66 0 0 1
M  V30 BEGIN ATOM
M  V30 1 C 36.450831 34.139338 59.328962 0
M  V30 2 C 36.777720 35.306545 60.241995 0
M  V30 3 C 41.424014 32.398944 63.843998 0
M  V30 4 N 39.027290 34.280178 60.759610 0 CFG=1 CHG=1
M  V30 5 O 38.811215 27.100609 55.562375 0 CHG=-1
M  V30 6 O 39.327055 33.221103 56.334635 0
M  V30 7 C 39.019066 27.663059 51.134224 0
M  V30 8 C 40.219181 31.788887 63.433280 0
M  V30 9 C 39.859402 30.064847 52.330780 0
M  V30 10 O 40.632486 28.814650 55.865269 0 CHG=-1
M  V30 11 N 37.735193 27.112019 53.106590 0
M  V30 12 C 39.429075 32.391042 62.432945 0
M  V30 13 C 38.619809 31.094085 54.681423 0
M  V30 14 C 38.576845 27.982398 52.431231 0
M  V30 15 C 37.774125 34.870460 61.318886 0 CFG=1
M  V30 16 C 38.866116 37.188289 61.713567 0
M  V30 17 C 39.869249 33.602114 61.842596 0
M  V30 18 O 38.469074 29.026543 57.116610 0
M  V30 19 C 38.893246 33.466388 59.512772 0
M  V30 20 N 37.503881 32.822155 57.608362 0
M  V30 21 C 38.085372 36.015856 62.313306 0
M  V30 22 P 39.145550 28.552421 55.845635 0
M  V30 23 C 41.179070 30.678298 50.269845 0
M  V30 24 C 39.865423 28.545152 50.442830 0
M  V30 25 C 38.309953 32.581795 56.574785 0
M  V30 26 N 37.885703 31.564394 55.832251 0
M  V30 27 C 41.843687 33.611562 63.252885 0
M  V30 28 O 38.250701 31.808723 62.055003 0 CHG=-1
M  V30 29 F 42.178185 31.823026 64.810186 0
M  V30 30 C 41.065874 34.213387 62.243450 0
M  V30 31 C 38.988930 29.191365 53.039562 0
M  V30 32 C 37.728404 33.865912 58.567545 0 CFG=1
M  V30 33 C 38.454121 29.582867 54.436580 0 CFG=2
M  V30 34 C 40.281570 29.737679 51.034874 0
M  V30 35 H 35.643640 34.401714 58.644500 0
M  V30 36 H 36.127451 33.261449 59.891895 0
M  V30 37 H 37.141058 36.160458 59.668050 0
M  V30 38 H 35.867420 35.620772 60.715626 0
M  V30 39 H 38.701329 26.742704 50.664355 0
M  V30 40 H 39.899300 30.864197 63.890880 0
M  V30 41 H 40.184594 30.991127 52.771126 0
M  V30 42 H 37.598916 26.191237 52.719897 0
M  V30 43 H 37.772926 27.138081 54.133300 0
M  V30 44 H 38.237408 31.663021 53.834848 0
M  V30 45 H 39.681128 31.325834 54.789190 0
M  V30 46 H 37.254051 34.089575 61.863559 0
M  V30 47 H 39.128197 37.913307 62.483303 0
M  V30 48 H 39.799036 36.837996 61.274783 0
M  V30 49 H 38.287784 37.706543 60.947851 0
M  V30 50 H 39.837361 33.552477 58.975908 0
M  V30 51 H 38.798460 32.406755 59.742881 0
M  V30 52 H 36.667404 32.254210 57.708413 0
M  V30 53 H 37.157268 36.386233 62.749068 0
M  V30 54 H 38.664005 35.623088 63.147868 0
M  V30 55 H 41.732410 30.156502 49.488742 0
M  V30 56 H 40.578153 31.455940 49.798288 0
M  V30 57 H 41.891900 31.142850 50.943383 0
M  V30 58 H 40.193738 28.312411 49.454006 0
M  V30 59 H 37.030378 31.083519 56.090838 0
M  V30 60 H 42.760146 34.075306 63.575294 0
M  V30 61 H 41.385554 35.139386 61.789988 0
M  V30 62 H 37.867397 34.769450 57.982548 0
M  V30 63 H 37.380247 29.400694 54.406962 0
M  V30 64 H 39.528669 35.094237 60.439921 0
M  V30 END ATOM
M  V30 BEGIN BOND
M  V30 1 1 2 1
M  V30 2 2 8 3
M  V30 3 1 12 8
M  V30 4 1 14 7
M  V30 5 1 14 11
M  V30 6 1 15 2
M  V30 7 1 15 4
M  V30 8 1 17 4
M  V30 9 2 17 12
M  V30 10 1 19 4
M  V30 11 1 21 15
M  V30 12 1 21 16
M  V30 13 1 22 5
M  V30 14 1 22 10
M  V30 15 2 22 18
M  V30 16 2 24 7
M  V30 17 2 25 6
M  V30 18 1 25 20
M  V30 19 1 26 13
M  V30 20 1 26 25
M  V30 21 1 27 3
M  V30 22 1 28 12
M  V30 23 1 29 3
M  V30 24 1 30 17
M  V30 25 2 30 27
M  V30 26 1 31 9
M  V30 27 2 31 14
M  V30 28 1 32 1
M  V30 29 1 32 19
M  V30 30 1 32 20
M  V30 31 1 33 13
M  V30 32 1 33 22
M  V30 33 1 33 31
M  V30 34 2 34 9
M  V30 35 1 34 23
M  V30 36 1 34 24
M  V30 37 1 35 1
M  V30 38 1 36 1
M  V30 39 1 37 2
M  V30 40 1 38 2
M  V30 41 1 39 7
M  V30 42 1 40 8
M  V30 43 1 41 9
M  V30 44 1 42 11
M  V30 45 1 43 11
M  V30 46 1 44 13
M  V30 47 1 45 13
M  V30 48 1 15 46 CFG=1
M  V30 49 1 47 16
M  V30 50 1 48 16
M  V30 51 1 49 16
M  V30 52 1 50 19
M  V30 53 1 51 19
M  V30 54 1 52 20
M  V30 55 1 53 21
M  V30 56 1 54 21
M  V30 57 1 55 23
M  V30 58 1 56 23
M  V30 59 1 57 23
M  V30 60 1 58 24
M  V30 61 1 59 26
M  V30 62 1 60 27
M  V30 63 1 61 30
M  V30 64 1 32 62 CFG=3
M  V30 65 1 33 63 CFG=3
M  V30 66 1 4 64 CFG=3
M  V30 END BOND
M  V30 END CTAB
M  END
>  <i_epik_Tot_Q>  (1) 
-2

>  <i_epik_Tot_abs_Q>  (1) 
4

>  <i_i_glide_confnum>  (1) 
103

>  <i_i_glide_lignum>  (1) 
34

>  <i_i_glide_posenum>  (1) 
156

>  <i_i_glide_rotatable_bonds>  (1) 
9

>  <i_lp_mmshare_version>  (1) 
72125

>  <i_m_source_file_index>  (1) 
11

>  <i_f3d_flags>  (1) 
0

>  <num_sample>  (1) 
50

>  <b_lp_Chiralities_Consistent>  (1) 
1

>  <r_epik_Charging_Adjusted_Penalty>  (1) 
1.3613781813755943

>  <r_epik_Ionization_Penalty>  (1) 
0.45221775539962494

>  <r_epik_Ionization_Penalty_Charging>  (1) 
0.45010221832775887

>  <r_epik_Ionization_Penalty_Neutral>  (1) 
0.0021155370718660637

>  <r_epik_State_Penalty>  (1) 
0.91127596304783554

>  <r_glide_ring_energy>  (1) 
0

>  <r_i_docking_score>  (1) 
-6.5419141905089138

>  <r_i_glide_ecoul>  (1) 
-6.2301748223441855

>  <r_i_glide_eff_state_penalty>  (1) 
0.91127596304783554

>  <r_i_glide_einternal>  (1) 
16.217061322021152

>  <r_i_glide_emodel>  (1) 
-48.735062239637415

>  <r_i_glide_emodel_strain>  (1) 
4.2747941665973883

>  <r_i_glide_energy>  (1) 
-39.856003762314657

>  <r_i_glide_erotb>  (1) 
0.58773720055558498

>  <r_i_glide_esite>  (1) 
-0.26866385978765983

>  <r_i_glide_evdw>  (1) 
-33.625828939970468

>  <r_i_glide_gscore>  (1) 
-7.4531901535567489

>  <r_i_glide_gscore_strain>  (1) 
0.068698541649347078

>  <r_i_glide_hbond>  (1) 
-0.22833646012684075

>  <r_i_glide_ligand_efficiency>  (1) 
-0.192409240897321

>  <r_i_glide_ligand_efficiency_ln>  (1) 
-1.4452923391610908

>  <r_i_glide_ligand_efficiency_sa>  (1) 
-0.62333124748580337

>  <r_i_glide_lipo>  (1) 
-4.2134862135789906

>  <r_i_glide_metal>  (1) 
-0

>  <r_i_glide_rewards>  (1) 
-0.78332169191803902

>  <r_lp_Energy>  (1) 
32.038921000000002

>  <s_epik_cmdline>  (1) 
J2VwaWtfcHl0aG9uJywgJy1waHQnLCAnMS4wJywgJy1waCcsICc3LjQnLCAnLXRuJywgJzgnLCAnLW1hJywgJzUwMCcsICctaW1hZScsICc8aW5maWxlLm1hZT4nLCAnLW9tYWUnLCAnPG91dGZpbGUubWFlPic=

>  <s_epik_input>  (1) 
RmMxW2NIXWMoW09IXSljKFtjSF1bY0hdMSlOMltDQEBIXShbQ0gyXVtDSDNdKVtDSDJdW0NIMl1bQ0BASF0oW0NIMl0yKVtOSF1DKD1PKVtOSF1bQ0gyXVtDQEhdKFAoPU8pKFtPSF0pW09IXSljM1tjSF1jKFtDSDNdKVtjSF1bY0hdYzNbTkgyXQ==

>  <s_glide_docking_method>  (1) 
confgen

>  <s_i_glide_gridfile>  (1) 
gpcr_5ht2c_6bqh_protein_autoprepared_prepared

>  <s_lp_Force_Field>  (1) 
S-OPLS

>  <s_lp_Variant>  (1) 
DiffSBDD_10_num_sample_50-3

>  <s_m_source_file>  (1) 
generated__ligand_DiffSBDD_2026-05-06_prepared.sdf

>  <GenAI_Model>  (1) 
DiffSBDD

>  <Protein>  (1) 
GPCR_5HT2C

$$$$
DiffSBDD_32_num_sample_50
     RDKit          3D

  0  0  0  0  0  0  0  0  0  0999 V3000
M  V30 BEGIN CTAB
M  V30 COUNTS 51 54 0 0 1
M  V30 BEGIN ATOM
M  V30 1 C 39.479952 34.353561 61.421338 0
M  V30 2 O 38.528818 26.859105 54.460329 0
M  V30 3 C 38.488858 30.967555 57.134166 0
M  V30 4 C 38.835668 29.664196 55.292248 0
M  V30 5 C 39.713477 29.621489 51.556201 0
M  V30 6 C 39.467442 37.221434 64.464145 0
M  V30 7 N 38.523958 36.361701 62.394154 0
M  V30 8 C 39.173881 27.355965 52.217885 0
M  V30 9 C 38.472970 31.059306 55.746687 0
M  V30 10 C 39.471580 36.201412 63.349252 0
M  V30 11 C 39.067409 29.163108 53.890483 0
M  V30 12 C 39.055410 28.969988 60.051555 0
M  V30 13 C 39.467403 30.067863 52.869556 0
M  V30 14 N 38.267412 31.993458 57.891550 0
M  V30 15 N 40.430226 34.201360 62.371373 0
M  V30 16 N 38.759061 29.844991 57.687759 0
M  V30 17 C 38.540998 35.417536 61.430302 0
M  V30 18 C 39.564087 28.269956 51.234779 0
M  V30 19 C 38.195870 32.186861 54.778846 0
M  V30 20 C 38.922802 27.781438 53.536916 0
M  V30 21 C 40.417081 35.144341 63.340727 0
M  V30 22 F 41.331705 35.064709 64.336543 0
M  V30 23 C 38.387782 32.232123 60.405476 0
M  V30 24 C 40.145408 30.609556 50.490022 0
M  V30 25 C 38.762434 30.037251 59.047418 0
M  V30 26 C 38.468706 31.396075 59.165911 0
M  V30 27 C 39.476705 33.318336 60.312912 0
M  V30 28 S 39.058137 28.507324 56.766600 0
M  V30 29 N 37.584481 35.528236 60.422233 0
M  V30 30 H 38.266891 27.247517 55.279997 0
M  V30 31 H 39.867404 38.164149 64.096131 0
M  V30 32 H 38.450776 37.385240 64.819824 0
M  V30 33 H 40.068068 36.896714 65.314084 0
M  V30 34 H 39.067402 26.320387 51.962030 0
M  V30 35 H 39.015599 29.355908 61.069548 0
M  V30 36 H 38.333617 28.157389 59.971748 0
M  V30 37 H 40.050065 28.552562 59.892491 0
M  V30 38 H 39.605972 31.108352 53.097980 0
M  V30 39 H 39.753208 27.928948 50.228888 0
M  V30 40 H 37.500703 32.885449 55.244584 0
M  V30 41 H 39.110244 32.733231 54.574737 0
M  V30 42 H 37.726490 31.844107 53.858960 0
M  V30 43 H 37.399037 32.684907 60.481304 0
M  V30 44 H 38.529662 31.634548 61.305410 0
M  V30 45 H 39.627107 31.561554 50.611001 0
M  V30 46 H 41.218231 30.794278 50.555262 0
M  V30 47 H 39.920897 30.232050 49.491864 0
M  V30 48 H 40.446045 32.821424 60.302532 0
M  V30 49 H 39.414974 33.852650 59.364442 0
M  V30 50 H 37.533340 34.861225 59.664093 0
M  V30 51 H 36.912022 36.280647 60.415884 0
M  V30 END ATOM
M  V30 BEGIN BOND
M  V30 1 1 9 3
M  V30 2 2 9 4
M  V30 3 1 10 6
M  V30 4 2 10 7
M  V30 5 1 11 4
M  V30 6 2 13 5
M  V30 7 1 13 11
M  V30 8 2 14 3
M  V30 9 1 15 1
M  V30 10 1 16 3
M  V30 11 2 17 1
M  V30 12 1 17 7
M  V30 13 1 18 5
M  V30 14 2 18 8
M  V30 15 1 19 9
M  V30 16 1 20 2
M  V30 17 1 20 8
M  V30 18 2 20 11
M  V30 19 1 21 10
M  V30 20 2 21 15
M  V30 21 1 22 21
M  V30 22 1 24 5
M  V30 23 1 25 12
M  V30 24 1 25 16
M  V30 25 1 26 14
M  V30 26 1 26 23
M  V30 27 2 26 25
M  V30 28 1 27 1
M  V30 29 1 27 23
M  V30 30 1 28 4
M  V30 31 1 28 16
M  V30 32 1 29 17
M  V30 33 1 30 2
M  V30 34 1 31 6
M  V30 35 1 32 6
M  V30 36 1 33 6
M  V30 37 1 34 8
M  V30 38 1 35 12
M  V30 39 1 36 12
M  V30 40 1 37 12
M  V30 41 1 38 13
M  V30 42 1 39 18
M  V30 43 1 40 19
M  V30 44 1 41 19
M  V30 45 1 42 19
M  V30 46 1 43 23
M  V30 47 1 44 23
M  V30 48 1 45 24
M  V30 49 1 46 24
M  V30 50 1 47 24
M  V30 51 1 48 27
M  V30 52 1 49 27
M  V30 53 1 50 29
M  V30 54 1 51 29
M  V30 END BOND
M  V30 END CTAB
M  END
>  <i_epik_Tot_Q>  (1) 
0

>  <i_epik_Tot_abs_Q>  (1) 
0

>  <i_i_glide_confnum>  (1) 
44

>  <i_i_glide_lignum>  (1) 
84

>  <i_i_glide_posenum>  (1) 
101

>  <i_i_glide_rotatable_bonds>  (1) 
5

>  <i_lp_mmshare_version>  (1) 
72125

>  <i_m_source_file_index>  (1) 
33

>  <i_f3d_flags>  (1) 
0

>  <num_sample>  (1) 
50

>  <b_lp_Chiralities_Consistent>  (1) 
1

>  <r_epik_Charging_Adjusted_Penalty>  (1) 
0.42689867469521958

>  <r_epik_Ionization_Penalty>  (1) 
0.21540292489436846

>  <r_epik_Ionization_Penalty_Charging>  (1) 
0.21344933734761001

>  <r_epik_Ionization_Penalty_Neutral>  (1) 
0.0019535875467584477

>  <r_epik_State_Penalty>  (1) 
0.2134493373476096

>  <r_glide_ring_energy>  (1) 
0

>  <r_i_docking_score>  (1) 
-6.5407811790317654

>  <r_i_glide_ecoul>  (1) 
-0.36405839636698162

>  <r_i_glide_eff_state_penalty>  (1) 
0.2134493373476096

>  <r_i_glide_einternal>  (1) 
0.85423245129084613

>  <r_i_glide_emodel>  (1) 
-65.981763457482373

>  <r_i_glide_emodel_strain>  (1) 
0.1261876470109371

>  <r_i_glide_energy>  (1) 
-46.814216121890041

>  <r_i_glide_erotb>  (1) 
0.46558767566886761

>  <r_i_glide_esite>  (1) 
-0.088467170812058904

>  <r_i_glide_evdw>  (1) 
-46.450157725523063

>  <r_i_glide_gscore>  (1) 
-6.7542305163793745

>  <r_i_glide_gscore_strain>  (1) 
0

>  <r_i_glide_hbond>  (1) 
0

>  <r_i_glide_ligand_efficiency>  (1) 
-0.22554417858730225

>  <r_i_glide_ligand_efficiency_ln>  (1) 
-1.4976730300983576

>  <r_i_glide_ligand_efficiency_sa>  (1) 
-0.69294317480926237

>  <r_i_glide_lipo>  (1) 
-3.3352261785534734

>  <r_i_glide_metal>  (1) 
-0

>  <r_i_glide_rewards>  (1) 
-1.4190081969515091

>  <r_lp_Energy>  (1) 
28.239087999999999

>  <r_lp_tautomer_probability>  (1) 
0.99999990127737282

>  <s_epik_cmdline>  (1) 
J2VwaWtfcHl0aG9uJywgJy1waHQnLCAnMS4wJywgJy1waCcsICc3LjQnLCAnLXRuJywgJzgnLCAnLW1hJywgJzUwMCcsICctaW1hZScsICc8aW5maWxlLm1hZT4nLCAnLW9tYWUnLCAnPG91dGZpbGUubWFlPic=

>  <s_epik_input>  (1) 
W05IMl1jMW5jKFtDSDNdKWMoRiluYzFbQ0gyXVtDSDJdYyhuMiljKFtDSDNdKW4oYzIzKXNjKGMzW0NIM10pLWMoW2NIXWM0W0NIM10pYyhbT0hdKVtjSF1bY0hdNA==

>  <s_glide_docking_method>  (1) 
confgen

>  <s_i_glide_gridfile>  (1) 
gpcr_5ht2c_6bqh_protein_autoprepared_prepared

>  <s_lp_Force_Field>  (1) 
S-OPLS

>  <s_lp_Variant>  (1) 
DiffSBDD_32_num_sample_50-1

>  <s_m_source_file>  (1) 
generated__ligand_DiffSBDD_2026-05-06_prepared.sdf

>  <GenAI_Model>  (1) 
DiffSBDD

>  <Protein>  (1) 
GPCR_5HT2C

$$$$
DiffSBDD_15_num_sample_50
     RDKit          3D

  0  0  0  0  0  0  0  0  0  0999 V3000
M  V30 BEGIN CTAB
M  V30 COUNTS 46 47 0 0 1
M  V30 BEGIN ATOM
M  V30 1 S 40.221237 28.423032 56.231230 0
M  V30 2 C 39.318758 27.903716 51.491395 0
M  V30 3 C 40.071753 30.128410 50.803721 0
M  V30 4 C 39.792347 28.778191 50.484857 0
M  V30 5 C 37.952092 30.390984 57.953459 0
M  V30 6 C 38.948910 25.863347 58.029824 0
M  V30 7 C 39.389509 29.696983 53.081160 0
M  V30 8 C 37.838973 31.752590 58.657190 0
M  V30 9 O 39.169155 25.203964 56.801535 0
M  V30 10 C 38.849268 28.749929 55.080617 0 CFG=1
M  V30 11 C 37.281314 27.027458 53.844887 0
M  V30 12 N 39.318880 28.284748 57.685930 0
M  V30 13 C 38.307782 27.240635 57.795632 0
M  V30 14 O 36.140889 30.821422 60.543076 0
M  V30 15 N 39.160185 30.020273 54.379373 0
M  V30 16 C 39.134521 28.409659 52.788745 0
M  V30 17 C 36.943310 33.364543 60.823708 0
M  V30 18 C 38.699020 27.584951 53.957320 0 CFG=1
M  V30 19 C 39.867415 30.593011 52.119336 0
M  V30 20 F 40.531819 30.966449 49.853501 0
M  V30 21 C 39.059716 29.469046 58.507676 0
M  V30 22 O 38.552911 31.247321 61.208417 0
M  V30 23 S 37.365191 31.624675 60.429048 0
M  V30 24 H 39.114817 26.866181 51.268960 0
M  V30 25 H 39.945692 28.421577 49.480905 0
M  V30 26 H 38.143413 30.611471 56.906527 0
M  V30 27 H 36.987092 29.883458 57.986259 0
M  V30 28 H 38.267022 25.242994 58.611868 0
M  V30 29 H 39.874742 25.935019 58.601928 0
M  V30 30 H 38.771346 32.309893 58.587405 0
M  V30 31 H 37.067453 32.344638 58.162893 0
M  V30 32 H 39.844145 25.673883 56.334549 0
M  V30 33 H 37.908441 28.875369 55.613173 0
M  V30 34 H 37.208864 26.284997 53.053305 0
M  V30 35 H 36.997477 26.536828 54.775081 0
M  V30 36 H 36.561681 27.818180 53.638236 0
M  V30 37 H 37.618562 27.228515 56.953090 0
M  V30 38 H 37.698425 27.478152 58.653498 0
M  V30 39 H 39.747380 30.707634 54.829390 0
M  V30 40 H 36.626417 33.427633 61.862330 0
M  V30 41 H 37.814936 33.998077 60.664990 0
M  V30 42 H 36.126538 33.691626 60.179853 0
M  V30 43 H 39.413446 26.777672 54.123812 0
M  V30 44 H 40.074473 31.620714 52.377168 0
M  V30 45 H 38.814290 29.156046 59.523346 0
M  V30 46 H 39.993809 30.021115 58.585394 0
M  V30 END ATOM
M  V30 BEGIN BOND
M  V30 1 2 4 2
M  V30 2 1 4 3
M  V30 3 1 8 5
M  V30 4 1 9 6
M  V30 5 1 10 1
M  V30 6 1 12 1
M  V30 7 1 13 6
M  V30 8 1 13 12
M  V30 9 1 15 7
M  V30 10 1 15 10
M  V30 11 1 16 2
M  V30 12 2 16 7
M  V30 13 1 18 10
M  V30 14 1 18 11
M  V30 15 1 18 16
M  V30 16 2 19 3
M  V30 17 1 19 7
M  V30 18 1 20 3
M  V30 19 1 21 5
M  V30 20 1 21 12
M  V30 21 1 23 8
M  V30 22 2 23 14
M  V30 23 1 23 17
M  V30 24 2 23 22
M  V30 25 1 24 2
M  V30 26 1 25 4
M  V30 27 1 26 5
M  V30 28 1 27 5
M  V30 29 1 28 6
M  V30 30 1 29 6
M  V30 31 1 30 8
M  V30 32 1 31 8
M  V30 33 1 32 9
M  V30 34 1 10 33 CFG=1
M  V30 35 1 34 11
M  V30 36 1 35 11
M  V30 37 1 36 11
M  V30 38 1 37 13
M  V30 39 1 38 13
M  V30 40 1 39 15
M  V30 41 1 40 17
M  V30 42 1 41 17
M  V30 43 1 42 17
M  V30 44 1 18 43 CFG=1
M  V30 45 1 44 19
M  V30 46 1 45 21
M  V30 47 1 46 21
M  V30 END BOND
M  V30 END CTAB
M  END
>  <i_epik_Tot_Q>  (1) 
0

>  <i_epik_Tot_abs_Q>  (1) 
0

>  <i_i_glide_confnum>  (1) 
252

>  <i_i_glide_lignum>  (1) 
45

>  <i_i_glide_posenum>  (1) 
225

>  <i_i_glide_rotatable_bonds>  (1) 
9

>  <i_lp_mmshare_version>  (1) 
72125

>  <i_m_source_file_index>  (1) 
16

>  <i_f3d_flags>  (1) 
0

>  <num_sample>  (1) 
50

>  <b_lp_Chiralities_Consistent>  (1) 
1

>  <r_epik_Charging_Adjusted_Penalty>  (1) 
0

>  <r_epik_Ionization_Penalty>  (1) 
0.0018364177228642131

>  <r_epik_Ionization_Penalty_Charging>  (1) 
0

>  <r_epik_Ionization_Penalty_Neutral>  (1) 
0.0018364177228642131

>  <r_epik_State_Penalty>  (1) 
-0

>  <r_glide_ring_energy>  (1) 
0

>  <r_i_docking_score>  (1) 
-6.5387725944485355

>  <r_i_glide_ecoul>  (1) 
-2.6235901477987609

>  <r_i_glide_eff_state_penalty>  (1) 
-0

>  <r_i_glide_einternal>  (1) 
3.1046478424541823

>  <r_i_glide_emodel>  (1) 
-55.286123162917484

>  <r_i_glide_emodel_strain>  (1) 
0.26526480424578125

>  <r_i_glide_energy>  (1) 
-39.379030731838732

>  <r_i_glide_erotb>  (1) 
1.0229839614613039

>  <r_i_glide_esite>  (1) 
-0.083267786906144697

>  <r_i_glide_evdw>  (1) 
-36.755440584039974

>  <r_i_glide_gscore>  (1) 
-6.5387725944485355

>  <r_i_glide_gscore_strain>  (1) 
0

>  <r_i_glide_hbond>  (1) 
0

>  <r_i_glide_ligand_efficiency>  (1) 
-0.28429446062819719

>  <r_i_glide_ligand_efficiency_ln>  (1) 
-1.5811345036495053

>  <r_i_glide_ligand_efficiency_sa>  (1) 
-0.80849562913524098

>  <r_i_glide_lipo>  (1) 
-3.2121433492757894

>  <r_i_glide_metal>  (1) 
-0

>  <r_i_glide_rewards>  (1) 
-2.035034868356091

>  <r_lp_Energy>  (1) 
-13.942229999999999

>  <r_lp_tautomer_probability>  (1) 
1

>  <s_epik_Chemistry_Notes>  (1) 
This compound contains an acetal/aminal-like group ( X-CH(R)-Y where X, Y are N, S, or O) that may be acid/base labile, releasing an aldehyde. This compound has a N-S or N-O group and may undergo hydrolysis at high or low pH.

>  <s_epik_cmdline>  (1) 
J2VwaWtfcHl0aG9uJywgJy1waHQnLCAnMS4wJywgJy1waCcsICc3LjQnLCAnLXRuJywgJzgnLCAnLW1hJywgJzUwMCcsICctaW1hZScsICc8aW5maWxlLm1hZT4nLCAnLW9tYWUnLCAnPG91dGZpbGUubWFlPic=

>  <s_epik_input>  (1) 
Tz1TKD1PKShbQ0gzXSlbQ0gyXVtDSDJdW0NIMl1OKFtDSDJdW0NIMl1bT0hdKVNbQ0BASF0oW05IXTEpW0NAQEhdKFtDSDNdKWMoYzEyKVtjSF1bY0hdYyhGKVtjSF0y

>  <s_glide_docking_method>  (1) 
confgen

>  <s_i_glide_gridfile>  (1) 
gpcr_5ht2c_6bqh_protein_autoprepared_prepared

>  <s_lp_Force_Field>  (1) 
S-OPLS

>  <s_lp_Variant>  (1) 
DiffSBDD_15_num_sample_50-1

>  <s_m_source_file>  (1) 
generated__ligand_DiffSBDD_2026-05-06_prepared.sdf

>  <GenAI_Model>  (1) 
DiffSBDD

>  <Protein>  (1) 
GPCR_5HT2C

$$$$
DiffSBDD_20_num_sample_50
     RDKit          3D

  0  0  0  0  0  0  0  0  0  0999 V3000
M  V30 BEGIN CTAB
M  V30 COUNTS 77 81 0 0 1
M  V30 BEGIN ATOM
M  V30 1 C 37.209156 36.264199 61.752021 0
M  V30 2 C 38.719569 36.821419 63.581028 0
M  V30 3 C 37.401433 32.933133 60.388882 0 CFG=2
M  V30 4 C 37.824081 29.981791 53.994656 0
M  V30 5 C 39.624389 35.835233 63.150734 0
M  V30 6 C 37.455544 29.600404 58.413207 0
M  V30 7 C 41.445972 33.850911 62.321353 0
M  V30 8 C 38.531845 29.894950 57.345155 0 CFG=1
M  V30 9 C 38.683274 27.412016 56.602035 0
M  V30 10 C 38.545989 28.902474 56.127450 0 CFG=2
M  V30 11 C 38.405564 31.381182 56.944842 0
M  V30 12 F 41.067396 28.821534 51.308534 0
M  V30 13 C 38.453039 32.343241 58.140280 0
M  V30 14 C 40.816598 35.621426 63.869866 0
M  V30 15 O 38.785352 30.418161 60.244575 0
M  V30 16 C 39.775009 29.203779 55.239351 0
M  V30 17 C 36.692074 35.086228 59.133894 0
M  V30 18 C 37.519330 30.560403 59.607251 0 CFG=1
M  V30 19 C 37.753040 34.425883 60.053408 0 CFG=1
M  V30 20 C 40.262461 34.061882 61.589411 0
M  V30 21 C 38.543184 24.307800 57.201179 0
M  V30 22 F 39.074337 29.215053 50.656940 0
M  V30 23 C 37.733206 25.407213 57.888405 0
M  V30 24 O 39.467417 28.790436 52.869083 0
M  V30 25 C 37.517872 37.034387 62.884066 0
M  V30 26 C 38.105901 35.267004 61.297908 0
M  V30 27 C 37.421807 26.612606 56.990159 0
M  V30 28 C 40.185254 30.861470 51.917718 0
M  V30 29 C 40.077801 31.004410 53.421898 0
M  V30 30 C 39.927100 29.376868 51.661013 0
M  V30 31 N 37.462893 32.002720 59.210852 0 CFG=1 CHG=1
M  V30 32 C 39.313833 29.769586 53.886082 0 CFG=1
M  V30 33 C 41.720616 34.628604 63.459873 0
M  V30 34 C 37.367879 29.126623 55.156310 0
M  V30 35 O 36.159321 32.850105 60.798469 0 CHG=-1
M  V30 36 C 39.332997 35.051831 62.006129 0
M  V30 37 H 36.281430 36.439254 61.233108 0
M  V30 38 H 38.945685 37.415995 64.454207 0
M  V30 39 H 38.174172 32.607558 61.074337 0
M  V30 40 H 37.360721 29.621430 53.082720 0
M  V30 41 H 37.553493 31.026770 54.151407 0
M  V30 42 H 37.601227 28.604004 58.819138 0
M  V30 43 H 36.458605 29.632930 57.972041 0
M  V30 44 H 42.146328 33.091533 62.006436 0
M  V30 45 H 39.499029 29.782232 57.837802 0
M  V30 46 H 39.128922 26.805813 55.813695 0
M  V30 47 H 39.403026 27.381630 57.421195 0
M  V30 48 H 39.192466 31.666371 56.248268 0
M  V30 49 H 37.467484 31.547738 56.419354 0
M  V30 50 H 39.456994 32.415471 58.555737 0
M  V30 51 H 38.241216 33.320007 57.712786 0
M  V30 52 H 41.034341 36.218792 64.744142 0
M  V30 53 H 38.652550 29.997908 61.081848 0
M  V30 54 H 40.475736 29.868533 55.735424 0
M  V30 55 H 40.336299 28.295711 55.053988 0
M  V30 56 H 37.011290 36.073603 58.799708 0
M  V30 57 H 36.495947 34.480141 58.253567 0
M  V30 58 H 35.723373 35.183788 59.622231 0
M  V30 59 H 36.721646 30.332535 60.316066 0
M  V30 60 H 38.676210 34.456680 59.484621 0
M  V30 61 H 40.070826 33.460832 60.718618 0
M  V30 62 H 38.614733 23.436377 57.853299 0
M  V30 63 H 38.071020 24.003242 56.267890 0
M  V30 64 H 39.558055 24.634646 56.974180 0
M  V30 65 H 38.267226 25.738652 58.781002 0
M  V30 66 H 36.793615 24.973515 58.233239 0
M  V30 67 H 36.826617 37.792556 63.221530 0
M  V30 68 H 36.690330 27.227037 57.503612 0
M  V30 69 H 36.914804 26.266668 56.088821 0
M  V30 70 H 41.147766 31.194233 51.533726 0
M  V30 71 H 39.467402 31.494275 51.409702 0
M  V30 72 H 39.575640 31.925874 53.721506 0
M  V30 73 H 41.067445 31.019636 53.867876 0
M  V30 74 H 42.631547 34.466513 64.018208 0
M  V30 75 H 37.067302 28.170102 54.730853 0
M  V30 76 H 36.510377 29.621446 55.619792 0
M  V30 77 H 36.556031 32.119208 58.773133 0
M  V30 END ATOM
M  V30 BEGIN BOND
M  V30 1 1 5 2
M  V30 2 1 8 6
M  V30 3 1 10 8
M  V30 4 1 10 9 CFG=1
M  V30 5 1 11 8
M  V30 6 1 13 11
M  V30 7 2 14 5
M  V30 8 1 16 10
M  V30 9 1 18 6
M  V30 10 1 18 15
M  V30 11 1 19 3
M  V30 12 1 19 17
M  V30 13 1 20 7
M  V30 14 1 23 21
M  V30 15 1 25 1
M  V30 16 2 25 2
M  V30 17 2 26 1
M  V30 18 1 26 19
M  V30 19 1 27 9
M  V30 20 1 27 23
M  V30 21 1 29 28
M  V30 22 1 30 12
M  V30 23 1 30 22
M  V30 24 1 30 24
M  V30 25 1 30 28
M  V30 26 1 31 3
M  V30 27 1 31 13
M  V30 28 1 31 18
M  V30 29 1 32 4
M  V30 30 1 32 16
M  V30 31 1 32 24 CFG=3
M  V30 32 1 32 29
M  V30 33 2 33 7
M  V30 34 1 33 14
M  V30 35 1 34 4
M  V30 36 1 34 10
M  V30 37 1 35 3
M  V30 38 1 36 5
M  V30 39 2 36 20
M  V30 40 1 36 26
M  V30 41 1 37 1
M  V30 42 1 38 2
M  V30 43 1 3 39 CFG=1
M  V30 44 1 40 4
M  V30 45 1 41 4
M  V30 46 1 42 6
M  V30 47 1 43 6
M  V30 48 1 44 7
M  V30 49 1 8 45 CFG=1
M  V30 50 1 46 9
M  V30 51 1 47 9
M  V30 52 1 48 11
M  V30 53 1 49 11
M  V30 54 1 50 13
M  V30 55 1 51 13
M  V30 56 1 52 14
M  V30 57 1 53 15
M  V30 58 1 54 16
M  V30 59 1 55 16
M  V30 60 1 56 17
M  V30 61 1 57 17
M  V30 62 1 58 17
M  V30 63 1 18 59 CFG=1
M  V30 64 1 19 60 CFG=3
M  V30 65 1 61 20
M  V30 66 1 62 21
M  V30 67 1 63 21
M  V30 68 1 64 21
M  V30 69 1 65 23
M  V30 70 1 66 23
M  V30 71 1 67 25
M  V30 72 1 68 27
M  V30 73 1 69 27
M  V30 74 1 70 28
M  V30 75 1 71 28
M  V30 76 1 72 29
M  V30 77 1 73 29
M  V30 78 1 74 33
M  V30 79 1 75 34
M  V30 80 1 76 34
M  V30 81 1 31 77 CFG=3
M  V30 END BOND
M  V30 END CTAB
M  END
>  <i_epik_Tot_Q>  (1) 
0

>  <i_epik_Tot_abs_Q>  (1) 
2

>  <i_i_glide_confnum>  (1) 
53

>  <i_i_glide_lignum>  (1) 
58

>  <i_i_glide_posenum>  (1) 
83

>  <i_i_glide_rotatable_bonds>  (1) 
8

>  <i_lp_mmshare_version>  (1) 
72125

>  <i_m_source_file_index>  (1) 
21

>  <i_f3d_flags>  (1) 
0

>  <num_sample>  (1) 
50

>  <b_lp_Chiralities_Consistent>  (1) 
1

>  <r_epik_Charging_Adjusted_Penalty>  (1) 
0.70686764658740575

>  <r_epik_Ionization_Penalty>  (1) 
0.13730248461042968

>  <r_epik_Ionization_Penalty_Charging>  (1) 
0.016711854413244867

>  <r_epik_Ionization_Penalty_Neutral>  (1) 
0.12059063019718481

>  <r_epik_State_Penalty>  (1) 
0.6901557921741609

>  <r_glide_ring_energy>  (1) 
0

>  <r_i_docking_score>  (1) 
-6.5337374567308357

>  <r_i_glide_ecoul>  (1) 
-2.1995932326125565

>  <r_i_glide_eff_state_penalty>  (1) 
0.6901557921741609

>  <r_i_glide_einternal>  (1) 
6.4492478118335086

>  <r_i_glide_emodel>  (1) 
-46.497635816460772

>  <r_i_glide_emodel_strain>  (1) 
2.6848912423406688

>  <r_i_glide_energy>  (1) 
-36.115505839758839

>  <r_i_glide_erotb>  (1) 
0.48702584280874928

>  <r_i_glide_esite>  (1) 
-0.11280829875770033

>  <r_i_glide_evdw>  (1) 
-33.915912607146282

>  <r_i_glide_gscore>  (1) 
-7.2238932489049965

>  <r_i_glide_gscore_strain>  (1) 
0

>  <r_i_glide_hbond>  (1) 
-0.094270652774146799

>  <r_i_glide_ligand_efficiency>  (1) 
-0.18149270713141211

>  <r_i_glide_ligand_efficiency_ln>  (1) 
-1.4254849918721244

>  <r_i_glide_ligand_efficiency_sa>  (1) 
-0.59927571515286193

>  <r_i_glide_lipo>  (1) 
-4.2169674800479688

>  <r_i_glide_metal>  (1) 
-0

>  <r_i_glide_rewards>  (1) 
-1.2611380448847316

>  <r_lp_Energy>  (1) 
64.332168999999993

>  <s_epik_Chemistry_Notes>  (1) 
This compound contains an acetal/aminal-like group ( X-CH(R)-Y where X, Y are N, S, or O) that may be acid/base labile, releasing an aldehyde.

>  <s_epik_cmdline>  (1) 
J2VwaWtfcHl0aG9uJywgJy1waHQnLCAnMS4wJywgJy1waCcsICc3LjQnLCAnLXRuJywgJzgnLCAnLW1hJywgJzUwMCcsICctaW1hZScsICc8aW5maWxlLm1hZT4nLCAnLW9tYWUnLCAnPG91dGZpbGUubWFlPic=

>  <s_epik_input>  (1) 
W2NIXTFbY0hdW2NIXVtjSF1jKGMxMiljKFtjSF1bY0hdW2NIXTIpW0NASF0oW0NIM10pW0NAQEhdKFtPSF0pTihbQ0gyXVtDSDJdMylbQ0BIXShbT0hdKVtDSDJdW0NASF0zW0NAQF0oW0NIMl00KShbQ0gyXVtDSDJdW0NIMl1bQ0gzXSlbQ0gyXVtDSDJdW0NAXTQ1T0MoRikoRilbQ0gyXVtDSDJdNQ==

>  <s_glide_docking_method>  (1) 
confgen

>  <s_i_glide_gridfile>  (1) 
gpcr_5ht2c_6bqh_protein_autoprepared_prepared

>  <s_lp_Force_Field>  (1) 
S-OPLS

>  <s_lp_Variant>  (1) 
DiffSBDD_20_num_sample_50-3

>  <s_m_source_file>  (1) 
generated__ligand_DiffSBDD_2026-05-06_prepared.sdf

>  <GenAI_Model>  (1) 
DiffSBDD

>  <Protein>  (1) 
GPCR_5HT2C

$$$$
DiffSBDD_41_num_sample_50
     RDKit          3D

  0  0  0  0  0  0  0  0  0  0999 V3000
M  V30 BEGIN CTAB
M  V30 COUNTS 83 87 0 0 1
M  V30 BEGIN ATOM
M  V30 1 C 42.520400 31.210179 66.134600 0
M  V30 2 C 42.958369 30.589786 64.811970 0 CFG=2
M  V30 3 C 38.254829 31.691415 58.641711 0
M  V30 4 C 41.271580 35.521831 63.340255 0
M  V30 5 C 42.754748 28.278174 65.868806 0 CFG=1
M  V30 6 O 41.628662 27.849961 65.126854 0
M  V30 7 O 42.077876 28.158965 68.164748 0
M  V30 8 C 38.043642 26.103245 55.007728 0
M  V30 9 C 42.218294 31.645991 62.680441 0
M  V30 10 C 38.885997 30.366953 56.685254 0
M  V30 11 C 35.749078 32.898018 60.266451 0
M  V30 12 C 39.057591 31.708185 62.109551 0
M  V30 13 C 41.857755 30.632217 63.686225 0 CFG=2
M  V30 14 C 37.853834 28.622942 54.321106 0
M  V30 15 F 37.585992 24.905594 54.653497 0
M  V30 16 O 37.553398 30.539265 60.673791 0
M  V30 17 C 38.038675 33.050344 59.285547 0 CFG=2
M  V30 18 C 39.267680 30.564704 63.121596 0
M  V30 19 C 38.666950 29.180452 57.428584 0
M  V30 20 C 43.624046 29.226219 65.047752 0 CFG=1
M  V30 21 O 44.063608 28.613689 63.853503 0
M  V30 22 F 39.359721 26.005657 55.188999 0
M  V30 23 C 39.003275 35.018680 60.449280 0 CFG=1
M  V30 24 C 37.661138 31.733650 61.437313 0 CFG=2
M  V30 25 C 39.289013 29.088219 54.643895 0
M  V30 26 N 34.847062 33.221418 61.084856 0
M  V30 27 F 37.467375 26.421479 56.162309 0
M  V30 28 O 40.512077 34.823657 62.366417 0
M  V30 29 C 42.218536 30.394447 67.267008 0
M  V30 30 C 38.013506 30.498775 59.373747 0
M  V30 31 C 39.354346 33.795902 59.581387 0
M  V30 32 C 42.022036 33.209052 67.449716 0
M  V30 33 C 38.679885 31.617397 57.298538 0
M  V30 34 O 39.301293 30.319861 55.364302 0
M  V30 35 C 37.239970 32.979713 60.592521 0 CFG=2
M  V30 36 S 37.598260 34.543285 61.453499 0
M  V30 37 C 41.724707 32.407288 68.566696 0
M  V30 38 C 42.532215 32.484643 61.853420 0
M  V30 39 C 42.319210 28.891977 67.206783 0
M  V30 40 C 40.142700 35.645315 61.273824 0
M  V30 41 C 40.387506 30.803922 64.169926 0
M  V30 42 C 37.710920 27.140203 53.909173 0
M  V30 43 C 38.227709 29.252267 58.762388 0
M  V30 44 C 42.419691 32.614256 66.239207 0
M  V30 45 C 41.822429 31.005493 68.477944 0
M  V30 46 H 43.796890 31.214815 64.496875 0
M  V30 47 H 41.585064 34.829466 64.119627 0
M  V30 48 H 42.165154 35.974342 62.909268 0
M  V30 49 H 40.678823 36.307383 63.810975 0
M  V30 50 H 43.336769 27.385961 66.100161 0
M  V30 51 H 41.932155 27.594824 64.267636 0
M  V30 52 H 35.511241 32.535838 59.261959 0
M  V30 53 H 39.239815 32.650419 62.621462 0
M  V30 54 H 39.822848 31.579640 61.352548 0
M  V30 55 H 41.900059 29.701748 63.121020 0
M  V30 56 H 37.193015 28.821261 55.161873 0
M  V30 57 H 37.467522 29.250504 53.517433 0
M  V30 58 H 37.493323 33.665163 58.564552 0
M  V30 59 H 39.434609 29.623364 62.596750 0
M  V30 60 H 38.338959 30.421429 63.669103 0
M  V30 61 H 38.826463 28.217448 56.978601 0
M  V30 62 H 44.532428 29.408772 65.625570 0
M  V30 63 H 44.648595 27.900271 64.060335 0
M  V30 64 H 38.585572 35.819762 59.853496 0
M  V30 65 H 36.942752 31.651931 62.252962 0
M  V30 66 H 39.812451 29.258586 53.703193 0
M  V30 67 H 39.880028 28.338365 55.163384 0
M  V30 68 H 33.917037 33.123041 60.703343 0
M  V30 69 H 40.058644 33.178352 60.122056 0
M  V30 70 H 39.867407 34.021407 58.653519 0
M  V30 71 H 41.946013 34.284356 67.521473 0
M  V30 72 H 38.849556 32.524472 56.737179 0
M  V30 73 H 41.421304 32.867999 69.494484 0
M  V30 74 H 42.786306 33.221265 61.128576 0
M  V30 75 H 41.016772 35.842167 60.653511 0
M  V30 76 H 39.797809 36.611993 61.645821 0
M  V30 77 H 40.213198 30.094172 64.978654 0
M  V30 78 H 40.250369 31.787607 64.620534 0
M  V30 79 H 36.677728 26.991659 53.594551 0
M  V30 80 H 38.313840 26.938608 53.023173 0
M  V30 81 H 38.050916 28.345778 59.318565 0
M  V30 82 H 42.649502 33.234933 65.386192 0
M  V30 83 H 41.592531 30.396123 69.340946 0
M  V30 END ATOM
M  V30 BEGIN BOND
M  V30 1 1 2 1
M  V30 2 1 6 5
M  V30 3 1 13 2
M  V30 4 1 13 9
M  V30 5 1 15 8
M  V30 6 1 17 3
M  V30 7 1 18 12
M  V30 8 1 19 10
M  V30 9 1 20 2
M  V30 10 1 20 5
M  V30 11 1 21 20
M  V30 12 1 22 8
M  V30 13 1 24 12
M  V30 14 1 24 16
M  V30 15 1 25 14
M  V30 16 2 26 11
M  V30 17 1 27 8
M  V30 18 1 28 4
M  V30 19 1 29 1
M  V30 20 2 30 3
M  V30 21 1 30 16
M  V30 22 1 31 17
M  V30 23 1 31 23
M  V30 24 1 33 3
M  V30 25 2 33 10
M  V30 26 1 34 10
M  V30 27 1 34 25
M  V30 28 1 35 11 CFG=3
M  V30 29 1 35 17
M  V30 30 1 35 24
M  V30 31 1 36 23
M  V30 32 1 36 35
M  V30 33 2 37 32
M  V30 34 3 38 9
M  V30 35 1 39 5
M  V30 36 2 39 7
M  V30 37 1 39 29
M  V30 38 1 40 23
M  V30 39 1 40 28
M  V30 40 1 41 13
M  V30 41 1 41 18
M  V30 42 1 42 8
M  V30 43 1 42 14
M  V30 44 2 43 19
M  V30 45 1 43 30
M  V30 46 2 44 1
M  V30 47 1 44 32
M  V30 48 2 45 29
M  V30 49 1 45 37
M  V30 50 1 2 46 CFG=3
M  V30 51 1 47 4
M  V30 52 1 48 4
M  V30 53 1 49 4
M  V30 54 1 5 50 CFG=1
M  V30 55 1 51 6
M  V30 56 1 52 11
M  V30 57 1 53 12
M  V30 58 1 54 12
M  V30 59 1 13 55 CFG=3
M  V30 60 1 56 14
M  V30 61 1 57 14
M  V30 62 1 17 58 CFG=3
M  V30 63 1 59 18
M  V30 64 1 60 18
M  V30 65 1 61 19
M  V30 66 1 20 62 CFG=1
M  V30 67 1 63 21
M  V30 68 1 23 64 CFG=3
M  V30 69 1 24 65 CFG=1
M  V30 70 1 66 25
M  V30 71 1 67 25
M  V30 72 1 68 26
M  V30 73 1 69 31
M  V30 74 1 70 31
M  V30 75 1 71 32
M  V30 76 1 72 33
M  V30 77 1 73 37
M  V30 78 1 74 38
M  V30 79 1 75 40
M  V30 80 1 76 40
M  V30 81 1 77 41
M  V30 82 1 78 41
M  V30 83 1 79 42
M  V30 84 1 80 42
M  V30 85 1 81 43
M  V30 86 1 82 44
M  V30 87 1 83 45
M  V30 END BOND
M  V30 END CTAB
M  END
>  <i_epik_Tot_Q>  (1) 
0

>  <i_epik_Tot_abs_Q>  (1) 
0

>  <i_i_glide_confnum>  (1) 
333

>  <i_i_glide_lignum>  (1) 
99

>  <i_i_glide_posenum>  (1) 
271

>  <i_i_glide_rotatable_bonds>  (1) 
16

>  <i_lp_mmshare_version>  (1) 
72125

>  <i_m_source_file_index>  (1) 
42

>  <i_f3d_flags>  (1) 
0

>  <num_sample>  (1) 
50

>  <b_lp_Chiralities_Consistent>  (1) 
1

>  <r_epik_Charging_Adjusted_Penalty>  (1) 
0.41067983895260396

>  <r_epik_Ionization_Penalty>  (1) 
0.0048607436090088536

>  <r_epik_Ionization_Penalty_Charging>  (1) 
0

>  <r_epik_Ionization_Penalty_Neutral>  (1) 
0.0048607436090088536

>  <r_epik_State_Penalty>  (1) 
0.41067983895260396

>  <r_glide_ring_energy>  (1) 
0.56107915077032222

>  <r_i_docking_score>  (1) 
-6.5334198833786621

>  <r_i_glide_ecoul>  (1) 
0.52579810967914753

>  <r_i_glide_eff_state_penalty>  (1) 
0.41067983895260396

>  <r_i_glide_einternal>  (1) 
11.524473356810088

>  <r_i_glide_emodel>  (1) 
-58.33126045883732

>  <r_i_glide_emodel_strain>  (1) 
0.50523582990091143

>  <r_i_glide_energy>  (1) 
-51.667132578511243

>  <r_i_glide_erotb>  (1) 
0.41134081239429626

>  <r_i_glide_esite>  (1) 
-0.022104163795213769

>  <r_i_glide_evdw>  (1) 
-52.192930688190387

>  <r_i_glide_gscore>  (1) 
-6.9440997223312664

>  <r_i_glide_gscore_strain>  (1) 
0

>  <r_i_glide_hbond>  (1) 
0

>  <r_i_glide_ligand_efficiency>  (1) 
-0.14518710851952582

>  <r_i_glide_ligand_efficiency_ln>  (1) 
-1.359242488375932

>  <r_i_glide_ligand_efficiency_sa>  (1) 
-0.51641505419137357

>  <r_i_glide_lipo>  (1) 
-3.1640440256271511

>  <r_i_glide_metal>  (1) 
-0

>  <r_i_glide_rewards>  (1) 
-1.6385155273455494

>  <r_lp_Energy>  (1) 
49.308972999999995

>  <r_lp_tautomer_probability>  (1) 
0.5

>  <s_epik_Chemistry_Notes>  (1) 
This compound has an imine and may undergo hydrolysis.

>  <s_epik_cmdline>  (1) 
J2VwaWtfcHl0aG9uJywgJy1waHQnLCAnMS4wJywgJy1waCcsICc3LjQnLCAnLXRuJywgJzgnLCAnLW1hJywgJzUwMCcsICctaW1hZScsICc8aW5maWxlLm1hZT4nLCAnLW9tYWUnLCAnPG91dGZpbGUubWFlPic=

>  <s_epik_input>  (1) 
W2NIXTFbY0hdW2NIXVtjSF1jKGMxMilDKD1PKVtDQEBIXShbT0hdKVtDQEBIXShbT0hdKVtDQEBIXTJbQ0BASF0oQyNbQ0hdKVtDSDJdW0NIMl1bQ0gyXVtDQEBIXTNPYyhjNFtDQEBIXShbQ0BAXTM1L1tDSF09Ti9bSF0pW0NIMl1bQ0BASF0oUzUpW0NIMl1PW0NIM10pW2NIXVtjSF1jKFtjSF00KU9bQ0gyXVtDSDJdW0NIMl1DKEYpKEYpRg==

>  <s_glide_docking_method>  (1) 
confgen

>  <s_i_glide_gridfile>  (1) 
gpcr_5ht2c_6bqh_protein_autoprepared_prepared

>  <s_lp_Force_Field>  (1) 
S-OPLS

>  <s_lp_Variant>  (1) 
DiffSBDD_41_num_sample_50-4

>  <s_m_source_file>  (1) 
generated__ligand_DiffSBDD_2026-05-06_prepared.sdf

>  <GenAI_Model>  (1) 
DiffSBDD

>  <Protein>  (1) 
GPCR_5HT2C

$$$$
DiffSBDD_9_num_sample_50
     RDKit          3D

  0  0  0  0  0  0  0  0  0  0999 V3000
M  V30 BEGIN CTAB
M  V30 COUNTS 72 73 0 0 1
M  V30 BEGIN ATOM
M  V30 1 C 37.413317 30.630552 59.911249 0
M  V30 2 C 38.865881 29.616486 54.046019 0
M  V30 3 C 41.626657 27.931015 65.817970 0
M  V30 4 O 41.598541 25.221437 66.491322 0
M  V30 5 C 38.346361 30.484571 58.700046 0
M  V30 6 C 41.368545 30.258939 67.006092 0
M  V30 7 C 41.467419 26.098042 67.346078 0
M  V30 8 C 40.359087 29.226492 51.383232 0
M  V30 9 C 44.695117 31.491299 65.933861 0
M  V30 10 C 41.314241 25.713344 68.826172 0
M  V30 11 O 38.599803 30.421407 62.120010 0
M  V30 12 C 45.608129 32.078326 67.016562 0
M  V30 13 C 38.400862 29.466806 55.514116 0 CFG=1
M  V30 14 C 42.719493 30.636138 67.524577 0 CFG=1
M  V30 15 C 43.864049 29.644152 67.690991 0
M  V30 16 F 40.335625 24.821420 68.987986 0
M  V30 17 C 38.667705 28.367764 53.160027 0 CFG=2
M  V30 18 C 38.897601 27.240318 50.916287 0
M  V30 19 O 41.799284 27.228211 64.818826 0
M  V30 20 C 38.048995 31.311977 61.152642 0
M  V30 21 C 41.627067 29.484053 65.686806 0 CFG=1
M  V30 22 N 37.867227 30.879423 57.512615 0
M  V30 23 F 42.461416 25.199087 69.270734 0
M  V30 24 O 39.467519 30.021313 58.836517 0
M  V30 25 P 40.132032 29.690718 61.916794 0
M  V30 26 C 39.064301 28.259991 56.215250 0
M  V30 27 N 41.456849 27.424879 67.066550 0
M  V30 28 O 41.067406 30.738202 61.453632 0 CHG=-1
M  V30 29 C 38.997622 28.571647 51.663615 0
M  V30 30 O 40.667156 29.183906 63.437157 0
M  V30 31 O 42.969642 29.858912 65.345569 0
M  V30 32 C 43.707568 30.450842 66.419548 0 CFG=2
M  V30 33 C 38.637508 30.792038 56.275060 0
M  V30 34 O 37.306521 27.985395 53.238413 0
M  V30 35 O 39.946989 28.454978 61.125777 0
M  V30 36 C 40.666003 30.006051 64.581456 0
M  V30 37 H 36.546213 31.214511 59.597891 0
M  V30 38 H 37.032393 29.645143 60.176305 0
M  V30 39 H 39.918153 29.898854 54.048594 0
M  V30 40 H 38.330111 30.452322 53.593759 0
M  V30 41 H 40.830422 31.184642 66.797826 0
M  V30 42 H 40.782541 29.736325 67.761039 0
M  V30 43 H 41.176941 28.601825 51.732978 0
M  V30 44 H 40.499709 29.375348 50.312182 0
M  V30 45 H 40.448589 30.207899 51.847243 0
M  V30 46 H 45.312972 31.034562 65.159167 0
M  V30 47 H 44.122782 32.286882 65.458653 0
M  V30 48 H 41.083848 26.570987 69.456432 0
M  V30 49 H 46.267367 32.821400 66.574954 0
M  V30 50 H 45.042570 32.563012 67.812068 0
M  V30 51 H 46.244924 31.311266 67.458145 0
M  V30 52 H 37.324121 29.290048 55.499598 0
M  V30 53 H 42.765311 31.544434 68.122476 0
M  V30 54 H 43.681646 28.576833 67.636993 0
M  V30 55 H 44.644340 29.920467 68.395011 0
M  V30 56 H 39.285012 27.552643 53.536400 0
M  V30 57 H 39.613450 26.507156 51.285212 0
M  V30 58 H 37.901498 26.821381 51.024337 0
M  V30 59 H 39.068675 27.380751 49.853809 0
M  V30 60 H 38.814515 32.028434 60.848667 0
M  V30 61 H 37.284736 31.896891 61.661953 0
M  V30 62 H 36.916021 31.248996 57.453622 0
M  V30 63 H 40.144233 28.388082 56.290578 0
M  V30 64 H 38.674250 28.116546 57.221947 0
M  V30 65 H 38.870246 27.325448 55.692006 0
M  V30 66 H 41.331278 28.071334 67.829317 0
M  V30 67 H 38.245622 29.226761 51.238175 0
M  V30 68 H 39.702515 30.957621 56.449085 0
M  V30 69 H 38.303727 31.628524 55.660387 0
M  V30 70 H 37.180041 27.210241 52.708763 0
M  V30 71 H 40.929521 31.024472 64.292040 0
M  V30 72 H 39.643912 30.033915 64.960660 0
M  V30 END ATOM
M  V30 BEGIN BOND
M  V30 1 1 5 1
M  V30 2 2 7 4
M  V30 3 1 10 7
M  V30 4 1 12 9
M  V30 5 1 13 2
M  V30 6 1 14 6
M  V30 7 1 15 14
M  V30 8 1 16 10
M  V30 9 1 17 2
M  V30 10 2 19 3
M  V30 11 1 20 1
M  V30 12 1 20 11
M  V30 13 1 21 3
M  V30 14 1 21 6
M  V30 15 1 22 5
M  V30 16 1 23 10
M  V30 17 2 24 5
M  V30 18 1 25 11
M  V30 19 1 26 13
M  V30 20 1 27 3
M  V30 21 1 27 7
M  V30 22 1 28 25
M  V30 23 1 29 8
M  V30 24 1 29 17
M  V30 25 1 29 18
M  V30 26 1 30 25
M  V30 27 1 31 21
M  V30 28 1 32 9 CFG=3
M  V30 29 1 32 14
M  V30 30 1 32 15
M  V30 31 1 32 31
M  V30 32 1 33 13
M  V30 33 1 33 22
M  V30 34 1 34 17
M  V30 35 2 35 25
M  V30 36 1 21 36 CFG=3
M  V30 37 1 36 30
M  V30 38 1 37 1
M  V30 39 1 38 1
M  V30 40 1 39 2
M  V30 41 1 40 2
M  V30 42 1 41 6
M  V30 43 1 42 6
M  V30 44 1 43 8
M  V30 45 1 44 8
M  V30 46 1 45 8
M  V30 47 1 46 9
M  V30 48 1 47 9
M  V30 49 1 48 10
M  V30 50 1 49 12
M  V30 51 1 50 12
M  V30 52 1 51 12
M  V30 53 1 13 52 CFG=3
M  V30 54 1 14 53 CFG=1
M  V30 55 1 54 15
M  V30 56 1 55 15
M  V30 57 1 17 56 CFG=1
M  V30 58 1 57 18
M  V30 59 1 58 18
M  V30 60 1 59 18
M  V30 61 1 60 20
M  V30 62 1 61 20
M  V30 63 1 62 22
M  V30 64 1 63 26
M  V30 65 1 64 26
M  V30 66 1 65 26
M  V30 67 1 66 27
M  V30 68 1 67 29
M  V30 69 1 68 33
M  V30 70 1 69 33
M  V30 71 1 70 34
M  V30 72 1 71 36
M  V30 73 1 72 36
M  V30 END BOND
M  V30 END CTAB
M  END
>  <i_epik_Tot_Q>  (1) 
-1

>  <i_epik_Tot_abs_Q>  (1) 
1

>  <i_i_glide_confnum>  (1) 
6609

>  <i_i_glide_lignum>  (1) 
31

>  <i_i_glide_posenum>  (1) 
131

>  <i_i_glide_rotatable_bonds>  (1) 
19

>  <i_lp_mmshare_version>  (1) 
72125

>  <i_m_source_file_index>  (1) 
10

>  <i_f3d_flags>  (1) 
0

>  <num_sample>  (1) 
50

>  <b_lp_Chiralities_Consistent>  (1) 
1

>  <r_epik_Charging_Adjusted_Penalty>  (1) 
0.00011155638353850814

>  <r_epik_Ionization_Penalty>  (1) 
0.00045402006549120547

>  <r_epik_Ionization_Penalty_Charging>  (1) 
0.00011155638353850814

>  <r_epik_Ionization_Penalty_Neutral>  (1) 
0.00034246368195269732

>  <r_epik_State_Penalty>  (1) 
-0

>  <r_glide_ring_energy>  (1) 
0

>  <r_i_docking_score>  (1) 
-6.5326482479918715

>  <r_i_glide_ecoul>  (1) 
-13.351807500435989

>  <r_i_glide_eff_state_penalty>  (1) 
-0

>  <r_i_glide_einternal>  (1) 
23.652971786179577

>  <r_i_glide_emodel>  (1) 
-61.065220993459008

>  <r_i_glide_emodel_strain>  (1) 
1.7301373351832652

>  <r_i_glide_energy>  (1) 
-55.245820516444525

>  <r_i_glide_erotb>  (1) 
1.0579039017731899

>  <r_i_glide_esite>  (1) 
-0.18650652547154337

>  <r_i_glide_evdw>  (1) 
-41.894013016008536

>  <r_i_glide_gscore>  (1) 
-6.5326482479918715

>  <r_i_glide_gscore_strain>  (1) 
0

>  <r_i_glide_hbond>  (1) 
-0.38924042808979253

>  <r_i_glide_ligand_efficiency>  (1) 
-0.18146245133310754

>  <r_i_glide_ligand_efficiency_ln>  (1) 
-1.4252473559523018

>  <r_i_glide_ligand_efficiency_sa>  (1) 
-0.59917581270800302

>  <r_i_glide_lipo>  (1) 
-2.6298418499521472

>  <r_i_glide_metal>  (1) 
-0

>  <r_i_glide_rewards>  (1) 
-0.28749157038575407

>  <r_lp_Energy>  (1) 
21.957920999999999

>  <r_lp_tautomer_probability>  (1) 
1

>  <s_epik_cmdline>  (1) 
J2VwaWtfcHl0aG9uJywgJy1waHQnLCAnMS4wJywgJy1waCcsICc3LjQnLCAnLXRuJywgJzgnLCAnLW1hJywgJzUwMCcsICctaW1hZScsICc8aW5maWxlLm1hZT4nLCAnLW9tYWUnLCAnPG91dGZpbGUubWFlPic=

>  <s_epik_input>  (1) 
W0NIM11bQ0hdKFtDSDNdKVtDQEhdKFtPSF0pW0NIMl1bQ0BASF0oW0NIM10pW0NIMl1bTkhdQyg9TylbQ0gyXVtDSDJdT1tQQEBdKD1PKShbT0hdKU9bQ0gyXVtDQF0oTzEpKEMoPU8pW05IXUMoPU8pW0NIXShGKUYpW0NIMl1bQ0BASF0oW0NIMl0yKVtDQF0xMltDSDJdW0NIM10=

>  <s_glide_docking_method>  (1) 
confgen

>  <s_i_glide_gridfile>  (1) 
gpcr_5ht2c_6bqh_protein_autoprepared_prepared

>  <s_lp_Force_Field>  (1) 
S-OPLS

>  <s_lp_Variant>  (1) 
DiffSBDD_9_num_sample_50-1

>  <s_m_source_file>  (1) 
generated__ligand_DiffSBDD_2026-05-06_prepared.sdf

>  <GenAI_Model>  (1) 
DiffSBDD

>  <Protein>  (1) 
GPCR_5HT2C

$$$$
DiffSBDD_17_num_sample_50
     RDKit          3D

  0  0  0  0  0  0  0  0  0  0999 V3000
M  V30 BEGIN CTAB
M  V30 COUNTS 67 69 0 0 1
M  V30 BEGIN ATOM
M  V30 1 C 37.270175 27.737370 57.853495 0
M  V30 2 S 36.667401 35.195776 61.453472 0
M  V30 3 C 38.193454 28.393429 52.769960 0
M  V30 4 O 41.067401 28.034658 60.171761 0
M  V30 5 C 40.423100 28.412067 59.206784 0
M  V30 6 C 39.517779 30.729829 53.623881 0
M  V30 7 N 39.540112 29.462730 59.353741 0
M  V30 8 C 40.667158 30.612659 61.414160 0 CFG=2
M  V30 9 O 41.402002 29.696133 62.232219 0
M  V30 10 C 41.027633 34.157344 61.758233 0
M  V30 11 C 40.635500 35.380834 60.909751 0
M  V30 12 C 37.254400 29.195783 58.320647 0
M  V30 13 C 40.433270 31.821104 62.332642 0
M  V30 14 O 37.558871 38.607169 61.053412 0 CHG=-1
M  V30 15 C 37.844874 28.993089 53.996931 0
M  V30 16 C 38.602821 29.966288 58.272394 0 CFG=2
M  V30 17 C 39.155674 30.439780 56.873460 0
M  V30 18 C 39.204913 28.960343 51.970406 0
M  V30 19 C 40.677477 28.911663 63.169089 0
M  V30 20 N 40.077114 33.031802 61.559780 0 CFG=1 CHG=1
M  V30 21 C 39.185112 35.789622 61.090660 0 CFG=1
M  V30 22 C 38.690801 33.441485 61.844139 0
M  V30 23 C 37.279764 36.640411 62.379287 0 CFG=2
M  V30 24 C 36.804284 38.007125 61.852205 0
M  V30 25 C 38.137704 30.806328 55.758266 0
M  V30 26 C 38.261750 34.596515 60.946039 0 CFG=1
M  V30 27 C 39.370717 30.084817 60.698134 0
M  V30 28 O 35.700205 38.421455 62.266353 0
M  V30 29 C 38.819871 36.524386 62.387173 0
M  V30 30 S 40.691359 27.536075 57.680409 0 CHG=-1
M  V30 31 C 38.506970 30.163336 54.425678 0
M  V30 32 C 39.867402 30.128839 52.396810 0
M  V30 33 H 36.269568 27.313379 57.853508 0
M  V30 34 H 37.867450 27.107714 58.512515 0
M  V30 35 H 37.665246 27.651612 56.842789 0
M  V30 36 H 37.684938 27.498092 52.442359 0
M  V30 37 H 40.026903 31.621464 53.950960 0
M  V30 38 H 41.367526 30.950353 60.653280 0
M  V30 39 H 42.024646 33.821270 61.477168 0
M  V30 40 H 41.065515 34.433741 62.813343 0
M  V30 41 H 41.310133 36.221716 61.077368 0
M  V30 42 H 40.667410 35.138046 59.853536 0
M  V30 43 H 36.474363 29.731761 57.785506 0
M  V30 44 H 36.898786 29.221428 59.351143 0
M  V30 45 H 39.672226 31.590433 63.079180 0
M  V30 46 H 41.344796 32.011036 62.902635 0
M  V30 47 H 37.070783 28.555447 54.608787 0
M  V30 48 H 38.275851 30.944069 58.621928 0
M  V30 49 H 39.797643 31.304437 57.032352 0
M  V30 50 H 39.824721 29.738201 56.405739 0
M  V30 51 H 39.471601 28.500253 51.030039 0
M  V30 52 H 41.386962 28.374564 63.796871 0
M  V30 53 H 40.058772 28.163101 62.672258 0
M  V30 54 H 40.057960 29.524850 63.822385 0
M  V30 55 H 38.923734 36.421448 60.253431 0
M  V30 56 H 37.989509 32.616335 61.731904 0
M  V30 57 H 38.667404 33.724942 62.889003 0
M  V30 58 H 36.913020 36.552688 63.402675 0
M  V30 59 H 37.119555 30.505088 55.985760 0
M  V30 60 H 38.087297 31.889040 55.635506 0
M  V30 61 H 38.207808 34.266466 59.907307 0
M  V30 62 H 38.665497 30.902729 60.625104 0
M  V30 63 H 38.845349 29.369552 61.326751 0
M  V30 64 H 39.142001 35.960984 63.261609 0
M  V30 65 H 39.323868 37.489531 62.455086 0
M  V30 66 H 40.643352 30.564482 51.784062 0
M  V30 67 H 40.114535 32.786298 60.580086 0
M  V30 END ATOM
M  V30 BEGIN BOND
M  V30 1 2 5 4
M  V30 2 1 7 5
M  V30 3 1 9 8
M  V30 4 1 11 10
M  V30 5 1 12 1
M  V30 6 1 13 8
M  V30 7 1 15 3
M  V30 8 1 16 7
M  V30 9 1 16 12
M  V30 10 1 17 16
M  V30 11 2 18 3
M  V30 12 1 19 9
M  V30 13 1 20 10
M  V30 14 1 20 13
M  V30 15 1 21 11
M  V30 16 1 22 20
M  V30 17 1 23 2
M  V30 18 1 24 14
M  V30 19 1 24 23
M  V30 20 1 25 17
M  V30 21 1 26 2
M  V30 22 1 26 21
M  V30 23 1 26 22
M  V30 24 1 27 7
M  V30 25 1 27 8
M  V30 26 2 28 24
M  V30 27 1 29 21
M  V30 28 1 29 23
M  V30 29 1 30 5
M  V30 30 1 31 6
M  V30 31 2 31 15
M  V30 32 1 31 25
M  V30 33 2 32 6
M  V30 34 1 32 18
M  V30 35 1 33 1
M  V30 36 1 34 1
M  V30 37 1 35 1
M  V30 38 1 36 3
M  V30 39 1 37 6
M  V30 40 1 8 38 CFG=3
M  V30 41 1 39 10
M  V30 42 1 40 10
M  V30 43 1 41 11
M  V30 44 1 42 11
M  V30 45 1 43 12
M  V30 46 1 44 12
M  V30 47 1 45 13
M  V30 48 1 46 13
M  V30 49 1 47 15
M  V30 50 1 16 48 CFG=1
M  V30 51 1 49 17
M  V30 52 1 50 17
M  V30 53 1 51 18
M  V30 54 1 52 19
M  V30 55 1 53 19
M  V30 56 1 54 19
M  V30 57 1 21 55 CFG=3
M  V30 58 1 56 22
M  V30 59 1 57 22
M  V30 60 1 23 58 CFG=1
M  V30 61 1 59 25
M  V30 62 1 60 25
M  V30 63 1 26 61 CFG=3
M  V30 64 1 62 27
M  V30 65 1 63 27
M  V30 66 1 64 29
M  V30 67 1 65 29
M  V30 68 1 66 32
M  V30 69 1 20 67 CFG=3
M  V30 END BOND
M  V30 END CTAB
M  END
>  <i_epik_Tot_Q>  (1) 
-1

>  <i_epik_Tot_abs_Q>  (1) 
3

>  <i_i_glide_confnum>  (1) 
449

>  <i_i_glide_lignum>  (1) 
48

>  <i_i_glide_posenum>  (1) 
363

>  <i_i_glide_rotatable_bonds>  (1) 
12

>  <i_lp_mmshare_version>  (1) 
72125

>  <i_m_source_file_index>  (1) 
18

>  <i_f3d_flags>  (1) 
0

>  <num_sample>  (1) 
50

>  <b_lp_Chiralities_Consistent>  (1) 
1

>  <r_epik_Charging_Adjusted_Penalty>  (1) 
0.068943464179595071

>  <r_epik_Ionization_Penalty>  (1) 
0.034590213650767733

>  <r_epik_Ionization_Penalty_Charging>  (1) 
0.034589667735814351

>  <r_epik_Ionization_Penalty_Neutral>  (1) 
5.4591495337813188e-07

>  <r_epik_State_Penalty>  (1) 
0.034353796443780713

>  <r_glide_ring_energy>  (1) 
0

>  <r_i_docking_score>  (1) 
-6.5298891260077641

>  <r_i_glide_ecoul>  (1) 
-0.69792212706475298

>  <r_i_glide_eff_state_penalty>  (1) 
0.034353796443780713

>  <r_i_glide_einternal>  (1) 
7.4248582273026109

>  <r_i_glide_emodel>  (1) 
-50.873669106140291

>  <r_i_glide_emodel_strain>  (1) 
4.4819500448316916

>  <r_i_glide_energy>  (1) 
-36.190276428414585

>  <r_i_glide_erotb>  (1) 
0.61675831554288163

>  <r_i_glide_esite>  (1) 
0

>  <r_i_glide_evdw>  (1) 
-35.492354301349835

>  <r_i_glide_gscore>  (1) 
-6.5642429224515446

>  <r_i_glide_gscore_strain>  (1) 
0.12048751120792289

>  <r_i_glide_hbond>  (1) 
-0.32000000000000001

>  <r_i_glide_ligand_efficiency>  (1) 
-0.20405903518774263

>  <r_i_glide_ligand_efficiency_ln>  (1) 
-1.4622201733680549

>  <r_i_glide_ligand_efficiency_sa>  (1) 
-0.64784705424127709

>  <r_i_glide_lipo>  (1) 
-3.6398937958812785

>  <r_i_glide_metal>  (1) 
-0

>  <r_i_glide_rewards>  (1) 
-1.4622889191938664

>  <r_lp_Energy>  (1) 
40.638894999999998

>  <s_epik_cmdline>  (1) 
J2VwaWtfcHl0aG9uJywgJy1waHQnLCAnMS4wJywgJy1waCcsICc3LjQnLCAnLXRuJywgJzgnLCAnLW1hJywgJzUwMCcsICctaW1hZScsICc8aW5maWxlLm1hZT4nLCAnLW9tYWUnLCAnPG91dGZpbGUubWFlPic=

>  <s_epik_input>  (1) 
W2NIXTFbY0hdW2NIXVtjSF1bY0hdYzFbQ0gyXVtDSDJdW0NAQEhdKFtDSDJdW0NIM10pTihDKD1PKVtTSF0pW0NIMl1bQ0hdKE9bQ0gzXSlbQ0gyXU4oW0NIMl1bQ0gyXTIpW0NIMl1bQ0BIXShbQ0BIXTIzKVNbQ0BASF0oW0NIMl0zKUMoPU8pW09IXQ==

>  <s_glide_docking_method>  (1) 
confgen

>  <s_i_glide_gridfile>  (1) 
gpcr_5ht2c_6bqh_protein_autoprepared_prepared

>  <s_lp_Force_Field>  (1) 
S-OPLS

>  <s_lp_Variant>  (1) 
DiffSBDD_17_num_sample_50-1

>  <s_m_source_file>  (1) 
generated__ligand_DiffSBDD_2026-05-06_prepared.sdf

>  <GenAI_Model>  (1) 
DiffSBDD

>  <Protein>  (1) 
GPCR_5HT2C

$$$$
DiffSBDD_37_num_sample_50
     RDKit          3D

  0  0  0  0  0  0  0  0  0  0999 V3000
M  V30 BEGIN CTAB
M  V30 COUNTS 62 64 0 0 1
M  V30 BEGIN ATOM
M  V30 1 C 38.784189 34.440123 61.541289 0
M  V30 2 F 42.464091 33.912812 64.643692 0
M  V30 3 C 38.949789 31.319279 54.665085 0
M  V30 4 C 37.067438 33.367508 59.337304 0
M  V30 5 C 37.490559 35.168503 61.187150 0
M  V30 6 N 41.431235 34.682031 64.157057 0
M  V30 7 C 39.322703 28.383378 52.204032 0 CFG=1
M  V30 8 C 38.421673 31.249521 59.413483 0
M  V30 9 C 39.470874 27.959025 50.769716 0
M  V30 10 C 40.439581 32.657800 61.197428 0
M  V30 11 C 39.247144 33.309517 60.789006 0
M  V30 12 C 38.486772 32.801876 59.524282 0 CFG=2
M  V30 13 S 37.067399 35.148721 59.453484 0
M  V30 14 O 38.685499 26.821432 50.653503 0
M  V30 15 C 40.709543 34.230708 63.042190 0
M  V30 16 C 39.908911 30.909011 51.694319 0
M  V30 17 C 41.161149 33.116706 62.314014 0
M  V30 18 C 39.526628 29.810706 52.677859 0 CFG=1
M  V30 19 C 39.951394 29.474488 57.495295 0
M  V30 20 C 35.812427 29.801049 59.278604 0
M  V30 21 C 38.798716 30.390337 57.031096 0 CFG=2
M  V30 22 C 36.855296 29.642017 58.212118 0
M  V30 23 C 39.527500 34.889725 62.653500 0
M  V30 24 F 40.860580 35.621467 64.984424 0
M  V30 25 C 39.190055 31.596738 56.158286 0
M  V30 26 O 38.224150 29.221432 52.488177 0
M  V30 27 N 37.839080 30.748323 58.115049 0 CFG=1 CHG=1
M  V30 28 O 39.467404 27.327666 53.130439 0
M  V30 29 C 39.845182 30.194425 54.109174 0
M  V30 30 H 39.111065 32.246619 54.120607 0
M  V30 31 H 37.899223 31.069869 54.504206 0
M  V30 32 H 36.667424 33.117112 58.355347 0
M  V30 33 H 36.378986 32.961956 60.079438 0
M  V30 34 H 36.673787 34.725537 61.757116 0
M  V30 35 H 37.560035 36.211211 61.501214 0
M  V30 36 H 37.846983 30.930110 60.276292 0
M  V30 37 H 39.382021 30.784007 59.584191 0
M  V30 38 H 40.509960 27.732809 50.546147 0
M  V30 39 H 39.109678 28.712440 50.072562 0
M  V30 40 H 40.809053 31.809867 60.653493 0
M  V30 41 H 39.086894 33.165486 58.688838 0
M  V30 42 H 39.010794 26.280824 49.939741 0
M  V30 43 H 40.989768 31.034494 51.659675 0
M  V30 44 H 39.561993 30.700666 50.685528 0
M  V30 45 H 39.467428 31.857936 51.982481 0
M  V30 46 H 42.069194 32.610898 62.610720 0
M  V30 47 H 40.513010 29.055632 56.664358 0
M  V30 48 H 40.667401 30.000585 58.109353 0
M  V30 49 H 39.588314 28.628010 58.075630 0
M  V30 50 H 35.067405 29.027121 59.107034 0
M  V30 51 H 36.240431 29.624932 60.253507 0
M  V30 52 H 35.335834 30.781914 59.242964 0
M  V30 53 H 38.238718 29.751073 56.348130 0
M  V30 54 H 36.309473 29.621439 57.267794 0
M  V30 55 H 37.347650 28.677011 58.332102 0
M  V30 56 H 39.179239 35.742228 63.219816 0
M  V30 57 H 40.227901 31.885337 56.307647 0
M  V30 58 H 38.591490 32.467192 56.430200 0
M  V30 59 H 38.930232 26.625073 52.789228 0
M  V30 60 H 39.727642 29.295131 54.703886 0
M  V30 61 H 40.892974 30.484438 54.187656 0
M  V30 62 H 37.265538 31.500137 57.745549 0
M  V30 END ATOM
M  V30 BEGIN BOND
M  V30 1 1 5 1
M  V30 2 1 6 2
M  V30 3 1 9 7
M  V30 4 2 11 1
M  V30 5 1 11 10
M  V30 6 1 12 4
M  V30 7 1 12 8
M  V30 8 1 12 11
M  V30 9 1 13 4
M  V30 10 1 13 5
M  V30 11 1 14 9
M  V30 12 1 15 6
M  V30 13 2 17 10
M  V30 14 1 17 15
M  V30 15 1 18 7
M  V30 16 1 18 16 CFG=3
M  V30 17 1 21 19
M  V30 18 1 22 20
M  V30 19 1 23 1
M  V30 20 2 23 15
M  V30 21 1 24 6
M  V30 22 1 25 3
M  V30 23 1 25 21
M  V30 24 1 26 7
M  V30 25 1 26 18
M  V30 26 1 27 8
M  V30 27 1 27 21
M  V30 28 1 27 22
M  V30 29 1 7 28 CFG=1
M  V30 30 1 29 3
M  V30 31 1 29 18
M  V30 32 1 30 3
M  V30 33 1 31 3
M  V30 34 1 32 4
M  V30 35 1 33 4
M  V30 36 1 34 5
M  V30 37 1 35 5
M  V30 38 1 36 8
M  V30 39 1 37 8
M  V30 40 1 38 9
M  V30 41 1 39 9
M  V30 42 1 40 10
M  V30 43 1 12 41 CFG=3
M  V30 44 1 42 14
M  V30 45 1 43 16
M  V30 46 1 44 16
M  V30 47 1 45 16
M  V30 48 1 46 17
M  V30 49 1 47 19
M  V30 50 1 48 19
M  V30 51 1 49 19
M  V30 52 1 50 20
M  V30 53 1 51 20
M  V30 54 1 52 20
M  V30 55 1 21 53 CFG=3
M  V30 56 1 54 22
M  V30 57 1 55 22
M  V30 58 1 56 23
M  V30 59 1 57 25
M  V30 60 1 58 25
M  V30 61 1 59 28
M  V30 62 1 60 29
M  V30 63 1 61 29
M  V30 64 1 27 62 CFG=3
M  V30 END BOND
M  V30 END CTAB
M  END
>  <i_epik_Tot_Q>  (1) 
1

>  <i_epik_Tot_abs_Q>  (1) 
1

>  <i_i_glide_confnum>  (1) 
614

>  <i_i_glide_lignum>  (1) 
92

>  <i_i_glide_posenum>  (1) 
347

>  <i_i_glide_rotatable_bonds>  (1) 
12

>  <i_lp_mmshare_version>  (1) 
72125

>  <i_m_source_file_index>  (1) 
38

>  <i_f3d_flags>  (1) 
0

>  <num_sample>  (1) 
50

>  <b_lp_Chiralities_Consistent>  (1) 
1

>  <r_epik_Charging_Adjusted_Penalty>  (1) 
0.031037112904587178

>  <r_epik_Ionization_Penalty>  (1) 
0.015538636701717824

>  <r_epik_Ionization_Penalty_Charging>  (1) 
0.015518556452293627

>  <r_epik_Ionization_Penalty_Neutral>  (1) 
2.0080249424197063e-05

>  <r_epik_State_Penalty>  (1) 
0.015518556452293551

>  <r_glide_ring_energy>  (1) 
0

>  <r_i_docking_score>  (1) 
-6.5290472416617611

>  <r_i_glide_ecoul>  (1) 
-4.6724801661981781

>  <r_i_glide_eff_state_penalty>  (1) 
0.015518556452293551

>  <r_i_glide_einternal>  (1) 
12.695988461561722

>  <r_i_glide_emodel>  (1) 
-47.405569714206308

>  <r_i_glide_emodel_strain>  (1) 
1.5835104986032391

>  <r_i_glide_energy>  (1) 
-32.921359532988355

>  <r_i_glide_erotb>  (1) 
0.85436837262661747

>  <r_i_glide_esite>  (1) 
-0.10647170895396443

>  <r_i_glide_evdw>  (1) 
-28.248879366790177

>  <r_i_glide_gscore>  (1) 
-6.5445657981140544

>  <r_i_glide_gscore_strain>  (1) 
0

>  <r_i_glide_hbond>  (1) 
-0.44328736459783535

>  <r_i_glide_ligand_efficiency>  (1) 
-0.2251395600573021

>  <r_i_glide_ligand_efficiency_ln>  (1) 
-1.4949862559876053

>  <r_i_glide_ligand_efficiency_sa>  (1) 
-0.69170005849155869

>  <r_i_glide_lipo>  (1) 
-2.6045790918557965

>  <r_i_glide_metal>  (1) 
-0

>  <r_i_glide_rewards>  (1) 
-2.13128001206384

>  <r_lp_Energy>  (1) 
38.592610000000001

>  <s_epik_cmdline>  (1) 
J2VwaWtfcHl0aG9uJywgJy1waHQnLCAnMS4wJywgJy1waCcsICc3LjQnLCAnLXRuJywgJzgnLCAnLW1hJywgJzUwMCcsICctaW1hZScsICc8aW5maWxlLm1hZT4nLCAnLW9tYWUnLCAnPG91dGZpbGUubWFlPic=

>  <s_epik_input>  (1) 
Rk4oRiljKFtjSF0xKVtjSF1bY0hdYyhjMTIpW0NASF0oW0NIMl1TW0NIMl0yKVtDSDJdTihbQ0gyXVtDSDNdKVtDQEhdKFtDSDNdKVtDSDJdW0NIMl1bQ0gyXVtDQEBdKE8zKShbQ0gzXSlDMyhbT0hdKVtDSDJdW09IXQ==

>  <s_glide_docking_method>  (1) 
confgen

>  <s_i_glide_gridfile>  (1) 
gpcr_5ht2c_6bqh_protein_autoprepared_prepared

>  <s_lp_Force_Field>  (1) 
S-OPLS

>  <s_lp_Variant>  (1) 
DiffSBDD_37_num_sample_50-2

>  <s_m_source_file>  (1) 
generated__ligand_DiffSBDD_2026-05-06_prepared.sdf

>  <GenAI_Model>  (1) 
DiffSBDD

>  <Protein>  (1) 
GPCR_5HT2C

$$$$
DiffSBDD_3_num_sample_50
     RDKit          3D

  0  0  0  0  0  0  0  0  0  0999 V3000
M  V30 BEGIN CTAB
M  V30 COUNTS 73 76 0 0 1
M  V30 BEGIN ATOM
M  V30 1 C 35.222614 33.691231 60.828850 0
M  V30 2 N 38.670755 37.950991 61.453593 0
M  V30 3 C 37.307389 35.039647 61.461752 0
M  V30 4 C 39.036753 29.106695 56.805947 0 CFG=2
M  V30 5 C 38.651364 29.790556 59.998378 0
M  V30 6 S 42.835249 31.940220 65.453995 0
M  V30 7 C 38.850528 33.943636 59.896773 0
M  V30 8 C 39.408108 37.060755 61.571223 0
M  V30 9 C 39.601608 30.539715 52.968506 0
M  V30 10 C 42.140961 33.542601 65.902225 0 CFG=1
M  V30 11 C 39.196286 29.657525 55.439147 0 CFG=1
M  V30 12 C 36.164436 34.139126 61.915535 0
M  V30 13 C 37.024881 32.180965 59.647840 0 CFG=2
M  V30 14 C 37.788784 30.010345 58.762167 0
M  V30 15 C 37.754039 29.019065 57.631305 0
M  V30 16 C 41.015577 33.796493 64.910393 0
M  V30 17 N 38.505317 34.220167 61.293334 0
M  V30 18 C 40.324657 35.909618 61.711292 0
M  V30 19 O 39.488488 30.502051 56.517974 0
M  V30 20 C 40.527063 33.377507 62.375733 0
M  V30 21 C 42.256857 32.070732 63.730788 0
M  V30 22 C 39.612736 34.614723 62.177089 0 CFG=2
M  V30 23 C 37.869768 31.719965 54.950298 0
M  V30 24 C 39.185765 28.357447 60.154709 0
M  V30 25 N 37.067399 31.088126 58.653428 0 CHG=1
M  V30 26 C 38.806499 29.681183 53.952570 0 CFG=1
M  V30 27 C 35.608891 32.324931 60.285528 0 CFG=2
M  V30 28 C 37.661982 33.452605 59.042409 0
M  V30 29 C 41.558773 33.432155 63.526690 0 CFG=2
M  V30 30 O 34.532400 32.021433 59.453520 0
M  V30 31 N 37.938922 30.253348 54.930626 0
M  V30 32 F 41.697545 33.545813 67.158049 0
M  V30 33 O 39.868755 29.800522 51.795194 0
M  V30 34 H 34.239561 33.599912 61.286688 0
M  V30 35 H 35.107157 34.439021 60.045743 0
M  V30 36 H 37.065602 35.635437 60.581257 0
M  V30 37 H 37.448832 35.753939 62.271397 0
M  V30 38 H 39.840830 28.461916 57.148303 0
M  V30 39 H 38.077963 30.013297 60.899014 0
M  V30 40 H 39.620259 33.176019 59.861501 0
M  V30 41 H 39.296080 34.821342 59.453779 0
M  V30 42 H 39.067433 31.444118 52.686481 0
M  V30 43 H 40.543497 30.850411 53.422950 0
M  V30 44 H 42.909171 34.310239 65.814475 0
M  V30 45 H 35.574268 34.684561 62.653538 0
M  V30 46 H 36.565701 33.246648 62.402157 0
M  V30 47 H 37.668518 31.929847 60.481247 0
M  V30 48 H 39.493456 30.484946 59.968097 0
M  V30 49 H 37.607567 28.004952 58.002884 0
M  V30 50 H 40.197082 33.125478 65.159195 0
M  V30 51 H 40.667957 34.826724 64.966126 0
M  V30 52 H 41.091051 36.196269 62.432371 0
M  V30 53 H 40.833136 35.765246 60.757443 0
M  V30 54 H 39.886379 32.507655 62.537597 0
M  V30 55 H 41.073872 33.172719 61.456896 0
M  V30 56 H 43.067530 31.923803 63.022934 0
M  V30 57 H 41.556657 31.251527 63.576164 0
M  V30 58 H 39.172237 34.824945 63.149067 0
M  V30 59 H 37.187986 32.084066 54.185730 0
M  V30 60 H 38.839059 32.200828 54.810849 0
M  V30 61 H 37.470174 32.062019 55.903294 0
M  V30 62 H 39.733740 28.268239 61.094436 0
M  V30 63 H 39.880186 28.079236 59.361900 0
M  V30 64 H 38.376899 27.627162 60.188062 0
M  V30 65 H 36.890037 29.233963 57.008503 0
M  V30 66 H 38.370056 28.767813 53.548382 0
M  V30 67 H 35.547753 31.596827 61.096188 0
M  V30 68 H 36.932910 34.240258 58.854169 0
M  V30 69 H 38.060177 33.233187 58.049985 0
M  V30 70 H 42.300842 34.185126 63.271761 0
M  V30 71 H 34.808640 32.023753 58.534104 0
M  V30 72 H 40.433939 29.072998 52.006005 0
M  V30 73 H 36.484236 31.221485 57.801147 0
M  V30 END ATOM
M  V30 BEGIN BOND
M  V30 1 3 8 2
M  V30 2 1 10 6
M  V30 3 1 11 4
M  V30 4 1 12 1
M  V30 5 1 12 3
M  V30 6 1 14 5
M  V30 7 1 15 4
M  V30 8 1 15 14
M  V30 9 1 16 10
M  V30 10 1 17 3
M  V30 11 1 17 7
M  V30 12 1 18 8
M  V30 13 1 19 4
M  V30 14 1 11 19 CFG=1
M  V30 15 1 21 6
M  V30 16 1 22 17
M  V30 17 1 22 18
M  V30 18 1 22 20
M  V30 19 1 24 5
M  V30 20 1 25 13
M  V30 21 2 25 14
M  V30 22 1 26 9
M  V30 23 1 26 11
M  V30 24 1 27 1
M  V30 25 1 27 13
M  V30 26 1 28 7
M  V30 27 1 28 13
M  V30 28 1 29 16
M  V30 29 1 29 20
M  V30 30 1 29 21
M  V30 31 1 30 27
M  V30 32 1 31 11
M  V30 33 1 31 23
M  V30 34 1 31 26
M  V30 35 1 32 10
M  V30 36 1 33 9
M  V30 37 1 34 1
M  V30 38 1 35 1
M  V30 39 1 36 3
M  V30 40 1 37 3
M  V30 41 1 4 38 CFG=3
M  V30 42 1 39 5
M  V30 43 1 40 7
M  V30 44 1 41 7
M  V30 45 1 42 9
M  V30 46 1 43 9
M  V30 47 1 10 44 CFG=1
M  V30 48 1 45 12
M  V30 49 1 46 12
M  V30 50 1 13 47 CFG=1
M  V30 51 1 48 5
M  V30 52 1 49 15
M  V30 53 1 50 16
M  V30 54 1 51 16
M  V30 55 1 52 18
M  V30 56 1 53 18
M  V30 57 1 54 20
M  V30 58 1 55 20
M  V30 59 1 56 21
M  V30 60 1 57 21
M  V30 61 1 22 58 CFG=1
M  V30 62 1 59 23
M  V30 63 1 60 23
M  V30 64 1 61 23
M  V30 65 1 62 24
M  V30 66 1 63 24
M  V30 67 1 64 24
M  V30 68 1 65 15
M  V30 69 1 26 66 CFG=3
M  V30 70 1 27 67 CFG=1
M  V30 71 1 68 28
M  V30 72 1 69 28
M  V30 73 1 29 70 CFG=3
M  V30 74 1 71 30
M  V30 75 1 72 33
M  V30 76 1 73 25
M  V30 END BOND
M  V30 END CTAB
M  END
>  <i_epik_Tot_Q>  (1) 
1

>  <i_epik_Tot_abs_Q>  (1) 
1

>  <i_i_glide_confnum>  (1) 
196

>  <i_i_glide_lignum>  (1) 
11

>  <i_i_glide_posenum>  (1) 
67

>  <i_i_glide_rotatable_bonds>  (1) 
11

>  <i_lp_mmshare_version>  (1) 
72125

>  <i_m_source_file_index>  (1) 
4

>  <i_f3d_flags>  (1) 
0

>  <num_sample>  (1) 
50

>  <b_lp_Chiralities_Consistent>  (1) 
1

>  <r_epik_Charging_Adjusted_Penalty>  (1) 
0.69158801815778803

>  <r_epik_Ionization_Penalty>  (1) 
0.18004840766126984

>  <r_epik_Ionization_Penalty_Charging>  (1) 
0.063917621844604325

>  <r_epik_Ionization_Penalty_Neutral>  (1) 
0.11613078581666553

>  <r_epik_State_Penalty>  (1) 
0.62767039631318366

>  <r_glide_ring_energy>  (1) 
0

>  <r_i_docking_score>  (1) 
-6.5142180101098992

>  <r_i_glide_ecoul>  (1) 
-11.233772737630487

>  <r_i_glide_eff_state_penalty>  (1) 
0.62767039631318366

>  <r_i_glide_einternal>  (1) 
10.956685864831632

>  <r_i_glide_emodel>  (1) 
-50.50714099771595

>  <r_i_glide_emodel_strain>  (1) 
1.9066477422684898

>  <r_i_glide_energy>  (1) 
-42.396709926062698

>  <r_i_glide_erotb>  (1) 
0.69427784923131142

>  <r_i_glide_esite>  (1) 
-0.13812496331741989

>  <r_i_glide_evdw>  (1) 
-31.162937188432213

>  <r_i_glide_gscore>  (1) 
-7.1418884064230825

>  <r_i_glide_gscore_strain>  (1) 
0

>  <r_i_glide_hbond>  (1) 
-0.35999999999999999

>  <r_i_glide_ligand_efficiency>  (1) 
-0.19740054576090604

>  <r_i_glide_ligand_efficiency_ln>  (1) 
-1.4487283566327127

>  <r_i_glide_ligand_efficiency_sa>  (1) 
-0.63316902728801827

>  <r_i_glide_lipo>  (1) 
-2.9914029322213995

>  <r_i_glide_metal>  (1) 
-0

>  <r_i_glide_rewards>  (1) 
-1.1034255900493912

>  <r_lp_Energy>  (1) 
29.912270999999997

>  <s_epik_Chemistry_Notes>  (1) 
This compound has an imine and may undergo hydrolysis.

>  <s_epik_cmdline>  (1) 
J2VwaWtfcHl0aG9uJywgJy1waHQnLCAnMS4wJywgJy1waCcsICc3LjQnLCAnLXRuJywgJzgnLCAnLW1hJywgJzUwMCcsICctaW1hZScsICc8aW5maWxlLm1hZT4nLCAnLW9tYWUnLCAnPG91dGZpbGUubWFlPic=

>  <s_epik_input>  (1) 
RltDQEhdMVNbQ0gyXVtDQEhdKFtDSDJdMSlbQ0gyXVtDQEBIXShbQ0gyXUMjTilOKFtDSDJdW0NIMl0yKVtDSDJdW0NIMl1bQ0gyXVtDQEBIXShbT0hdKVtDQEhdMltOSF1DKD1bQ0hdXFtDSDNdKVxbQ0gyXVtDQEhdKE8zKVtDQF0zNFtDQEhdKFtDSDJdW09IXSlONFtDSDNd

>  <s_glide_docking_method>  (1) 
confgen

>  <s_i_glide_gridfile>  (1) 
gpcr_5ht2c_6bqh_protein_autoprepared_prepared

>  <s_lp_Force_Field>  (1) 
S-OPLS

>  <s_lp_Variant>  (1) 
DiffSBDD_3_num_sample_50-2

>  <s_m_source_file>  (1) 
generated__ligand_DiffSBDD_2026-05-06_prepared.sdf

>  <GenAI_Model>  (1) 
DiffSBDD

>  <Protein>  (1) 
GPCR_5HT2C

$$$$
DiffSBDD_41_num_sample_50
     RDKit          3D

  0  0  0  0  0  0  0  0  0  0999 V3000
M  V30 BEGIN CTAB
M  V30 COUNTS 83 87 0 0 1
M  V30 BEGIN ATOM
M  V30 1 C 41.935908 32.221385 66.851634 0
M  V30 2 C 41.367445 31.729199 65.507398 0 CFG=1
M  V30 3 C 37.974433 31.811565 58.724211 0
M  V30 4 C 39.485156 36.346884 61.241834 0
M  V30 5 C 43.364852 30.206003 65.280549 0 CFG=1
M  V30 6 O 43.819590 28.897245 64.988751 0
M  V30 7 O 45.067933 30.289135 66.965217 0
M  V30 8 C 38.645141 28.034585 52.890703 0
M  V30 9 C 41.158318 34.065858 64.448687 0
M  V30 10 C 39.067407 30.717944 56.833559 0
M  V30 11 C 35.374381 32.257468 60.798838 0
M  V30 12 C 39.194088 32.572926 61.842718 0
M  V30 13 C 41.719129 32.704788 64.329316 0 CFG=2
M  V30 14 C 37.475172 29.585585 54.600056 0
M  V30 15 F 37.554998 28.021432 52.133582 0
M  V30 16 O 37.984738 30.711125 60.889141 0
M  V30 17 C 37.162315 32.972021 59.276452 0 CFG=2
M  V30 18 C 40.133439 31.579702 62.547393 0
M  V30 19 C 39.433151 29.641419 57.667172 0
M  V30 20 C 41.828949 30.277944 65.252119 0 CFG=1
M  V30 21 O 41.219704 29.419893 66.204933 0
M  V30 22 F 39.467325 28.981687 52.445177 0
M  V30 23 C 36.935286 35.322362 59.865743 0 CFG=1
M  V30 24 C 37.803550 31.961089 61.548134 0 CFG=2
M  V30 25 C 38.361933 30.843624 54.572177 0
M  V30 26 N 35.067411 31.229860 61.453488 0
M  V30 27 F 39.261085 26.857729 52.785385 0
M  V30 28 O 38.267398 37.069731 61.119128 0
M  V30 29 C 43.183567 31.733686 67.346657 0
M  V30 30 C 38.340458 30.726873 59.560579 0
M  V30 31 C 37.801767 34.342568 59.071891 0
M  V30 32 C 41.711871 33.621435 68.843980 0
M  V30 33 C 38.339623 31.802403 57.364241 0
M  V30 34 O 39.427812 30.705945 55.507862 0
M  V30 35 C 36.772627 32.839309 60.766146 0 CFG=2
M  V30 36 S 36.667393 34.518583 61.453089 0
M  V30 37 C 42.944639 33.147994 69.325829 0
M  V30 38 C 40.782038 35.224660 64.533684 0
M  V30 39 C 43.978165 30.717174 66.588332 0
M  V30 40 C 37.444665 36.775187 59.991518 0
M  V30 41 C 41.530896 32.138778 62.893903 0
M  V30 42 C 38.237289 28.268048 54.352849 0
M  V30 43 C 39.067307 29.645369 59.026412 0
M  V30 44 C 41.210260 33.164803 67.611515 0
M  V30 45 C 43.679769 32.208529 68.581472 0
M  V30 46 H 40.279783 31.708671 65.602441 0
M  V30 47 H 40.226815 36.965289 61.747351 0
M  V30 48 H 39.336039 35.466475 61.856152 0
M  V30 49 H 39.905949 36.021432 60.290138 0
M  V30 50 H 43.761922 30.841924 64.490285 0
M  V30 51 H 44.758229 28.883665 65.112664 0
M  V30 52 H 34.633565 32.801259 60.205194 0
M  V30 53 H 39.067354 33.431889 62.495810 0
M  V30 54 H 39.667993 32.924413 60.928424 0
M  V30 55 H 42.780613 32.902088 64.426162 0
M  V30 56 H 36.987808 29.542143 55.573408 0
M  V30 57 H 36.667720 29.676612 53.877335 0
M  V30 58 H 36.267182 32.999589 58.653508 0
M  V30 59 H 40.282231 30.726580 61.884498 0
M  V30 60 H 39.641591 31.172697 63.430526 0
M  V30 61 H 39.992171 28.811407 57.261836 0
M  V30 62 H 41.472363 29.912368 64.290949 0
M  V30 63 H 41.433634 29.719848 67.075258 0
M  V30 64 H 35.967637 35.360902 59.361972 0
M  V30 65 H 37.390199 31.733929 62.530925 0
M  V30 66 H 37.760453 31.733754 54.756048 0
M  V30 67 H 38.793028 30.993539 53.584272 0
M  V30 68 H 34.094426 30.973692 61.358310 0
M  V30 69 H 38.819717 34.328093 59.453354 0
M  V30 70 H 37.828009 34.583080 58.009539 0
M  V30 71 H 41.150637 34.343425 69.419720 0
M  V30 72 H 38.055081 32.626174 56.726603 0
M  V30 73 H 43.327545 33.505617 70.270768 0
M  V30 74 H 40.478104 36.245566 64.610594 0
M  V30 75 H 37.909245 37.109844 59.065097 0
M  V30 76 H 36.571999 37.417810 60.109789 0
M  V30 77 H 41.815848 32.889238 62.154118 0
M  V30 78 H 42.259552 31.343137 62.741184 0
M  V30 79 H 39.118342 28.213458 54.991961 0
M  V30 80 H 37.597948 27.440590 54.662497 0
M  V30 81 H 39.344666 28.817526 59.661649 0
M  V30 82 H 40.267394 33.539305 67.246634 0
M  V30 83 H 44.624808 31.845569 68.960727 0
M  V30 END ATOM
M  V30 BEGIN BOND
M  V30 1 1 2 1
M  V30 2 1 6 5
M  V30 3 1 13 2
M  V30 4 1 13 9
M  V30 5 1 15 8
M  V30 6 1 17 3
M  V30 7 1 18 12
M  V30 8 1 19 10
M  V30 9 1 20 2
M  V30 10 1 20 5
M  V30 11 1 21 20
M  V30 12 1 22 8
M  V30 13 1 24 12
M  V30 14 1 24 16
M  V30 15 1 25 14
M  V30 16 2 26 11
M  V30 17 1 27 8
M  V30 18 1 28 4
M  V30 19 1 29 1
M  V30 20 2 30 3
M  V30 21 1 30 16
M  V30 22 1 31 17
M  V30 23 1 31 23
M  V30 24 1 33 3
M  V30 25 2 33 10
M  V30 26 1 34 10
M  V30 27 1 34 25
M  V30 28 1 35 11 CFG=3
M  V30 29 1 35 17
M  V30 30 1 35 24
M  V30 31 1 36 23
M  V30 32 1 36 35
M  V30 33 2 37 32
M  V30 34 3 38 9
M  V30 35 1 39 5
M  V30 36 2 39 7
M  V30 37 1 39 29
M  V30 38 1 40 23
M  V30 39 1 40 28
M  V30 40 1 41 13
M  V30 41 1 41 18
M  V30 42 1 42 8
M  V30 43 1 42 14
M  V30 44 2 43 19
M  V30 45 1 43 30
M  V30 46 2 44 1
M  V30 47 1 44 32
M  V30 48 2 45 29
M  V30 49 1 45 37
M  V30 50 1 2 46 CFG=1
M  V30 51 1 47 4
M  V30 52 1 48 4
M  V30 53 1 49 4
M  V30 54 1 5 50 CFG=3
M  V30 55 1 51 6
M  V30 56 1 52 11
M  V30 57 1 53 12
M  V30 58 1 54 12
M  V30 59 1 13 55 CFG=1
M  V30 60 1 56 14
M  V30 61 1 57 14
M  V30 62 1 17 58 CFG=3
M  V30 63 1 59 18
M  V30 64 1 60 18
M  V30 65 1 61 19
M  V30 66 1 20 62 CFG=3
M  V30 67 1 63 21
M  V30 68 1 23 64 CFG=3
M  V30 69 1 24 65 CFG=1
M  V30 70 1 66 25
M  V30 71 1 67 25
M  V30 72 1 68 26
M  V30 73 1 69 31
M  V30 74 1 70 31
M  V30 75 1 71 32
M  V30 76 1 72 33
M  V30 77 1 73 37
M  V30 78 1 74 38
M  V30 79 1 75 40
M  V30 80 1 76 40
M  V30 81 1 77 41
M  V30 82 1 78 41
M  V30 83 1 79 42
M  V30 84 1 80 42
M  V30 85 1 81 43
M  V30 86 1 82 44
M  V30 87 1 83 45
M  V30 END BOND
M  V30 END CTAB
M  END
>  <i_epik_Tot_Q>  (1) 
0

>  <i_epik_Tot_abs_Q>  (1) 
0

>  <i_i_glide_confnum>  (1) 
2352

>  <i_i_glide_lignum>  (1) 
98

>  <i_i_glide_posenum>  (1) 
235

>  <i_i_glide_rotatable_bonds>  (1) 
16

>  <i_lp_mmshare_version>  (1) 
72125

>  <i_m_source_file_index>  (1) 
42

>  <i_f3d_flags>  (1) 
0

>  <num_sample>  (1) 
50

>  <b_lp_Chiralities_Consistent>  (1) 
1

>  <r_epik_Charging_Adjusted_Penalty>  (1) 
0.41067983895260396

>  <r_epik_Ionization_Penalty>  (1) 
0.0048607436090088536

>  <r_epik_Ionization_Penalty_Charging>  (1) 
0

>  <r_epik_Ionization_Penalty_Neutral>  (1) 
0.0048607436090088536

>  <r_epik_State_Penalty>  (1) 
0.41067983895260396

>  <r_glide_ring_energy>  (1) 
1.8793194922327006

>  <r_i_docking_score>  (1) 
-6.5104371779546204

>  <r_i_glide_ecoul>  (1) 
-2.6140505591151317

>  <r_i_glide_eff_state_penalty>  (1) 
0.41067983895260396

>  <r_i_glide_einternal>  (1) 
17.826395057191881

>  <r_i_glide_emodel>  (1) 
-57.520368527160983

>  <r_i_glide_emodel_strain>  (1) 
0.9202084672817108

>  <r_i_glide_energy>  (1) 
-48.218658237994589

>  <r_i_glide_erotb>  (1) 
0.41134081239429626

>  <r_i_glide_esite>  (1) 
-0.021439706278325293

>  <r_i_glide_evdw>  (1) 
-45.604607678879461

>  <r_i_glide_gscore>  (1) 
-6.9211170169072247

>  <r_i_glide_gscore_strain>  (1) 
0

>  <r_i_glide_hbond>  (1) 
-0.20260986919940333

>  <r_i_glide_ligand_efficiency>  (1) 
-0.14467638173232489

>  <r_i_glide_ligand_efficiency_ln>  (1) 
-1.3544610614559114

>  <r_i_glide_ligand_efficiency_sa>  (1) 
-0.51459845350155486

>  <r_i_glide_lipo>  (1) 
-3.7841058929533697

>  <r_i_glide_metal>  (1) 
-0

>  <r_i_glide_rewards>  (1) 
-0.65196439305918075

>  <r_lp_Energy>  (1) 
42.813420999999998

>  <r_lp_tautomer_probability>  (1) 
0.5

>  <s_epik_Chemistry_Notes>  (1) 
This compound has an imine and may undergo hydrolysis.

>  <s_epik_cmdline>  (1) 
J2VwaWtfcHl0aG9uJywgJy1waHQnLCAnMS4wJywgJy1waCcsICc3LjQnLCAnLXRuJywgJzgnLCAnLW1hJywgJzUwMCcsICctaW1hZScsICc8aW5maWxlLm1hZT4nLCAnLW9tYWUnLCAnPG91dGZpbGUubWFlPic=

>  <s_epik_input>  (1) 
W2NIXTFbY0hdW2NIXVtjSF1jKGMxMilDKD1PKVtDQEBIXShbT0hdKVtDQEBIXShbT0hdKVtDQEBIXTJbQ0BASF0oQyNbQ0hdKVtDSDJdW0NIMl1bQ0gyXVtDQEBIXTNPYyhjNFtDQEBIXShbQ0BAXTM1L1tDSF09Ti9bSF0pW0NIMl1bQ0BASF0oUzUpW0NIMl1PW0NIM10pW2NIXVtjSF1jKFtjSF00KU9bQ0gyXVtDSDJdW0NIMl1DKEYpKEYpRg==

>  <s_glide_docking_method>  (1) 
confgen

>  <s_i_glide_gridfile>  (1) 
gpcr_5ht2c_6bqh_protein_autoprepared_prepared

>  <s_lp_Force_Field>  (1) 
S-OPLS

>  <s_lp_Variant>  (1) 
DiffSBDD_41_num_sample_50-3

>  <s_m_source_file>  (1) 
generated__ligand_DiffSBDD_2026-05-06_prepared.sdf

>  <GenAI_Model>  (1) 
DiffSBDD

>  <Protein>  (1) 
GPCR_5HT2C

$$$$
DiffSBDD_6_num_sample_50
     RDKit          3D

  0  0  0  0  0  0  0  0  0  0999 V3000
M  V30 BEGIN CTAB
M  V30 COUNTS 65 68 0 0 1
M  V30 BEGIN ATOM
M  V30 1 N 40.374230 32.789552 62.738351 0
M  V30 2 N 40.252151 30.141303 62.236218 0
M  V30 3 C 40.456565 28.912474 61.930518 0
M  V30 4 C 40.667316 36.407298 63.855850 0
M  V30 5 C 38.281681 27.709254 52.946173 0
M  V30 6 N 39.467349 29.779200 58.839348 0
M  V30 7 N 39.914703 28.423027 60.804855 0
M  V30 8 N 37.170395 30.421417 58.209488 0
M  V30 9 C 39.064282 34.180071 61.227399 0
M  V30 10 C 39.867390 29.844183 52.009101 0
M  V30 11 N 39.202636 31.714782 60.839113 0 CHG=1
M  V30 12 O 37.463799 29.060874 54.757680 0
M  V30 13 C 40.266411 28.781248 56.918299 0
M  V30 14 C 42.984374 26.643712 58.559129 0
M  V30 15 F 40.629370 30.865871 51.553723 0
M  V30 16 C 39.068968 29.352474 60.158472 0 CFG=1
M  V30 17 C 38.267731 28.938687 53.636830 0
M  V30 18 C 41.617121 33.704926 64.618279 0
M  V30 19 C 41.659947 26.982086 57.889468 0
M  V30 20 F 37.525016 26.677627 53.390640 0
M  V30 21 C 39.076871 27.549680 51.796485 0
M  V30 22 C 38.489217 31.977411 59.540561 0
M  V30 23 C 40.709562 33.905622 63.416852 0
M  V30 24 C 39.867391 28.614070 51.329804 0
M  V30 25 C 39.418876 35.328113 61.946386 0
M  V30 26 C 41.651361 28.421389 57.444661 0
M  V30 27 C 38.544581 30.864756 58.447451 0 CFG=1
M  V30 28 C 40.258678 35.193273 63.057945 0
M  V30 29 O 39.308237 28.658366 57.958996 0
M  V30 30 F 39.065271 31.216417 53.790318 0
M  V30 31 C 36.941893 29.621427 57.011018 0
M  V30 32 C 39.069502 30.018257 53.160001 0
M  V30 33 C 39.504740 30.459743 61.117871 0
M  V30 34 C 37.488087 30.156034 55.663672 0
M  V30 35 C 39.570969 32.918621 61.651782 0
M  V30 36 H 41.052947 28.221838 62.529024 0
M  V30 37 H 39.975789 27.475967 60.462365 0
M  V30 38 H 40.339423 37.327286 63.370191 0
M  V30 39 H 41.752840 36.421422 63.938840 0
M  V30 40 H 40.237246 36.382443 64.857347 0
M  V30 41 H 36.555159 31.221418 58.024893 0
M  V30 42 H 38.419903 34.269840 60.370870 0
M  V30 43 H 39.984001 28.097722 56.116186 0
M  V30 44 H 40.267406 29.775259 56.480318 0
M  V30 45 H 43.067506 25.608123 58.872567 0
M  V30 46 H 43.002038 27.221394 59.453497 0
M  V30 47 H 43.847611 26.897138 57.942558 0
M  V30 48 H 42.595866 34.151058 64.439616 0
M  V30 49 H 41.764133 32.643766 64.823226 0
M  V30 50 H 41.184195 34.156800 65.510037 0
M  V30 51 H 41.467419 26.421422 56.984972 0
M  V30 52 H 40.839658 26.778143 58.576501 0
M  V30 53 H 39.080570 26.605922 51.271012 0
M  V30 54 H 38.999117 32.824109 59.082369 0
M  V30 55 H 37.470442 32.285729 59.780414 0
M  V30 56 H 40.475455 28.486876 50.447774 0
M  V30 57 H 39.052943 36.298898 61.646284 0
M  V30 58 H 41.957359 29.082503 58.255668 0
M  V30 59 H 42.395786 28.510499 56.653597 0
M  V30 60 H 38.938409 31.349980 57.558268 0
M  V30 61 H 37.219408 28.583065 57.175147 0
M  V30 62 H 35.867413 29.621434 56.930778 0
M  V30 63 H 38.490953 30.524902 55.782403 0
M  V30 64 H 36.877664 30.974230 55.282092 0
M  V30 65 H 38.013631 29.097255 60.253534 0
M  V30 END ATOM
M  V30 BEGIN BOND
M  V30 1 2 3 2
M  V30 2 1 7 3
M  V30 3 1 15 10
M  V30 4 1 16 6
M  V30 5 1 16 7
M  V30 6 2 17 5
M  V30 7 1 17 12
M  V30 8 1 19 14
M  V30 9 1 20 5
M  V30 10 1 21 5
M  V30 11 1 22 11
M  V30 12 1 23 1
M  V30 13 1 23 18
M  V30 14 1 24 10
M  V30 15 2 24 21
M  V30 16 2 25 9
M  V30 17 1 26 13
M  V30 18 1 26 19
M  V30 19 1 27 6
M  V30 20 1 27 8
M  V30 21 1 27 22
M  V30 22 1 28 4
M  V30 23 2 28 23
M  V30 24 1 28 25
M  V30 25 1 29 6
M  V30 26 1 29 13
M  V30 27 1 31 8
M  V30 28 2 32 10
M  V30 29 1 32 17
M  V30 30 1 32 30
M  V30 31 1 33 2
M  V30 32 2 33 11
M  V30 33 1 33 16
M  V30 34 1 34 12
M  V30 35 1 34 31
M  V30 36 2 35 1
M  V30 37 1 35 9
M  V30 38 1 35 11
M  V30 39 1 36 3
M  V30 40 1 37 7
M  V30 41 1 38 4
M  V30 42 1 39 4
M  V30 43 1 40 4
M  V30 44 1 41 8
M  V30 45 1 42 9
M  V30 46 1 43 13
M  V30 47 1 44 13
M  V30 48 1 45 14
M  V30 49 1 46 14
M  V30 50 1 47 14
M  V30 51 1 48 18
M  V30 52 1 49 18
M  V30 53 1 50 18
M  V30 54 1 51 19
M  V30 55 1 52 19
M  V30 56 1 53 21
M  V30 57 1 54 22
M  V30 58 1 55 22
M  V30 59 1 56 24
M  V30 60 1 57 25
M  V30 61 1 58 26
M  V30 62 1 59 26
M  V30 63 1 27 60 CFG=3
M  V30 64 1 61 31
M  V30 65 1 62 31
M  V30 66 1 63 34
M  V30 67 1 64 34
M  V30 68 1 16 65 CFG=3
M  V30 END BOND
M  V30 END CTAB
M  END
>  <i_epik_Tot_Q>  (1) 
1

>  <i_epik_Tot_abs_Q>  (1) 
1

>  <i_i_glide_confnum>  (1) 
310

>  <i_i_glide_lignum>  (1) 
21

>  <i_i_glide_posenum>  (1) 
46

>  <i_i_glide_rotatable_bonds>  (1) 
10

>  <i_lp_mmshare_version>  (1) 
72125

>  <i_m_source_file_index>  (1) 
7

>  <i_f3d_flags>  (1) 
0

>  <num_sample>  (1) 
50

>  <b_lp_Chiralities_Consistent>  (1) 
1

>  <r_epik_Charging_Adjusted_Penalty>  (1) 
0.81638474559902796

>  <r_epik_Ionization_Penalty>  (1) 
6.3086919552564762

>  <r_epik_Ionization_Penalty_Charging>  (1) 
0

>  <r_epik_Ionization_Penalty_Neutral>  (1) 
6.3086919552564762

>  <r_epik_State_Penalty>  (1) 
0.81638474559902796

>  <r_glide_ring_energy>  (1) 
0

>  <r_i_docking_score>  (1) 
-6.5092880968784081

>  <r_i_glide_ecoul>  (1) 
-5.5547090611231473

>  <r_i_glide_eff_state_penalty>  (1) 
0.81638474559902796

>  <r_i_glide_einternal>  (1) 
12.212048267725137

>  <r_i_glide_emodel>  (1) 
-54.082577485287295

>  <r_i_glide_emodel_strain>  (1) 
1.6297384246873747

>  <r_i_glide_energy>  (1) 
-40.593445221463782

>  <r_i_glide_erotb>  (1) 
0.67408029721787976

>  <r_i_glide_esite>  (1) 
-0.041927186561242259

>  <r_i_glide_evdw>  (1) 
-35.038736160340633

>  <r_i_glide_gscore>  (1) 
-7.3256728424774362

>  <r_i_glide_gscore_strain>  (1) 
0

>  <r_i_glide_hbond>  (1) 
-0.13820079697306548

>  <r_i_glide_ligand_efficiency>  (1) 
-0.18597965991081167

>  <r_i_glide_ligand_efficiency_ln>  (1) 
-1.428933203130506

>  <r_i_glide_ligand_efficiency_sa>  (1) 
-0.60835179991458754

>  <r_i_glide_lipo>  (1) 
-3.1838839287850882

>  <r_i_glide_metal>  (1) 
-0

>  <r_i_glide_rewards>  (1) 
-2.0505980601904161

>  <r_lp_Energy>  (1) 
46.442794999999997

>  <r_lp_tautomer_probability>  (1) 
0.23620936778007409

>  <s_epik_Chemistry_Notes>  (1) 
This compound has an imine and may undergo hydrolysis. This compound contains an acetal/aminal-like group ( X-CH(R)-Y where X, Y are N, S, or O) that may be acid/base labile, releasing an aldehyde. This compound has a N-S or N-O group and may undergo hydrolysis at high or low pH.

>  <s_epik_cmdline>  (1) 
J2VwaWtfcHl0aG9uJywgJy1waHQnLCAnMS4wJywgJy1waCcsICc3LjQnLCAnLXRuJywgJzgnLCAnLW1hJywgJzUwMCcsICctaW1hZScsICc8aW5maWxlLm1hZT4nLCAnLW9tYWUnLCAnPG91dGZpbGUubWFlPic=

>  <s_epik_input>  (1) 
W0NIM11jMVtjSF1bY0hdYyhuYzFbQ0gzXSlOKEMoQzIzKT1OW0NIMl1OPTMpW0NIMl1bQ0BASF0oTjJPW0NIMl1bQ0gyXVtDSDJdW0NIM10pW05IXVtDSDJdW0NIMl1PYyhjNEYpYyhGKWMoRilbY0hdW2NIXTQ=

>  <s_glide_docking_method>  (1) 
confgen

>  <s_i_glide_gridfile>  (1) 
gpcr_5ht2c_6bqh_protein_autoprepared_prepared

>  <s_lp_Force_Field>  (1) 
S-OPLS

>  <s_lp_Variant>  (1) 
DiffSBDD_6_num_sample_50-2

>  <s_m_source_file>  (1) 
generated__ligand_DiffSBDD_2026-05-06_prepared.sdf

>  <GenAI_Model>  (1) 
DiffSBDD

>  <Protein>  (1) 
GPCR_5HT2C

$$$$
DiffSBDD_10_num_sample_50
     RDKit          3D

  0  0  0  0  0  0  0  0  0  0999 V3000
M  V30 BEGIN CTAB
M  V30 COUNTS 65 67 0 0 1
M  V30 BEGIN ATOM
M  V30 1 C 38.462609 25.526600 57.981746 0
M  V30 2 C 37.273964 26.134063 57.219048 0
M  V30 3 C 39.493790 29.221553 51.891630 0
M  V30 4 N 38.782340 27.069214 55.548559 0 CFG=2 CHG=1
M  V30 5 O 41.321561 29.764751 62.456510 0 CHG=-1
M  V30 6 O 42.098113 27.631734 58.449497 0
M  V30 7 C 37.710636 34.446298 60.818351 0
M  V30 8 C 39.308261 29.919898 53.109223 0
M  V30 9 C 37.338133 31.682973 60.398979 0
M  V30 10 O 38.882584 30.421242 63.053406 0
M  V30 11 N 40.082438 34.092999 61.141534 0
M  V30 12 C 39.067397 29.202696 54.298184 0
M  V30 13 C 39.621310 29.873715 59.876794 0
M  V30 14 C 38.817378 33.575818 60.872439 0
M  V30 15 C 37.568540 26.214147 55.706004 0 CFG=1
M  V30 16 C 36.622135 23.773402 55.412955 0
M  V30 17 C 39.019202 27.808325 54.259216 0
M  V30 18 O 40.772139 32.171118 63.098145 0
M  V30 19 C 40.001786 26.526344 56.189790 0
M  V30 20 N 39.838514 27.538742 58.459029 0
M  V30 21 C 37.670023 24.825235 55.012722 0
M  V30 22 P 40.374819 30.902264 62.452344 0
M  V30 23 C 34.866480 32.021166 60.076109 0
M  V30 24 C 36.427028 33.940142 60.558425 0
M  V30 25 C 41.013628 28.104161 58.779274 0
M  V30 26 N 40.897043 29.235281 59.502761 0
M  V30 27 C 39.440857 27.808474 51.869979 0
M  V30 28 O 38.891254 29.858039 55.480975 0 CHG=-1
M  V30 29 F 39.727424 29.906705 50.747393 0
M  V30 30 C 39.205632 27.097295 53.064545 0
M  V30 31 C 38.634130 32.178449 60.655485 0
M  V30 32 C 39.768822 26.286476 57.699194 0 CFG=1
M  V30 33 C 39.837393 31.213242 60.676247 0 CFG=2
M  V30 34 C 36.241224 32.561521 60.350797 0
M  V30 35 H 38.591731 24.485319 57.683201 0
M  V30 36 H 38.267290 25.508835 59.052313 0
M  V30 37 H 36.360685 25.575926 57.423250 0
M  V30 38 H 37.086437 27.139250 57.598542 0
M  V30 39 H 37.846871 35.505887 60.979024 0
M  V30 40 H 39.352258 30.999041 53.125968 0
M  V30 41 H 37.183303 30.628939 60.234658 0
M  V30 42 H 39.020005 29.621439 63.543718 0
M  V30 43 H 40.144515 35.033987 61.497291 0
M  V30 44 H 40.782283 33.463656 61.521408 0
M  V30 45 H 38.998129 29.186863 60.451561 0
M  V30 46 H 39.095976 30.099666 58.945848 0
M  V30 47 H 36.748851 26.740164 55.220785 0
M  V30 48 H 36.769834 22.858769 54.839014 0
M  V30 49 H 36.690246 23.500674 56.465510 0
M  V30 50 H 35.605657 24.102040 55.211828 0
M  V30 51 H 40.819356 27.232930 56.041115 0
M  V30 52 H 40.321941 25.610972 55.697550 0
M  V30 53 H 38.978429 27.973219 58.756724 0
M  V30 54 H 37.548829 24.975208 53.943109 0
M  V30 55 H 38.650977 24.378029 55.155337 0
M  V30 56 H 34.110878 32.808155 60.107774 0
M  V30 57 H 34.829063 31.534449 59.100929 0
M  V30 58 H 34.667579 31.281920 60.848991 0
M  V30 59 H 35.581812 34.610965 60.519138 0
M  V30 60 H 41.744542 29.698966 59.791039 0
M  V30 61 H 39.586781 27.275193 50.941525 0
M  V30 62 H 39.177772 26.026154 53.058229 0
M  V30 63 H 40.578446 25.647766 58.060133 0
M  V30 64 H 40.656980 31.772018 60.253876 0
M  V30 65 H 38.569738 27.844964 56.167216 0
M  V30 END ATOM
M  V30 BEGIN BOND
M  V30 1 1 2 1
M  V30 2 2 8 3
M  V30 3 1 12 8
M  V30 4 1 14 7
M  V30 5 1 14 11
M  V30 6 1 15 2
M  V30 7 1 15 4
M  V30 8 1 17 4
M  V30 9 2 17 12
M  V30 10 1 19 4
M  V30 11 1 21 15
M  V30 12 1 21 16
M  V30 13 1 22 5
M  V30 14 1 22 10
M  V30 15 2 22 18
M  V30 16 2 24 7
M  V30 17 2 25 6
M  V30 18 1 25 20
M  V30 19 1 26 13
M  V30 20 1 26 25
M  V30 21 1 27 3
M  V30 22 1 28 12
M  V30 23 1 29 3
M  V30 24 1 30 17
M  V30 25 2 30 27
M  V30 26 1 31 9
M  V30 27 2 31 14
M  V30 28 1 32 1
M  V30 29 1 32 19
M  V30 30 1 32 20
M  V30 31 1 33 13
M  V30 32 1 33 22
M  V30 33 1 33 31
M  V30 34 2 34 9
M  V30 35 1 34 23
M  V30 36 1 34 24
M  V30 37 1 35 1
M  V30 38 1 36 1
M  V30 39 1 37 2
M  V30 40 1 38 2
M  V30 41 1 39 7
M  V30 42 1 40 8
M  V30 43 1 41 9
M  V30 44 1 42 10
M  V30 45 1 43 11
M  V30 46 1 44 11
M  V30 47 1 45 13
M  V30 48 1 46 13
M  V30 49 1 15 47 CFG=3
M  V30 50 1 48 16
M  V30 51 1 49 16
M  V30 52 1 50 16
M  V30 53 1 51 19
M  V30 54 1 52 19
M  V30 55 1 53 20
M  V30 56 1 54 21
M  V30 57 1 55 21
M  V30 58 1 56 23
M  V30 59 1 57 23
M  V30 60 1 58 23
M  V30 61 1 59 24
M  V30 62 1 60 26
M  V30 63 1 61 27
M  V30 64 1 62 30
M  V30 65 1 32 63 CFG=1
M  V30 66 1 33 64 CFG=3
M  V30 67 1 4 65 CFG=1
M  V30 END BOND
M  V30 END CTAB
M  END
>  <i_epik_Tot_Q>  (1) 
-1

>  <i_epik_Tot_abs_Q>  (1) 
3

>  <i_i_glide_confnum>  (1) 
122

>  <i_i_glide_lignum>  (1) 
37

>  <i_i_glide_posenum>  (1) 
53

>  <i_i_glide_rotatable_bonds>  (1) 
10

>  <i_lp_mmshare_version>  (1) 
72125

>  <i_m_source_file_index>  (1) 
11

>  <i_f3d_flags>  (1) 
0

>  <num_sample>  (1) 
50

>  <b_lp_Chiralities_Consistent>  (1) 
1

>  <r_epik_Charging_Adjusted_Penalty>  (1) 
0.95893062563682818

>  <r_epik_Ionization_Penalty>  (1) 
0.45630296270815951

>  <r_epik_Ionization_Penalty_Charging>  (1) 
0.042165092744118775

>  <r_epik_Ionization_Penalty_Neutral>  (1) 
0.41413786996404073

>  <r_epik_State_Penalty>  (1) 
0.91676553289270946

>  <r_glide_ring_energy>  (1) 
0

>  <r_i_docking_score>  (1) 
-6.4905884013096076

>  <r_i_glide_ecoul>  (1) 
-3.0609582372877107

>  <r_i_glide_eff_state_penalty>  (1) 
0.91676553289270946

>  <r_i_glide_einternal>  (1) 
17.238053870396815

>  <r_i_glide_emodel>  (1) 
-57.152670378838565

>  <r_i_glide_emodel_strain>  (1) 
1.6879327305612435

>  <r_i_glide_energy>  (1) 
-47.226058388603334

>  <r_i_glide_erotb>  (1) 
0.66918926381983879

>  <r_i_glide_esite>  (1) 
0

>  <r_i_glide_evdw>  (1) 
-44.16510015131562

>  <r_i_glide_gscore>  (1) 
-7.4073539342023169

>  <r_i_glide_gscore_strain>  (1) 
0

>  <r_i_glide_hbond>  (1) 
-0.42862660593511953

>  <r_i_glide_ligand_efficiency>  (1) 
-0.19089965886204729

>  <r_i_glide_ligand_efficiency_ln>  (1) 
-1.4339530326873406

>  <r_i_glide_ligand_efficiency_sa>  (1) 
-0.61844078770933419

>  <r_i_glide_lipo>  (1) 
-4.1909266140973394

>  <r_i_glide_metal>  (1) 
-0

>  <r_i_glide_rewards>  (1) 
-0.78959123483075966

>  <r_lp_Energy>  (1) 
25.832879999999999

>  <s_epik_cmdline>  (1) 
J2VwaWtfcHl0aG9uJywgJy1waHQnLCAnMS4wJywgJy1waCcsICc3LjQnLCAnLXRuJywgJzgnLCAnLW1hJywgJzUwMCcsICctaW1hZScsICc8aW5maWxlLm1hZT4nLCAnLW9tYWUnLCAnPG91dGZpbGUubWFlPic=

>  <s_epik_input>  (1) 
RmMxW2NIXWMoW09IXSljKFtjSF1bY0hdMSlOMltDQEBIXShbQ0gyXVtDSDNdKVtDSDJdW0NIMl1bQ0BASF0oW0NIMl0yKVtOSF1DKD1PKVtOSF1bQ0gyXVtDQEhdKFAoPU8pKFtPSF0pW09IXSljM1tjSF1jKFtDSDNdKVtjSF1bY0hdYzNbTkgyXQ==

>  <s_glide_docking_method>  (1) 
confgen

>  <s_i_glide_gridfile>  (1) 
gpcr_5ht2c_6bqh_protein_autoprepared_prepared

>  <s_lp_Force_Field>  (1) 
S-OPLS

>  <s_lp_Variant>  (1) 
DiffSBDD_10_num_sample_50-6

>  <s_m_source_file>  (1) 
generated__ligand_DiffSBDD_2026-05-06_prepared.sdf

>  <GenAI_Model>  (1) 
DiffSBDD

>  <Protein>  (1) 
GPCR_5HT2C

$$$$
DiffSBDD_42_num_sample_50
     RDKit          3D

  0  0  0  0  0  0  0  0  0  0999 V3000
M  V30 BEGIN CTAB
M  V30 COUNTS 35 37 0 0 1
M  V30 BEGIN ATOM
M  V30 1 C 38.163036 29.178960 58.723345 0
M  V30 2 F 40.442207 29.314454 50.087843 0
M  V30 3 C 40.056370 30.427396 52.209130 0
M  V30 4 O 39.543488 26.032019 58.253508 0 CHG=-1
M  V30 5 C 39.336613 25.721934 57.059290 0
M  V30 6 C 39.036879 28.228881 51.718262 0
M  V30 7 O 38.629499 24.770298 56.662008 0
M  V30 8 C 38.468031 28.307545 52.984908 0
M  V30 9 C 38.379851 29.660219 57.306093 0 CFG=1
M  V30 10 C 39.430703 30.410291 53.495279 0
M  V30 11 O 37.068321 29.477419 57.847093 0
M  V30 12 S 37.467639 27.219572 53.735917 0
M  V30 13 C 40.020192 26.577271 55.986070 0
M  V30 14 C 37.867447 28.965309 54.997756 0 CFG=1
M  V30 15 C 39.858120 29.317825 51.309169 0
M  V30 16 C 38.752501 31.088906 56.907990 0
M  V30 17 N 38.551997 28.636826 56.274592 0
M  V30 18 C 39.919396 28.102472 56.234789 0
M  V30 19 C 38.496424 32.144617 57.992850 0
M  V30 20 F 38.817369 27.166013 50.907983 0
M  V30 21 C 38.646343 29.295501 53.796976 0
M  V30 22 H 38.267268 28.122560 58.954905 0
M  V30 23 H 38.265727 29.866281 59.559048 0
M  V30 24 H 40.672310 31.263297 51.914297 0
M  V30 25 H 39.556203 31.222556 54.194332 0
M  V30 26 H 39.657973 26.298271 55.000917 0
M  V30 27 H 41.067421 26.292215 55.992122 0
M  V30 28 H 36.964600 29.560814 55.143466 0
M  V30 29 H 39.800671 31.110556 56.613207 0
M  V30 30 H 38.166958 31.380521 56.036758 0
M  V30 31 H 40.519115 28.650930 55.509527 0
M  V30 32 H 40.394272 28.297050 57.197795 0
M  V30 33 H 38.769349 33.137836 57.635969 0
M  V30 34 H 37.439980 32.173114 58.261287 0
M  V30 35 H 39.067374 31.949740 58.898969 0
M  V30 END ATOM
M  V30 BEGIN BOND
M  V30 1 1 5 4
M  V30 2 2 7 5
M  V30 3 1 8 6
M  V30 4 1 9 1
M  V30 5 2 10 3
M  V30 6 1 11 1
M  V30 7 1 11 9
M  V30 8 1 12 8
M  V30 9 1 13 5
M  V30 10 1 14 12
M  V30 11 1 15 2
M  V30 12 1 15 3
M  V30 13 2 15 6
M  V30 14 1 16 9
M  V30 15 1 9 17 CFG=3
M  V30 16 1 17 14
M  V30 17 1 18 13
M  V30 18 1 18 17
M  V30 19 1 19 16
M  V30 20 1 20 6
M  V30 21 2 21 8
M  V30 22 1 21 10
M  V30 23 1 21 14
M  V30 24 1 22 1
M  V30 25 1 23 1
M  V30 26 1 24 3
M  V30 27 1 25 10
M  V30 28 1 26 13
M  V30 29 1 27 13
M  V30 30 1 14 28 CFG=1
M  V30 31 1 29 16
M  V30 32 1 30 16
M  V30 33 1 31 18
M  V30 34 1 32 18
M  V30 35 1 33 19
M  V30 36 1 34 19
M  V30 37 1 35 19
M  V30 END BOND
M  V30 END CTAB
M  END
>  <i_epik_Tot_Q>  (1) 
-1

>  <i_epik_Tot_abs_Q>  (1) 
1

>  <i_i_glide_confnum>  (1) 
46

>  <i_i_glide_lignum>  (1) 
100

>  <i_i_glide_posenum>  (1) 
62

>  <i_i_glide_rotatable_bonds>  (1) 
6

>  <i_lp_mmshare_version>  (1) 
72125

>  <i_m_source_file_index>  (1) 
43

>  <i_f3d_flags>  (1) 
0

>  <num_sample>  (1) 
50

>  <b_lp_Chiralities_Consistent>  (1) 
1

>  <r_epik_Charging_Adjusted_Penalty>  (1) 
0.013340690829019033

>  <r_epik_Ionization_Penalty>  (1) 
0.013340690850919951

>  <r_epik_Ionization_Penalty_Charging>  (1) 
0.00047956300676926659

>  <r_epik_Ionization_Penalty_Neutral>  (1) 
0.012861127844150685

>  <r_epik_State_Penalty>  (1) 
0.012861127822249767

>  <r_glide_ring_energy>  (1) 
0

>  <r_i_docking_score>  (1) 
-6.4875733788003727

>  <r_i_glide_ecoul>  (1) 
0.35156226494922704

>  <r_i_glide_eff_state_penalty>  (1) 
0.012861127822249767

>  <r_i_glide_einternal>  (1) 
11.794557931767818

>  <r_i_glide_emodel>  (1) 
-40.985328259588663

>  <r_i_glide_emodel_strain>  (1) 
0.1243336693672461

>  <r_i_glide_energy>  (1) 
-32.530714780081198

>  <r_i_glide_erotb>  (1) 
0.75246386740588744

>  <r_i_glide_esite>  (1) 
-0.027232646852970416

>  <r_i_glide_evdw>  (1) 
-32.882277045030428

>  <r_i_glide_gscore>  (1) 
-6.5004345066226223

>  <r_i_glide_gscore_strain>  (1) 
0

>  <r_i_glide_hbond>  (1) 
0

>  <r_i_glide_ligand_efficiency>  (1) 
-0.30893206565716058

>  <r_i_glide_ligand_efficiency_ln>  (1) 
-1.6040394085320224

>  <r_i_glide_ligand_efficiency_sa>  (1) 
-0.85232014480090024

>  <r_i_glide_lipo>  (1) 
-2.7104280689639109

>  <r_i_glide_metal>  (1) 
-0

>  <r_i_glide_rewards>  (1) 
-2.923858145702491

>  <r_lp_Energy>  (1) 
21.586687999999999

>  <s_epik_Chemistry_Notes>  (1) 
This compound contains an acetal/aminal-like group ( X-CH(R)-Y where X, Y are N, S, or O) that may be acid/base labile, releasing an aldehyde.

>  <s_epik_cmdline>  (1) 
J2VwaWtfcHl0aG9uJywgJy1waHQnLCAnMS4wJywgJy1waCcsICc3LjQnLCAnLXRuJywgJzgnLCAnLW1hJywgJzUwMCcsICctaW1hZScsICc8aW5maWxlLm1hZT4nLCAnLW9tYWUnLCAnPG91dGZpbGUubWFlPic=

>  <s_epik_input>  (1) 
W09IXUMoPU8pW0NIMl1bQ0gyXU4oW0NAQF0xKFtDSDJdTzEpW0NIMl1bQ0gzXSlbQ0BIXShTMiljKGMyMylbY0hdW2NIXWMoRiljM0Y=

>  <s_glide_docking_method>  (1) 
confgen

>  <s_i_glide_gridfile>  (1) 
gpcr_5ht2c_6bqh_protein_autoprepared_prepared

>  <s_lp_Force_Field>  (1) 
S-OPLS

>  <s_lp_Variant>  (1) 
DiffSBDD_42_num_sample_50-1

>  <s_m_source_file>  (1) 
generated__ligand_DiffSBDD_2026-05-06_prepared.sdf

>  <GenAI_Model>  (1) 
DiffSBDD

>  <Protein>  (1) 
GPCR_5HT2C

$$$$
DiffSBDD_5_num_sample_50
     RDKit          3D

  0  0  0  0  0  0  0  0  0  0999 V3000
M  V30 BEGIN CTAB
M  V30 COUNTS 80 82 0 0 1
M  V30 BEGIN ATOM
M  V30 1 C 38.533276 30.453170 58.881207 0
M  V30 2 C 39.579903 28.150798 58.242728 0 CFG=2
M  V30 3 N 41.811902 34.890955 64.666303 0
M  V30 4 F 39.467394 27.221538 50.653464 0
M  V30 5 C 38.103411 32.651039 61.534277 0
M  V30 6 N 38.667671 30.616883 60.162844 0 CHG=1
M  V30 7 C 39.596866 34.791860 61.533208 0 CFG=1
M  V30 8 C 38.857289 28.913462 52.120603 0 CFG=2
M  V30 9 C 38.447137 25.922127 57.815412 0
M  V30 10 C 37.583752 31.416772 60.774035 0 CFG=2
M  V30 11 N 37.467411 31.038742 58.428829 0
M  V30 12 C 39.636424 25.151223 57.207398 0
M  V30 13 C 38.219808 29.237196 55.867809 0 CFG=2
M  V30 14 C 37.108210 25.282422 57.414360 0
M  V30 15 N 37.067402 28.830720 53.782942 0 CHG=1
M  V30 16 C 41.271910 35.424789 63.414660 0
M  V30 17 C 39.703881 27.829334 59.735277 0
M  V30 18 C 36.677745 31.733023 59.463999 0
M  V30 19 C 39.513938 29.685045 58.016472 0 CFG=1
M  V30 20 C 37.640109 28.128654 52.629045 0
M  V30 21 O 40.267416 35.850577 66.015247 0
M  V30 22 C 39.949199 27.976190 51.631926 0
M  V30 23 C 41.873536 34.419068 67.053808 0
M  V30 24 C 41.247353 35.123558 65.861469 0
M  V30 25 S 39.442039 29.963909 53.469970 0
M  V30 26 C 39.342923 30.046435 56.534916 0
M  V30 27 C 38.480461 27.730295 56.089944 0
M  V30 28 C 37.978841 36.549402 61.285015 0
M  V30 29 O 38.556206 35.561579 62.123951 0
M  V30 30 O 41.467422 33.395475 62.158866 0
M  V30 31 N 38.485563 27.400572 57.544452 0 CFG=2 CHG=1
M  V30 32 C 40.509210 34.299271 62.683054 0 CFG=2
M  V30 33 N 38.083970 29.620589 54.458982 0
M  V30 34 C 38.970987 33.633332 60.708165 0
M  V30 35 H 40.514168 27.822169 57.783349 0
M  V30 36 H 42.623195 34.294581 64.615070 0
M  V30 37 H 38.657647 32.284934 62.396673 0
M  V30 38 H 37.249227 33.194539 61.939588 0
M  V30 39 H 40.193380 35.420553 60.867636 0
M  V30 40 H 38.571679 29.567388 51.297813 0
M  V30 41 H 38.478692 25.766997 58.891445 0
M  V30 42 H 37.023076 30.776285 61.453586 0
M  V30 43 H 37.190167 31.053843 57.453271 0
M  V30 44 H 39.575067 24.090671 57.453500 0
M  V30 45 H 39.664203 25.213209 56.119932 0
M  V30 46 H 40.589646 25.512569 57.592231 0
M  V30 47 H 37.269925 29.487494 56.340316 0
M  V30 48 H 37.065800 24.255400 57.780281 0
M  V30 49 H 36.267408 25.819218 57.853259 0
M  V30 50 H 36.959615 25.233858 56.336384 0
M  V30 51 H 36.660449 28.190824 54.448052 0
M  V30 52 H 42.080527 35.820988 62.800605 0
M  V30 53 H 40.607863 36.270916 63.601496 0
M  V30 54 H 40.434537 28.471412 60.228176 0
M  V30 55 H 38.751542 27.915532 60.259352 0
M  V30 56 H 40.071030 26.821450 59.853492 0
M  V30 57 H 35.678546 31.302766 59.539193 0
M  V30 58 H 36.590185 32.796433 59.241189 0
M  V30 59 H 40.500563 30.021427 58.308604 0
M  V30 60 H 36.888808 28.021442 51.853512 0
M  V30 61 H 37.926155 27.126729 52.951859 0
M  V30 62 H 40.816815 28.516150 51.251521 0
M  V30 63 H 40.267398 27.294939 52.420369 0
M  V30 64 H 42.956502 34.530646 67.053511 0
M  V30 65 H 41.467415 34.814891 67.985131 0
M  V30 66 H 41.644282 33.354191 67.020432 0
M  V30 67 H 39.200029 31.120650 56.408252 0
M  V30 68 H 40.274428 29.808020 56.035494 0
M  V30 69 H 37.714249 27.139646 55.594808 0
M  V30 70 H 39.430501 27.449343 55.632516 0
M  V30 71 H 37.143703 37.018943 61.804706 0
M  V30 72 H 38.701735 37.330857 61.053501 0
M  V30 73 H 37.596317 36.131999 60.353812 0
M  V30 74 H 41.969938 33.051979 62.881429 0
M  V30 75 H 39.897568 33.769461 63.413797 0
M  V30 76 H 38.378475 34.048664 59.894411 0
M  V30 77 H 39.773034 33.083586 60.216350 0
M  V30 78 H 36.372797 29.495947 53.472610 0
M  V30 79 H 39.435636 30.245153 60.705144 0
M  V30 80 H 37.621734 27.758959 57.926348 0
M  V30 END ATOM
M  V30 BEGIN BOND
M  V30 1 2 6 1
M  V30 2 1 10 5
M  V30 3 1 10 6
M  V30 4 1 11 1
M  V30 5 1 12 9
M  V30 6 1 14 9
M  V30 7 1 16 3
M  V30 8 1 17 2
M  V30 9 1 18 10
M  V30 10 1 18 11
M  V30 11 1 19 1
M  V30 12 1 19 2
M  V30 13 1 20 8
M  V30 14 1 20 15
M  V30 15 1 22 4
M  V30 16 1 22 8
M  V30 17 1 24 3
M  V30 18 2 24 21
M  V30 19 1 24 23
M  V30 20 1 25 8
M  V30 21 1 26 13
M  V30 22 1 26 19
M  V30 23 1 27 13
M  V30 24 1 29 7
M  V30 25 1 29 28
M  V30 26 1 31 2
M  V30 27 1 31 9
M  V30 28 1 31 27
M  V30 29 1 32 7
M  V30 30 1 32 16
M  V30 31 1 32 30
M  V30 32 1 33 13
M  V30 33 1 33 15
M  V30 34 1 33 25
M  V30 35 1 34 5
M  V30 36 1 34 7
M  V30 37 1 2 35 CFG=3
M  V30 38 1 36 3
M  V30 39 1 37 5
M  V30 40 1 38 5
M  V30 41 1 7 39 CFG=3
M  V30 42 1 8 40 CFG=3
M  V30 43 1 41 9
M  V30 44 1 10 42 CFG=1
M  V30 45 1 43 11
M  V30 46 1 44 12
M  V30 47 1 45 12
M  V30 48 1 46 12
M  V30 49 1 13 47 CFG=1
M  V30 50 1 48 14
M  V30 51 1 49 14
M  V30 52 1 50 14
M  V30 53 1 51 15
M  V30 54 1 52 16
M  V30 55 1 53 16
M  V30 56 1 54 17
M  V30 57 1 55 17
M  V30 58 1 56 17
M  V30 59 1 57 18
M  V30 60 1 58 18
M  V30 61 1 19 59 CFG=1
M  V30 62 1 60 20
M  V30 63 1 61 20
M  V30 64 1 62 22
M  V30 65 1 63 22
M  V30 66 1 64 23
M  V30 67 1 65 23
M  V30 68 1 66 23
M  V30 69 1 67 26
M  V30 70 1 68 26
M  V30 71 1 69 27
M  V30 72 1 70 27
M  V30 73 1 71 28
M  V30 74 1 72 28
M  V30 75 1 73 28
M  V30 76 1 74 30
M  V30 77 1 32 75 CFG=1
M  V30 78 1 76 34
M  V30 79 1 77 34
M  V30 80 1 78 15
M  V30 81 1 79 6
M  V30 82 1 31 80 CFG=1
M  V30 END BOND
M  V30 END CTAB
M  END
>  <i_epik_Tot_Q>  (1) 
3

>  <i_epik_Tot_abs_Q>  (1) 
3

>  <i_i_glide_confnum>  (1) 
1478

>  <i_i_glide_lignum>  (1) 
17

>  <i_i_glide_posenum>  (1) 
47

>  <i_i_glide_rotatable_bonds>  (1) 
13

>  <i_lp_mmshare_version>  (1) 
72125

>  <i_m_source_file_index>  (1) 
6

>  <i_f3d_flags>  (1) 
0

>  <num_sample>  (1) 
50

>  <b_lp_Chiralities_Consistent>  (1) 
1

>  <r_epik_Charging_Adjusted_Penalty>  (1) 
0.16301919670703535

>  <r_epik_Ionization_Penalty>  (1) 
0.082191666583868089

>  <r_epik_Ionization_Penalty_Charging>  (1) 
0.082191230012028396

>  <r_epik_Ionization_Penalty_Neutral>  (1) 
4.3657183969654913e-07

>  <r_epik_State_Penalty>  (1) 
0.080827966695006942

>  <r_glide_ring_energy>  (1) 
0

>  <r_i_docking_score>  (1) 
-6.4823167602467047

>  <r_i_glide_ecoul>  (1) 
1.4128377021503056

>  <r_i_glide_eff_state_penalty>  (1) 
0.080827966695006942

>  <r_i_glide_einternal>  (1) 
12.446918425718621

>  <r_i_glide_emodel>  (1) 
-49.857811238696073

>  <r_i_glide_emodel_strain>  (1) 
1.7463594176138457

>  <r_i_glide_energy>  (1) 
-41.265980323095555

>  <r_i_glide_erotb>  (1) 
0.63983490757673345

>  <r_i_glide_esite>  (1) 
-0.11081020450449652

>  <r_i_glide_evdw>  (1) 
-42.67881802524586

>  <r_i_glide_gscore>  (1) 
-6.5631447269417116

>  <r_i_glide_gscore_strain>  (1) 
0

>  <r_i_glide_hbond>  (1) 
-0.071157843195707934

>  <r_i_glide_ligand_efficiency>  (1) 
-0.19065637530137367

>  <r_i_glide_ligand_efficiency_ln>  (1) 
-1.4321255951648724

>  <r_i_glide_ligand_efficiency_sa>  (1) 
-0.61765264341511916

>  <r_i_glide_lipo>  (1) 
-4.0916738188957682

>  <r_i_glide_metal>  (1) 
-0

>  <r_i_glide_rewards>  (1) 
-1.0073225219827242

>  <r_lp_Energy>  (1) 
42.251275999999997

>  <s_epik_Chemistry_Notes>  (1) 
This compound has an imine and may undergo hydrolysis. This compound has a N-S or N-O group and may undergo hydrolysis at high or low pH.

>  <s_epik_cmdline>  (1) 
J2VwaWtfcHl0aG9uJywgJy1waHQnLCAnMS4wJywgJy1waCcsICc3LjQnLCAnLXRuJywgJzgnLCAnLW1hJywgJzUwMCcsICctaW1hZScsICc8aW5maWxlLm1hZT4nLCAnLW9tYWUnLCAnPG91dGZpbGUubWFlPic=

>  <s_epik_input>  (1) 
RltDSDJdW0NASF0xW0NIMl1bTkhdTihTMSlbQ0BASF0oW0NIMl1OMltDSF0oW0NIM10pW0NIM10pW0NIMl1bQ0BASF0oW0NASF0yW0NIM10pQzM9TltDQEhdKFtDSDJdW05IXTMpW0NIMl1bQ0gyXVtDQEBIXShPW0NIM10pW0NAQEhdKFtPSF0pW0NIMl1bTkhdQyg9TylbQ0gzXQ==

>  <s_glide_docking_method>  (1) 
confgen

>  <s_i_glide_gridfile>  (1) 
gpcr_5ht2c_6bqh_protein_autoprepared_prepared

>  <s_lp_Force_Field>  (1) 
S-OPLS

>  <s_lp_Variant>  (1) 
DiffSBDD_5_num_sample_50-4

>  <s_m_source_file>  (1) 
generated__ligand_DiffSBDD_2026-05-06_prepared.sdf

>  <GenAI_Model>  (1) 
DiffSBDD

>  <Protein>  (1) 
GPCR_5HT2C

$$$$
DiffSBDD_17_num_sample_50
     RDKit          3D

  0  0  0  0  0  0  0  0  0  0999 V3000
M  V30 BEGIN CTAB
M  V30 COUNTS 67 69 0 0 1
M  V30 BEGIN ATOM
M  V30 1 C 39.638007 30.311441 55.078583 0
M  V30 2 S 37.467405 37.397507 59.710829 0
M  V30 3 C 37.293816 24.967832 55.043299 0
M  V30 4 O 40.238377 29.284665 60.058639 0
M  V30 5 C 39.443196 30.222496 60.090446 0
M  V30 6 C 38.395015 25.323717 57.607628 0
M  V30 7 N 38.778660 30.596822 58.937256 0
M  V30 8 C 36.521981 31.857287 59.797650 0 CFG=2
M  V30 9 O 35.490972 30.939742 59.453536 0
M  V30 10 C 36.182623 34.489126 61.835292 0
M  V30 11 C 36.681762 35.859643 62.388595 0
M  V30 12 C 38.980408 30.840433 56.359986 0
M  V30 13 C 35.773658 33.225778 59.688892 0
M  V30 14 O 39.493688 39.997890 61.053498 0 CHG=-1
M  V30 15 C 38.086466 26.094716 55.315018 0
M  V30 16 C 39.154159 29.954223 57.632438 0 CFG=2
M  V30 17 C 38.523456 28.563553 57.475448 0
M  V30 18 C 37.051439 24.021433 56.051889 0
M  V30 19 C 35.888504 29.621416 59.139903 0
M  V30 20 N 36.373628 34.415844 60.364562 0 CFG=2 CHG=1
M  V30 21 C 38.129991 36.156353 61.978805 0 CFG=1
M  V30 22 C 37.777570 34.662159 59.986752 0
M  V30 23 C 37.668118 38.472306 61.166264 0 CFG=2
M  V30 24 C 38.262889 39.872804 60.930974 0
M  V30 25 C 39.459058 27.495239 56.904578 0
M  V30 26 C 38.300929 35.994152 60.480320 0 CFG=1
M  V30 27 C 37.807830 31.741912 58.873307 0
M  V30 28 O 37.467398 40.792266 60.653509 0
M  V30 29 C 38.430426 37.621422 62.235881 0
M  V30 30 S 39.242226 31.057957 61.652922 0 CHG=-1
M  V30 31 C 38.635303 26.273745 56.600325 0
M  V30 32 C 37.605694 24.197832 57.334228 0
M  V30 33 H 39.642704 31.079644 54.305218 0
M  V30 34 H 39.100162 29.453082 54.676216 0
M  V30 35 H 40.667747 30.012454 55.251959 0
M  V30 36 H 36.869211 24.830607 54.060196 0
M  V30 37 H 38.812830 25.464126 58.592982 0
M  V30 38 H 36.696722 31.682100 60.849646 0
M  V30 39 H 36.725297 33.643647 62.253504 0
M  V30 40 H 35.131417 34.349634 62.087809 0
M  V30 41 H 36.089933 36.677917 62.027216 0
M  V30 42 H 36.549980 36.021421 63.460927 0
M  V30 43 H 39.393202 31.829500 56.560008 0
M  V30 44 H 37.927466 30.975326 56.115066 0
M  V30 45 H 35.641963 33.475758 58.639795 0
M  V30 46 H 34.761039 33.113634 60.080434 0
M  V30 47 H 38.268685 26.825630 54.540888 0
M  V30 48 H 40.233197 29.798599 57.690010 0
M  V30 49 H 38.164526 28.193638 58.435618 0
M  V30 50 H 37.652213 28.645661 56.825755 0
M  V30 51 H 36.441902 23.155268 55.842566 0
M  V30 52 H 35.067409 28.914384 59.125230 0
M  V30 53 H 36.625816 29.246322 59.849338 0
M  V30 54 H 36.279918 29.624385 58.130362 0
M  V30 55 H 38.815107 35.509450 62.529182 0
M  V30 56 H 38.410150 33.908077 60.451923 0
M  V30 57 H 37.867394 34.615660 58.902003 0
M  V30 58 H 36.658869 38.664863 61.532623 0
M  V30 59 H 39.964958 27.822196 55.999123 0
M  V30 60 H 40.238476 27.250745 57.628659 0
M  V30 61 H 39.366974 36.023839 60.253509 0
M  V30 62 H 38.483683 32.578416 58.921461 0
M  V30 63 H 37.386461 31.852050 57.886507 0
M  V30 64 H 38.098000 37.792632 63.255683 0
M  V30 65 H 39.508170 37.784200 62.199921 0
M  V30 66 H 37.425135 23.467733 58.107220 0
M  V30 67 H 35.864841 35.207295 59.993514 0
M  V30 END ATOM
M  V30 BEGIN BOND
M  V30 1 2 5 4
M  V30 2 1 7 5
M  V30 3 1 9 8
M  V30 4 1 11 10
M  V30 5 1 12 1
M  V30 6 1 13 8
M  V30 7 1 15 3
M  V30 8 1 16 7
M  V30 9 1 16 12
M  V30 10 1 17 16
M  V30 11 2 18 3
M  V30 12 1 19 9
M  V30 13 1 20 10
M  V30 14 1 20 13
M  V30 15 1 21 11
M  V30 16 1 22 20
M  V30 17 1 23 2
M  V30 18 1 24 14
M  V30 19 1 24 23
M  V30 20 1 25 17
M  V30 21 1 26 2
M  V30 22 1 26 21
M  V30 23 1 26 22
M  V30 24 1 27 7
M  V30 25 1 27 8
M  V30 26 2 28 24
M  V30 27 1 29 21
M  V30 28 1 29 23
M  V30 29 1 30 5
M  V30 30 1 31 6
M  V30 31 2 31 15
M  V30 32 1 31 25
M  V30 33 2 32 6
M  V30 34 1 32 18
M  V30 35 1 33 1
M  V30 36 1 34 1
M  V30 37 1 35 1
M  V30 38 1 36 3
M  V30 39 1 37 6
M  V30 40 1 8 38 CFG=1
M  V30 41 1 39 10
M  V30 42 1 40 10
M  V30 43 1 41 11
M  V30 44 1 42 11
M  V30 45 1 43 12
M  V30 46 1 44 12
M  V30 47 1 45 13
M  V30 48 1 46 13
M  V30 49 1 47 15
M  V30 50 1 16 48 CFG=1
M  V30 51 1 49 17
M  V30 52 1 50 17
M  V30 53 1 51 18
M  V30 54 1 52 19
M  V30 55 1 53 19
M  V30 56 1 54 19
M  V30 57 1 21 55 CFG=1
M  V30 58 1 56 22
M  V30 59 1 57 22
M  V30 60 1 23 58 CFG=1
M  V30 61 1 59 25
M  V30 62 1 60 25
M  V30 63 1 26 61 CFG=1
M  V30 64 1 62 27
M  V30 65 1 63 27
M  V30 66 1 64 29
M  V30 67 1 65 29
M  V30 68 1 66 32
M  V30 69 1 20 67 CFG=3
M  V30 END BOND
M  V30 END CTAB
M  END
>  <i_epik_Tot_Q>  (1) 
-1

>  <i_epik_Tot_abs_Q>  (1) 
3

>  <i_i_glide_confnum>  (1) 
551

>  <i_i_glide_lignum>  (1) 
49

>  <i_i_glide_posenum>  (1) 
234

>  <i_i_glide_rotatable_bonds>  (1) 
12

>  <i_lp_mmshare_version>  (1) 
72125

>  <i_m_source_file_index>  (1) 
18

>  <i_f3d_flags>  (1) 
0

>  <num_sample>  (1) 
50

>  <b_lp_Chiralities_Consistent>  (1) 
1

>  <r_epik_Charging_Adjusted_Penalty>  (1) 
0.068943464179595071

>  <r_epik_Ionization_Penalty>  (1) 
0.034590213650767733

>  <r_epik_Ionization_Penalty_Charging>  (1) 
0.034589667735814351

>  <r_epik_Ionization_Penalty_Neutral>  (1) 
5.4591495337813188e-07

>  <r_epik_State_Penalty>  (1) 
0.034353796443780713

>  <r_glide_ring_energy>  (1) 
0

>  <r_i_docking_score>  (1) 
-6.4750489479037272

>  <r_i_glide_ecoul>  (1) 
-5.851664399629346

>  <r_i_glide_eff_state_penalty>  (1) 
0.034353796443780713

>  <r_i_glide_einternal>  (1) 
22.221716576315476

>  <r_i_glide_emodel>  (1) 
-37.700277531994189

>  <r_i_glide_emodel_strain>  (1) 
4.7599500195424724

>  <r_i_glide_energy>  (1) 
-31.699301808312082

>  <r_i_glide_erotb>  (1) 
0.61675831554288163

>  <r_i_glide_esite>  (1) 
-0.0086174987465020541

>  <r_i_glide_evdw>  (1) 
-25.847637408682736

>  <r_i_glide_gscore>  (1) 
-6.5094027443475078

>  <r_i_glide_gscore_strain>  (1) 
0.18998750488561811

>  <r_i_glide_hbond>  (1) 
-0.32000000000000001

>  <r_i_glide_ligand_efficiency>  (1) 
-0.20234527962199148

>  <r_i_glide_ligand_efficiency_ln>  (1) 
-1.449939962603765

>  <r_i_glide_ligand_efficiency_sa>  (1) 
-0.64240621946549759

>  <r_i_glide_lipo>  (1) 
-3.4892137739269073

>  <r_i_glide_metal>  (1) 
-0

>  <r_i_glide_rewards>  (1) 
-1.3281857617240591

>  <r_lp_Energy>  (1) 
36.015979000000002

>  <s_epik_cmdline>  (1) 
J2VwaWtfcHl0aG9uJywgJy1waHQnLCAnMS4wJywgJy1waCcsICc3LjQnLCAnLXRuJywgJzgnLCAnLW1hJywgJzUwMCcsICctaW1hZScsICc8aW5maWxlLm1hZT4nLCAnLW9tYWUnLCAnPG91dGZpbGUubWFlPic=

>  <s_epik_input>  (1) 
W2NIXTFbY0hdW2NIXVtjSF1bY0hdYzFbQ0gyXVtDSDJdW0NAQEhdKFtDSDJdW0NIM10pTihDKD1PKVtTSF0pW0NIMl1bQ0hdKE9bQ0gzXSlbQ0gyXU4oW0NIMl1bQ0gyXTIpW0NIMl1bQ0BIXShbQ0BIXTIzKVNbQ0BASF0oW0NIMl0zKUMoPU8pW09IXQ==

>  <s_glide_docking_method>  (1) 
confgen

>  <s_i_glide_gridfile>  (1) 
gpcr_5ht2c_6bqh_protein_autoprepared_prepared

>  <s_lp_Force_Field>  (1) 
S-OPLS

>  <s_lp_Variant>  (1) 
DiffSBDD_17_num_sample_50-2

>  <s_m_source_file>  (1) 
generated__ligand_DiffSBDD_2026-05-06_prepared.sdf

>  <GenAI_Model>  (1) 
DiffSBDD

>  <Protein>  (1) 
GPCR_5HT2C

$$$$
DiffSBDD_34_num_sample_50
     RDKit          3D

  0  0  0  0  0  0  0  0  0  0999 V3000
M  V30 BEGIN CTAB
M  V30 COUNTS 50 51 0 0 1
M  V30 BEGIN ATOM
M  V30 1 C 38.741510 28.125598 55.818383 0 CFG=1
M  V30 2 C 39.425460 34.221517 61.683470 0
M  V30 3 C 37.867415 26.304609 54.274555 0
M  V30 4 C 39.348138 32.770855 55.811152 0
M  V30 5 C 38.851797 30.848337 60.154486 0
M  V30 6 C 41.332442 35.456051 62.883334 0
M  V30 7 C 38.136145 27.720194 54.556628 0
M  V30 8 C 38.377612 29.610050 55.425020 0
M  V30 9 C 37.884868 28.668089 53.709519 0
M  V30 10 C 38.106286 30.167894 57.842992 0
M  V30 11 C 38.349303 27.792383 57.218288 0
M  V30 12 C 41.624356 34.495632 64.051865 0
M  V30 13 C 42.189518 35.186397 65.297964 0
M  V30 14 C 38.103865 28.727729 58.142823 0
M  V30 15 C 40.881265 34.709976 61.616887 0
M  V30 16 O 41.218821 36.021427 65.882556 0
M  V30 17 O 39.244636 33.134173 60.783488 0
M  V30 18 O 38.667101 31.640933 62.422763 0
M  V30 19 O 38.116967 25.396142 55.065931 0
M  V30 20 C 38.226565 30.603758 56.540123 0
M  V30 21 N 38.181507 29.928622 54.167992 0
M  V30 22 C 38.033070 32.068001 56.115958 0
M  V30 23 C 37.887402 31.161990 58.987896 0 CFG=1
M  V30 24 O 36.553608 31.052590 59.453516 0
M  V30 25 C 38.905364 31.911450 61.248059 0
M  V30 26 H 39.819896 27.984448 55.735063 0
M  V30 27 H 39.166325 33.946893 62.705584 0
M  V30 28 H 38.748091 35.029363 61.406444 0
M  V30 29 H 37.424202 26.109428 53.298139 0
M  V30 30 H 39.170175 33.785482 55.453503 0
M  V30 31 H 39.986876 32.821442 56.688357 0
M  V30 32 H 39.869291 32.225307 55.029033 0
M  V30 33 H 39.866969 30.715525 59.786266 0
M  V30 34 H 38.579078 29.902789 60.623239 0
M  V30 35 H 40.582359 36.193584 63.171268 0
M  V30 36 H 42.236921 36.021529 62.659145 0
M  V30 37 H 37.452198 28.545478 52.725905 0
M  V30 38 H 38.320785 26.746103 57.485344 0
M  V30 39 H 42.348164 33.749821 63.722376 0
M  V30 40 H 40.725732 33.941534 64.324473 0
M  V30 41 H 43.067402 35.779962 65.050090 0
M  V30 42 H 42.494117 34.441912 66.034182 0
M  V30 43 H 37.867626 28.410525 59.146517 0
M  V30 44 H 40.992601 35.357170 60.746128 0
M  V30 45 H 41.550746 33.864719 61.453509 0
M  V30 46 H 41.304760 36.885318 65.486488 0
M  V30 47 H 37.408531 32.107004 55.223674 0
M  V30 48 H 37.467406 32.658959 56.827453 0
M  V30 49 H 38.074052 32.190364 58.695587 0
M  V30 50 H 35.979092 31.290025 58.729294 0
M  V30 END ATOM
M  V30 BEGIN BOND
M  V30 1 1 7 1
M  V30 2 1 7 3
M  V30 3 1 8 1
M  V30 4 2 9 7
M  V30 5 1 11 1
M  V30 6 1 12 6
M  V30 7 1 13 12
M  V30 8 1 14 10
M  V30 9 2 14 11
M  V30 10 1 15 2
M  V30 11 1 15 6
M  V30 12 1 16 13
M  V30 13 1 17 2
M  V30 14 2 19 3
M  V30 15 1 20 8
M  V30 16 2 20 10
M  V30 17 2 21 8
M  V30 18 1 21 9
M  V30 19 1 22 4
M  V30 20 1 22 20
M  V30 21 1 23 5
M  V30 22 1 23 10
M  V30 23 1 24 23
M  V30 24 1 25 5
M  V30 25 1 25 17
M  V30 26 2 25 18
M  V30 27 1 1 26 CFG=3
M  V30 28 1 27 2
M  V30 29 1 28 2
M  V30 30 1 29 3
M  V30 31 1 30 4
M  V30 32 1 31 4
M  V30 33 1 32 4
M  V30 34 1 33 5
M  V30 35 1 34 5
M  V30 36 1 35 6
M  V30 37 1 36 6
M  V30 38 1 37 9
M  V30 39 1 38 11
M  V30 40 1 39 12
M  V30 41 1 40 12
M  V30 42 1 41 13
M  V30 43 1 42 13
M  V30 44 1 43 14
M  V30 45 1 44 15
M  V30 46 1 45 15
M  V30 47 1 46 16
M  V30 48 1 47 22
M  V30 49 1 48 22
M  V30 50 1 23 49 CFG=3
M  V30 51 1 50 24
M  V30 END BOND
M  V30 END CTAB
M  END
>  <i_epik_Tot_Q>  (1) 
0

>  <i_epik_Tot_abs_Q>  (1) 
0

>  <i_i_glide_confnum>  (1) 
171

>  <i_i_glide_lignum>  (1) 
87

>  <i_i_glide_posenum>  (1) 
88

>  <i_i_glide_rotatable_bonds>  (1) 
13

>  <i_lp_mmshare_version>  (1) 
72125

>  <i_m_source_file_index>  (1) 
35

>  <i_f3d_flags>  (1) 
0

>  <num_sample>  (1) 
50

>  <b_lp_Chiralities_Consistent>  (1) 
1

>  <r_epik_Charging_Adjusted_Penalty>  (1) 
0.012701380709717016

>  <r_epik_Ionization_Penalty>  (1) 
0.012701608846652416

>  <r_epik_Ionization_Penalty_Charging>  (1) 
0

>  <r_epik_Ionization_Penalty_Neutral>  (1) 
0.012701608846652416

>  <r_epik_State_Penalty>  (1) 
0.012701380709717016

>  <r_glide_ring_energy>  (1) 
0

>  <r_i_docking_score>  (1) 
-6.4508628255240685

>  <r_i_glide_ecoul>  (1) 
-7.9443735624257021

>  <r_i_glide_eff_state_penalty>  (1) 
0.012701380709717016

>  <r_i_glide_einternal>  (1) 
6.0483060913664417

>  <r_i_glide_emodel>  (1) 
-61.783519303360293

>  <r_i_glide_emodel_strain>  (1) 
1.2859935976757697

>  <r_i_glide_energy>  (1) 
-46.747003561327205

>  <r_i_glide_erotb>  (1) 
1.4185672597553849

>  <r_i_glide_esite>  (1) 
0

>  <r_i_glide_evdw>  (1) 
-38.802629998901502

>  <r_i_glide_gscore>  (1) 
-6.4635642062337855

>  <r_i_glide_gscore_strain>  (1) 
0

>  <r_i_glide_hbond>  (1) 
-0.45599999999999996

>  <r_i_glide_ligand_efficiency>  (1) 
-0.25803451302096275

>  <r_i_glide_ligand_efficiency_ln>  (1) 
-1.5290478064083803

>  <r_i_glide_ligand_efficiency_sa>  (1) 
-0.75449749314441383

>  <r_i_glide_lipo>  (1) 
-2.0372724380767662

>  <r_i_glide_metal>  (1) 
-0

>  <r_i_glide_rewards>  (1) 
-2.2570714936034744

>  <r_lp_Energy>  (1) 
19.135596

>  <s_epik_Chemistry_Notes>  (1) 
This compound has an ester and may undergo hydrolysis at high or low pH. This compound has an imine and may undergo hydrolysis.

>  <s_epik_cmdline>  (1) 
J2VwaWtfcHl0aG9uJywgJy1waHQnLCAnMS4wJywgJy1waCcsICc3LjQnLCAnLXRuJywgJzgnLCAnLW1hJywgJzUwMCcsICctaW1hZScsICc8aW5maWxlLm1hZT4nLCAnLW9tYWUnLCAnPG91dGZpbGUubWFlPic=

>  <s_epik_input>  (1) 
Tz1bQ0hdQzE9W0NIXU49QyhbQ0BIXTEyKUMoW0NIMl1bQ0gzXSk9QyhbQ0hdPVtDSF0yKVtDQEBIXShbT0hdKVtDSDJdQyg9TylPW0NIMl1bQ0gyXVtDSDJdW0NIMl1bQ0gyXVtPSF0=

>  <s_glide_docking_method>  (1) 
confgen

>  <s_i_glide_gridfile>  (1) 
gpcr_5ht2c_6bqh_protein_autoprepared_prepared

>  <s_lp_Force_Field>  (1) 
S-OPLS

>  <s_lp_Variant>  (1) 
DiffSBDD_34_num_sample_50-1

>  <s_m_source_file>  (1) 
generated__ligand_DiffSBDD_2026-05-06_prepared.sdf

>  <GenAI_Model>  (1) 
DiffSBDD

>  <Protein>  (1) 
GPCR_5HT2C

$$$$
DiffSBDD_30_num_sample_50
     RDKit          3D

  0  0  0  0  0  0  0  0  0  0999 V3000
M  V30 BEGIN CTAB
M  V30 COUNTS 68 67 0 0 1
M  V30 BEGIN ATOM
M  V30 1 C 39.909016 30.459352 53.650775 0
M  V30 2 C 38.171369 29.026041 58.857554 0 CFG=2
M  V30 3 C 38.777618 29.646038 60.132671 0
M  V30 4 O 39.198929 25.258475 54.795189 0
M  V30 5 C 36.907397 24.611374 55.131050 0
M  V30 6 C 40.228335 27.388108 58.701751 0
M  V30 7 C 37.542904 27.866436 53.071815 0
M  V30 8 C 39.854282 28.007531 50.509493 0
M  V30 9 C 38.203570 31.463875 57.885851 0
M  V30 10 C 38.686590 27.574450 58.602808 0 CFG=2
M  V30 11 C 39.452588 29.446731 52.579752 0 CFG=1
M  V30 12 C 38.059802 26.944763 57.332385 0
M  V30 13 C 40.448364 29.087311 51.439027 0 CFG=2
M  V30 14 C 39.245776 31.970620 55.596177 0
M  V30 15 C 41.079688 28.109973 57.653000 0
M  V30 16 C 38.243106 29.947947 57.611556 0
M  V30 17 C 38.270746 25.123679 55.586087 0
M  V30 18 C 38.438824 25.471423 57.063405 0 CFG=2
M  V30 19 C 38.750777 30.972028 54.533956 0
M  V30 20 C 40.948182 30.321171 50.635743 0
M  V30 21 O 38.264606 33.620757 56.947404 0 CHG=-1
M  V30 22 C 39.873850 31.067833 49.835273 0
M  V30 23 N 38.182818 32.315912 56.623989 0 CFG=2 CHG=1
M  V30 24 C 37.736952 24.479981 57.996998 0
M  V30 25 C 38.824941 28.230883 53.241669 0
M  V30 26 H 40.668288 30.021412 54.293246 0
M  V30 27 H 40.374746 31.318374 53.176140 0
M  V30 28 H 37.105977 28.932553 59.065914 0
M  V30 29 H 39.822736 29.923140 59.992075 0
M  V30 30 H 38.234747 30.542472 60.434747 0
M  V30 31 H 38.725398 28.953556 60.974066 0
M  V30 32 H 36.116441 25.077608 55.716290 0
M  V30 33 H 36.737699 24.837266 54.079023 0
M  V30 34 H 36.844870 23.531311 55.259237 0
M  V30 35 H 40.575193 27.677312 59.691988 0
M  V30 36 H 40.468962 26.331080 58.653482 0
M  V30 37 H 36.881381 28.436077 52.436673 0
M  V30 38 H 37.141386 26.995915 53.563962 0
M  V30 39 H 39.036387 28.388191 49.900242 0
M  V30 40 H 40.614993 27.607611 49.853538 0
M  V30 41 H 39.475201 27.136519 51.040927 0
M  V30 42 H 39.067956 31.793593 58.458082 0
M  V30 43 H 37.309471 31.742534 58.444234 0
M  V30 44 H 38.300234 26.994401 59.440165 0
M  V30 45 H 38.667308 29.940915 52.052930 0
M  V30 46 H 36.974956 27.012373 57.420826 0
M  V30 47 H 38.327380 27.543492 56.461695 0
M  V30 48 H 41.334607 28.623544 51.853506 0
M  V30 49 H 40.139843 31.655283 56.131048 0
M  V30 50 H 39.467481 32.903297 55.083029 0
M  V30 51 H 42.113995 27.765715 57.692330 0
M  V30 52 H 40.716369 27.938002 56.638502 0
M  V30 53 H 41.089392 29.181134 57.853756 0
M  V30 54 H 37.405198 29.690898 56.961715 0
M  V30 55 H 39.143651 29.725503 57.051827 0
M  V30 56 H 39.507316 25.343463 57.208184 0
M  V30 57 H 37.999382 31.458170 53.909615 0
M  V30 58 H 38.245209 30.127683 54.992494 0
M  V30 59 H 41.437846 31.034010 51.294533 0
M  V30 60 H 41.728755 30.021564 49.940048 0
M  V30 61 H 40.267589 31.948922 49.339613 0
M  V30 62 H 39.467449 30.433012 49.053577 0
M  V30 63 H 39.067415 31.426061 50.461346 0
M  V30 64 H 38.125850 23.468838 57.868002 0
M  V30 65 H 37.870456 24.770333 59.036239 0
M  V30 66 H 36.667299 24.458396 57.823677 0
M  V30 67 H 39.467124 27.643358 53.880894 0
M  V30 68 H 37.264536 32.108428 56.165634 0
M  V30 END ATOM
M  V30 BEGIN BOND
M  V30 1 1 3 2
M  V30 2 1 10 2
M  V30 3 1 10 6
M  V30 4 1 11 1
M  V30 5 1 12 10
M  V30 6 1 13 8
M  V30 7 1 13 11
M  V30 8 1 15 6
M  V30 9 1 16 2
M  V30 10 1 16 9
M  V30 11 2 17 4
M  V30 12 1 17 5
M  V30 13 1 18 12
M  V30 14 1 18 17
M  V30 15 1 19 1
M  V30 16 1 19 14
M  V30 17 1 20 13
M  V30 18 1 22 20
M  V30 19 1 23 9
M  V30 20 1 23 14
M  V30 21 1 23 21
M  V30 22 1 24 18
M  V30 23 2 25 7
M  V30 24 1 25 11
M  V30 25 1 26 1
M  V30 26 1 27 1
M  V30 27 1 2 28 CFG=1
M  V30 28 1 29 3
M  V30 29 1 30 3
M  V30 30 1 31 3
M  V30 31 1 32 5
M  V30 32 1 33 5
M  V30 33 1 34 5
M  V30 34 1 35 6
M  V30 35 1 36 6
M  V30 36 1 37 7
M  V30 37 1 38 7
M  V30 38 1 39 8
M  V30 39 1 40 8
M  V30 40 1 41 8
M  V30 41 1 42 9
M  V30 42 1 43 9
M  V30 43 1 10 44 CFG=1
M  V30 44 1 11 45 CFG=3
M  V30 45 1 46 12
M  V30 46 1 47 12
M  V30 47 1 13 48 CFG=1
M  V30 48 1 49 14
M  V30 49 1 50 14
M  V30 50 1 51 15
M  V30 51 1 52 15
M  V30 52 1 53 15
M  V30 53 1 54 16
M  V30 54 1 55 16
M  V30 55 1 18 56 CFG=1
M  V30 56 1 57 19
M  V30 57 1 58 19
M  V30 58 1 59 20
M  V30 59 1 60 20
M  V30 60 1 61 22
M  V30 61 1 62 22
M  V30 62 1 63 22
M  V30 63 1 64 24
M  V30 64 1 65 24
M  V30 65 1 66 24
M  V30 66 1 67 25
M  V30 67 1 23 68 CFG=3
M  V30 END BOND
M  V30 END CTAB
M  END
>  <i_epik_Tot_Q>  (1) 
0

>  <i_epik_Tot_abs_Q>  (1) 
2

>  <i_i_glide_confnum>  (1) 
3508

>  <i_i_glide_lignum>  (1) 
81

>  <i_i_glide_posenum>  (1) 
369

>  <i_i_glide_rotatable_bonds>  (1) 
15

>  <i_lp_mmshare_version>  (1) 
72125

>  <i_m_source_file_index>  (1) 
31

>  <i_f3d_flags>  (1) 
0

>  <num_sample>  (1) 
50

>  <b_lp_Chiralities_Consistent>  (1) 
1

>  <r_epik_Charging_Adjusted_Penalty>  (1) 
0.52251968911758562

>  <r_epik_Ionization_Penalty>  (1) 
0.019979657236955634

>  <r_epik_Ionization_Penalty_Charging>  (1) 
0.019979657236557934

>  <r_epik_Ionization_Penalty_Neutral>  (1) 
3.9770064437045143e-13

>  <r_epik_State_Penalty>  (1) 
0.50254003188102769

>  <r_glide_ring_energy>  (1) 
0

>  <r_i_docking_score>  (1) 
-6.4500663925683472

>  <r_i_glide_ecoul>  (1) 
-0.65900294816364147

>  <r_i_glide_eff_state_penalty>  (1) 
0.50254003188102769

>  <r_i_glide_einternal>  (1) 
13.356440494669881

>  <r_i_glide_emodel>  (1) 
-45.119779291584067

>  <r_i_glide_emodel_strain>  (1) 
0.72977323610745515

>  <r_i_glide_energy>  (1) 
-34.387418743444613

>  <r_i_glide_erotb>  (1) 
1.833058027080513

>  <r_i_glide_esite>  (1) 
-0.10000000000000001

>  <r_i_glide_evdw>  (1) 
-33.728415795280974

>  <r_i_glide_gscore>  (1) 
-6.9526064244493746

>  <r_i_glide_gscore_strain>  (1) 
0

>  <r_i_glide_hbond>  (1) 
-0.10155610059063719

>  <r_i_glide_ligand_efficiency>  (1) 
-0.2580026557027339

>  <r_i_glide_ligand_efficiency_ln>  (1) 
-1.5288590279307046

>  <r_i_glide_ligand_efficiency_sa>  (1) 
-0.75440434178082083

>  <r_i_glide_lipo>  (1) 
-4.7235456584031059

>  <r_i_glide_metal>  (1) 
-0

>  <r_i_glide_rewards>  (1) 
-2.075291460547549

>  <r_lp_Energy>  (1) 
18.093928999999999

>  <s_epik_cmdline>  (1) 
J2VwaWtfcHl0aG9uJywgJy1waHQnLCAnMS4wJywgJy1waCcsICc3LjQnLCAnLXRuJywgJzgnLCAnLW1hJywgJzUwMCcsICctaW1hZScsICc8aW5maWxlLm1hZT4nLCAnLW9tYWUnLCAnPG91dGZpbGUubWFlPic=

>  <s_epik_input>  (1) 
W0NIM11bQ0gyXVtDQEhdKFtDSDNdKVtDQEBIXShbQ0hdPVtDSDJdKVtDSDJdW0NIMl1bQ0gyXU4oW09IXSlbQ0gyXVtDSDJdW0NASF0oW0NIM10pW0NASF0oW0NIMl1bQ0gzXSlbQ0gyXVtDQEhdKFtDSDNdKUMoPU8pW0NIM10=

>  <s_glide_docking_method>  (1) 
confgen

>  <s_i_glide_gridfile>  (1) 
gpcr_5ht2c_6bqh_protein_autoprepared_prepared

>  <s_lp_Force_Field>  (1) 
S-OPLS

>  <s_lp_Variant>  (1) 
DiffSBDD_30_num_sample_50-5

>  <s_m_source_file>  (1) 
generated__ligand_DiffSBDD_2026-05-06_prepared.sdf

>  <GenAI_Model>  (1) 
DiffSBDD

>  <Protein>  (1) 
GPCR_5HT2C

$$$$
DiffSBDD_20_num_sample_50
     RDKit          3D

  0  0  0  0  0  0  0  0  0  0999 V3000
M  V30 BEGIN CTAB
M  V30 COUNTS 77 81 0 0 1
M  V30 BEGIN ATOM
M  V30 1 C 37.231631 36.250572 61.853988 0
M  V30 2 C 38.744116 36.821554 63.679553 0
M  V30 3 C 37.388499 32.922528 60.552684 0 CFG=2
M  V30 4 C 37.964298 30.141693 54.313677 0
M  V30 5 C 39.648456 35.832977 63.255273 0
M  V30 6 C 37.354314 29.549173 58.606806 0
M  V30 7 C 41.467401 33.843628 62.434239 0
M  V30 8 C 38.481091 29.798939 57.577467 0 CFG=1
M  V30 9 C 38.360628 27.343663 56.809100 0
M  V30 10 C 38.486267 28.828858 56.333408 0 CFG=2
M  V30 11 C 38.431693 31.292545 57.203374 0
M  V30 12 F 41.055516 28.821566 51.453450 0
M  V30 13 C 38.496582 32.240319 58.394428 0
M  V30 14 C 40.842787 35.622815 63.973071 0
M  V30 15 O 38.603593 30.324914 60.514043 0
M  V30 16 C 39.782804 29.036858 55.510550 0
M  V30 17 C 36.745843 35.058045 59.216716 0
M  V30 18 C 37.388196 30.524962 59.798984 0 CFG=1
M  V30 19 C 37.771518 34.400323 60.178573 0 CFG=1
M  V30 20 C 40.281262 34.048162 61.705683 0
M  V30 21 C 37.074054 24.422762 57.006597 0
M  V30 22 F 39.067430 29.348153 50.916416 0
M  V30 23 C 38.415310 24.806192 56.366828 0
M  V30 24 O 39.467218 28.787843 53.099866 0
M  V30 25 C 37.540562 37.028576 62.981476 0
M  V30 26 C 38.126146 35.251878 61.409779 0
M  V30 27 C 38.417612 26.213199 55.747560 0
M  V30 28 C 40.255355 30.856062 52.259757 0
M  V30 29 C 40.295762 30.894972 53.779142 0
M  V30 30 C 39.948782 29.400006 51.904304 0
M  V30 31 N 37.428211 31.969158 59.396726 0 CFG=1 CHG=1
M  V30 32 C 39.413518 29.721902 54.178310 0 CFG=1
M  V30 33 C 41.745775 34.628612 63.566585 0
M  V30 34 C 37.376329 29.199942 55.332905 0
M  V30 35 O 36.146166 32.874350 60.965699 0 CHG=-1
M  V30 36 C 39.353727 35.041797 62.117343 0
M  V30 37 H 36.304226 36.418588 61.332076 0
M  V30 38 H 38.971168 37.423586 64.547943 0
M  V30 39 H 38.162917 32.598012 61.238154 0
M  V30 40 H 37.467420 30.021302 53.373794 0
M  V30 41 H 37.842582 31.183578 54.603334 0
M  V30 42 H 37.467567 28.550266 59.019638 0
M  V30 43 H 36.377518 29.594649 58.124791 0
M  V30 44 H 42.168419 33.082187 62.122101 0
M  V30 45 H 39.422406 29.633224 58.103439 0
M  V30 46 H 39.133806 27.155316 57.555346 0
M  V30 47 H 37.408996 27.222466 57.322534 0
M  V30 48 H 39.236459 31.550815 56.517749 0
M  V30 49 H 37.494370 31.515001 56.696924 0
M  V30 50 H 39.464941 32.228544 58.887264 0
M  V30 51 H 38.386837 33.226715 57.950080 0
M  V30 52 H 41.063492 36.225779 64.841976 0
M  V30 53 H 38.398837 29.902697 61.335982 0
M  V30 54 H 40.502241 29.621556 56.068751 0
M  V30 55 H 40.310641 28.107751 55.327037 0
M  V30 56 H 37.068867 36.053099 58.911142 0
M  V30 57 H 36.606662 34.468769 58.311430 0
M  V30 58 H 35.756323 35.148746 59.664397 0
M  V30 59 H 36.538833 30.344131 60.459179 0
M  V30 60 H 38.704506 34.421900 59.626905 0
M  V30 61 H 40.087365 33.439943 60.841202 0
M  V30 62 H 37.099189 23.398531 57.378821 0
M  V30 63 H 36.828132 25.068642 57.849438 0
M  V30 64 H 36.264630 24.492261 56.279342 0
M  V30 65 H 38.637634 24.084695 55.580333 0
M  V30 66 H 39.220170 24.716898 57.098126 0
M  V30 67 H 36.848421 37.786571 63.315670 0
M  V30 68 H 37.578434 26.281494 55.057847 0
M  V30 69 H 39.309300 26.291222 55.130092 0
M  V30 70 H 41.156592 31.221445 51.779219 0
M  V30 71 H 39.467430 31.515515 51.911501 0
M  V30 72 H 39.899059 31.832713 54.168014 0
M  V30 73 H 41.300195 30.802017 54.189055 0
M  V30 74 H 42.658568 34.470067 64.122369 0
M  V30 75 H 37.067362 28.324714 54.768936 0
M  V30 76 H 36.488909 29.625392 55.795458 0
M  V30 77 H 36.555380 32.137262 58.910818 0
M  V30 END ATOM
M  V30 BEGIN BOND
M  V30 1 1 5 2
M  V30 2 1 8 6
M  V30 3 1 10 8
M  V30 4 1 10 9 CFG=1
M  V30 5 1 11 8
M  V30 6 1 13 11
M  V30 7 2 14 5
M  V30 8 1 16 10
M  V30 9 1 18 6
M  V30 10 1 18 15
M  V30 11 1 19 3
M  V30 12 1 19 17
M  V30 13 1 20 7
M  V30 14 1 23 21
M  V30 15 1 25 1
M  V30 16 2 25 2
M  V30 17 2 26 1
M  V30 18 1 26 19
M  V30 19 1 27 9
M  V30 20 1 27 23
M  V30 21 1 29 28
M  V30 22 1 30 12
M  V30 23 1 30 22
M  V30 24 1 30 24
M  V30 25 1 30 28
M  V30 26 1 31 3
M  V30 27 1 31 13
M  V30 28 1 31 18
M  V30 29 1 32 4
M  V30 30 1 32 16
M  V30 31 1 32 24 CFG=3
M  V30 32 1 32 29
M  V30 33 2 33 7
M  V30 34 1 33 14
M  V30 35 1 34 4
M  V30 36 1 34 10
M  V30 37 1 35 3
M  V30 38 1 36 5
M  V30 39 2 36 20
M  V30 40 1 36 26
M  V30 41 1 37 1
M  V30 42 1 38 2
M  V30 43 1 3 39 CFG=1
M  V30 44 1 40 4
M  V30 45 1 41 4
M  V30 46 1 42 6
M  V30 47 1 43 6
M  V30 48 1 44 7
M  V30 49 1 8 45 CFG=1
M  V30 50 1 46 9
M  V30 51 1 47 9
M  V30 52 1 48 11
M  V30 53 1 49 11
M  V30 54 1 50 13
M  V30 55 1 51 13
M  V30 56 1 52 14
M  V30 57 1 53 15
M  V30 58 1 54 16
M  V30 59 1 55 16
M  V30 60 1 56 17
M  V30 61 1 57 17
M  V30 62 1 58 17
M  V30 63 1 18 59 CFG=1
M  V30 64 1 19 60 CFG=3
M  V30 65 1 61 20
M  V30 66 1 62 21
M  V30 67 1 63 21
M  V30 68 1 64 21
M  V30 69 1 65 23
M  V30 70 1 66 23
M  V30 71 1 67 25
M  V30 72 1 68 27
M  V30 73 1 69 27
M  V30 74 1 70 28
M  V30 75 1 71 28
M  V30 76 1 72 29
M  V30 77 1 73 29
M  V30 78 1 74 33
M  V30 79 1 75 34
M  V30 80 1 76 34
M  V30 81 1 31 77 CFG=3
M  V30 END BOND
M  V30 END CTAB
M  END
>  <i_epik_Tot_Q>  (1) 
0

>  <i_epik_Tot_abs_Q>  (1) 
2

>  <i_i_glide_confnum>  (1) 
56

>  <i_i_glide_lignum>  (1) 
58

>  <i_i_glide_posenum>  (1) 
43

>  <i_i_glide_rotatable_bonds>  (1) 
8

>  <i_lp_mmshare_version>  (1) 
72125

>  <i_m_source_file_index>  (1) 
21

>  <i_f3d_flags>  (1) 
0

>  <num_sample>  (1) 
50

>  <b_lp_Chiralities_Consistent>  (1) 
1

>  <r_epik_Charging_Adjusted_Penalty>  (1) 
0.70686764658740575

>  <r_epik_Ionization_Penalty>  (1) 
0.13730248461042968

>  <r_epik_Ionization_Penalty_Charging>  (1) 
0.016711854413244867

>  <r_epik_Ionization_Penalty_Neutral>  (1) 
0.12059063019718481

>  <r_epik_State_Penalty>  (1) 
0.6901557921741609

>  <r_glide_ring_energy>  (1) 
0

>  <r_i_docking_score>  (1) 
-6.4477095984830779

>  <r_i_glide_ecoul>  (1) 
-1.9570057172457296

>  <r_i_glide_eff_state_penalty>  (1) 
0.6901557921741609

>  <r_i_glide_einternal>  (1) 
3.501115428815325

>  <r_i_glide_emodel>  (1) 
-48.641196226499197

>  <r_i_glide_emodel_strain>  (1) 
1.3716664139195842

>  <r_i_glide_energy>  (1) 
-35.665789079344336

>  <r_i_glide_erotb>  (1) 
0.48702584280874928

>  <r_i_glide_esite>  (1) 
-0.096055182493770763

>  <r_i_glide_evdw>  (1) 
-33.708783362098607

>  <r_i_glide_gscore>  (1) 
-7.1378653906572387

>  <r_i_glide_gscore_strain>  (1) 
0

>  <r_i_glide_hbond>  (1) 
-0.03950734688662403

>  <r_i_glide_ligand_efficiency>  (1) 
-0.17910304440230773

>  <r_i_glide_ligand_efficiency_ln>  (1) 
-1.4067160374065986

>  <r_i_glide_ligand_efficiency_sa>  (1) 
-0.59138522267196425

>  <r_i_glide_lipo>  (1) 
-4.2216130432554468

>  <r_i_glide_metal>  (1) 
-0

>  <r_i_glide_rewards>  (1) 
-1.2887256351383563

>  <r_lp_Energy>  (1) 
64.332168999999993

>  <s_epik_Chemistry_Notes>  (1) 
This compound contains an acetal/aminal-like group ( X-CH(R)-Y where X, Y are N, S, or O) that may be acid/base labile, releasing an aldehyde.

>  <s_epik_cmdline>  (1) 
J2VwaWtfcHl0aG9uJywgJy1waHQnLCAnMS4wJywgJy1waCcsICc3LjQnLCAnLXRuJywgJzgnLCAnLW1hJywgJzUwMCcsICctaW1hZScsICc8aW5maWxlLm1hZT4nLCAnLW9tYWUnLCAnPG91dGZpbGUubWFlPic=

>  <s_epik_input>  (1) 
W2NIXTFbY0hdW2NIXVtjSF1jKGMxMiljKFtjSF1bY0hdW2NIXTIpW0NASF0oW0NIM10pW0NAQEhdKFtPSF0pTihbQ0gyXVtDSDJdMylbQ0BIXShbT0hdKVtDSDJdW0NASF0zW0NAQF0oW0NIMl00KShbQ0gyXVtDSDJdW0NIMl1bQ0gzXSlbQ0gyXVtDSDJdW0NAXTQ1T0MoRikoRilbQ0gyXVtDSDJdNQ==

>  <s_glide_docking_method>  (1) 
confgen

>  <s_i_glide_gridfile>  (1) 
gpcr_5ht2c_6bqh_protein_autoprepared_prepared

>  <s_lp_Force_Field>  (1) 
S-OPLS

>  <s_lp_Variant>  (1) 
DiffSBDD_20_num_sample_50-3

>  <s_m_source_file>  (1) 
generated__ligand_DiffSBDD_2026-05-06_prepared.sdf

>  <GenAI_Model>  (1) 
DiffSBDD

>  <Protein>  (1) 
GPCR_5HT2C

$$$$
DiffSBDD_3_num_sample_50
     RDKit          3D

  0  0  0  0  0  0  0  0  0  0999 V3000
M  V30 BEGIN CTAB
M  V30 COUNTS 73 76 0 0 1
M  V30 BEGIN ATOM
M  V30 1 C 35.248966 31.611982 60.499907 0
M  V30 2 N 36.265523 38.847915 61.853498 0
M  V30 3 C 35.893206 34.100835 60.781864 0
M  V30 4 C 39.934921 27.555885 58.843841 0 CFG=2
M  V30 5 C 39.755300 30.168330 61.038113 0
M  V30 6 S 41.860889 34.656181 64.075389 0
M  V30 7 C 37.823701 34.118946 59.252713 0
M  V30 8 C 36.568527 37.968422 61.166250 0
M  V30 9 C 37.842307 25.436823 55.937502 0
M  V30 10 C 40.934295 33.251104 63.400190 0 CFG=1
M  V30 11 C 39.216625 26.786948 57.804823 0 CFG=1
M  V30 12 C 35.640176 32.745724 61.448398 0
M  V30 13 C 37.678424 31.537950 59.517172 0 CFG=2
M  V30 14 C 39.565572 29.939763 59.543696 0
M  V30 15 C 40.449002 28.991534 58.773491 0
M  V30 16 C 40.070325 33.755482 62.235688 0
M  V30 17 N 37.324110 34.369730 60.611960 0
M  V30 18 C 36.945769 36.837276 60.304109 0
M  V30 19 O 40.611347 26.636381 57.880094 0
M  V30 20 C 39.152331 35.983525 61.293838 0
M  V30 21 C 41.125861 35.836926 62.918938 0
M  V30 22 C 37.638830 35.718385 61.115603 0 CFG=2
M  V30 23 C 39.965082 27.264184 55.468802 0
M  V30 24 C 40.349927 28.970963 61.795583 0
M  V30 25 N 38.633209 30.581449 58.895450 0 CHG=1
M  V30 26 C 38.034698 26.651325 56.838424 0 CFG=1
M  V30 27 C 36.391407 30.772861 59.896079 0 CFG=2
M  V30 28 C 37.411289 32.773608 58.632465 0
M  V30 29 C 39.783031 35.241834 62.486285 0 CFG=2
M  V30 30 O 35.903875 30.021371 58.790751 0
M  V30 31 N 39.056575 27.602640 56.570625 0
M  V30 32 F 41.761566 32.288258 62.992470 0
M  V30 33 O 36.721549 24.699140 56.370034 0
M  V30 34 H 34.667392 30.928744 61.114614 0
M  V30 35 H 34.578944 31.990986 59.725908 0
M  V30 36 H 35.324872 34.233113 59.860986 0
M  V30 37 H 35.471426 34.820994 61.480157 0
M  V30 38 H 39.865119 27.151827 59.845964 0
M  V30 39 H 38.818157 30.396694 61.540080 0
M  V30 40 H 38.910979 34.147102 59.266138 0
M  V30 41 H 37.468639 34.909789 58.589466 0
M  V30 42 H 37.677046 25.759641 54.909160 0
M  V30 43 H 38.720668 24.791499 55.965756 0
M  V30 44 H 40.311771 32.835668 64.192780 0
M  V30 45 H 34.770622 32.902125 62.088929 0
M  V30 46 H 36.463171 32.458849 62.103438 0
M  V30 47 H 38.132789 31.927851 60.422515 0
M  V30 48 H 40.412774 31.027764 61.162198 0
M  V30 49 H 40.519050 29.317830 57.737289 0
M  V30 50 H 40.611376 33.645905 61.292844 0
M  V30 51 H 39.155459 33.170208 62.155136 0
M  V30 52 H 37.587932 37.203367 59.504048 0
M  V30 53 H 36.023270 36.500937 59.833782 0
M  V30 54 H 39.717860 35.797420 60.381561 0
M  V30 55 H 39.271579 37.050006 61.487470 0
M  V30 56 H 41.017956 36.820973 63.376591 0
M  V30 57 H 41.786917 35.938716 62.057938 0
M  V30 58 H 37.215969 35.765140 62.120909 0
M  V30 59 H 39.487919 27.439431 54.504698 0
M  V30 60 H 40.320299 26.233321 55.497814 0
M  V30 61 H 40.845695 27.901712 55.524169 0
M  V30 62 H 40.512584 29.240683 62.839162 0
M  V30 63 H 41.312675 28.642347 61.403296 0
M  V30 64 H 39.662593 28.124611 61.801165 0
M  V30 65 H 41.467871 29.022150 59.156077 0
M  V30 66 H 37.119732 27.156490 57.135537 0
M  V30 67 H 36.673936 30.038264 60.645892 0
M  V30 68 H 36.353661 32.859370 58.413435 0
M  V30 69 H 37.891102 32.664417 57.658870 0
M  V30 70 H 39.104456 35.329743 63.334163 0
M  V30 71 H 35.630426 30.634081 58.099561 0
M  V30 72 H 36.595825 23.965950 55.786107 0
M  V30 73 H 38.513175 30.399606 57.901848 0
M  V30 END ATOM
M  V30 BEGIN BOND
M  V30 1 3 8 2
M  V30 2 1 10 6
M  V30 3 1 11 4
M  V30 4 1 12 1
M  V30 5 1 12 3
M  V30 6 1 14 5
M  V30 7 1 15 4
M  V30 8 1 15 14
M  V30 9 1 16 10
M  V30 10 1 17 3
M  V30 11 1 17 7
M  V30 12 1 18 8
M  V30 13 1 19 4
M  V30 14 1 11 19 CFG=1
M  V30 15 1 21 6
M  V30 16 1 22 17
M  V30 17 1 22 18
M  V30 18 1 22 20
M  V30 19 1 24 5
M  V30 20 1 25 13
M  V30 21 2 25 14
M  V30 22 1 26 9
M  V30 23 1 26 11
M  V30 24 1 27 1
M  V30 25 1 27 13
M  V30 26 1 28 7
M  V30 27 1 28 13
M  V30 28 1 29 16
M  V30 29 1 29 20
M  V30 30 1 29 21
M  V30 31 1 30 27
M  V30 32 1 31 11
M  V30 33 1 31 23
M  V30 34 1 31 26
M  V30 35 1 32 10
M  V30 36 1 33 9
M  V30 37 1 34 1
M  V30 38 1 35 1
M  V30 39 1 36 3
M  V30 40 1 37 3
M  V30 41 1 4 38 CFG=1
M  V30 42 1 39 5
M  V30 43 1 40 7
M  V30 44 1 41 7
M  V30 45 1 42 9
M  V30 46 1 43 9
M  V30 47 1 10 44 CFG=1
M  V30 48 1 45 12
M  V30 49 1 46 12
M  V30 50 1 13 47 CFG=1
M  V30 51 1 48 5
M  V30 52 1 49 15
M  V30 53 1 50 16
M  V30 54 1 51 16
M  V30 55 1 52 18
M  V30 56 1 53 18
M  V30 57 1 54 20
M  V30 58 1 55 20
M  V30 59 1 56 21
M  V30 60 1 57 21
M  V30 61 1 22 58 CFG=1
M  V30 62 1 59 23
M  V30 63 1 60 23
M  V30 64 1 61 23
M  V30 65 1 62 24
M  V30 66 1 63 24
M  V30 67 1 64 24
M  V30 68 1 65 15
M  V30 69 1 26 66 CFG=1
M  V30 70 1 27 67 CFG=1
M  V30 71 1 68 28
M  V30 72 1 69 28
M  V30 73 1 29 70 CFG=1
M  V30 74 1 71 30
M  V30 75 1 72 33
M  V30 76 1 73 25
M  V30 END BOND
M  V30 END CTAB
M  END
>  <i_epik_Tot_Q>  (1) 
1

>  <i_epik_Tot_abs_Q>  (1) 
1

>  <i_i_glide_confnum>  (1) 
494

>  <i_i_glide_lignum>  (1) 
11

>  <i_i_glide_posenum>  (1) 
371

>  <i_i_glide_rotatable_bonds>  (1) 
11

>  <i_lp_mmshare_version>  (1) 
72125

>  <i_m_source_file_index>  (1) 
4

>  <i_f3d_flags>  (1) 
0

>  <num_sample>  (1) 
50

>  <b_lp_Chiralities_Consistent>  (1) 
1

>  <r_epik_Charging_Adjusted_Penalty>  (1) 
0.69158801815778803

>  <r_epik_Ionization_Penalty>  (1) 
0.18004840766126984

>  <r_epik_Ionization_Penalty_Charging>  (1) 
0.063917621844604325

>  <r_epik_Ionization_Penalty_Neutral>  (1) 
0.11613078581666553

>  <r_epik_State_Penalty>  (1) 
0.62767039631318366

>  <r_glide_ring_energy>  (1) 
0

>  <r_i_docking_score>  (1) 
-6.4429631790389115

>  <r_i_glide_ecoul>  (1) 
-4.9976932053007994

>  <r_i_glide_eff_state_penalty>  (1) 
0.62767039631318366

>  <r_i_glide_einternal>  (1) 
6.9814252985515513

>  <r_i_glide_emodel>  (1) 
-56.604854238150565

>  <r_i_glide_emodel_strain>  (1) 
0.47198727652988737

>  <r_i_glide_energy>  (1) 
-45.226730696963948

>  <r_i_glide_erotb>  (1) 
0.69427784923131142

>  <r_i_glide_esite>  (1) 
-0.015059656497168689

>  <r_i_glide_evdw>  (1) 
-40.229037491663149

>  <r_i_glide_gscore>  (1) 
-7.0706335753520948

>  <r_i_glide_gscore_strain>  (1) 
0

>  <r_i_glide_hbond>  (1) 
-0.16

>  <r_i_glide_ligand_efficiency>  (1) 
-0.1952413084557246

>  <r_i_glide_ligand_efficiency_ln>  (1) 
-1.4328816511402951

>  <r_i_glide_ligand_efficiency_sa>  (1) 
-0.62624319950504115

>  <r_i_glide_lipo>  (1) 
-3.4416917085807039

>  <r_i_glide_metal>  (1) 
-0

>  <r_i_glide_rewards>  (1) 
-1.3870542041272571

>  <r_lp_Energy>  (1) 
29.912270999999997

>  <s_epik_Chemistry_Notes>  (1) 
This compound has an imine and may undergo hydrolysis.

>  <s_epik_cmdline>  (1) 
J2VwaWtfcHl0aG9uJywgJy1waHQnLCAnMS4wJywgJy1waCcsICc3LjQnLCAnLXRuJywgJzgnLCAnLW1hJywgJzUwMCcsICctaW1hZScsICc8aW5maWxlLm1hZT4nLCAnLW9tYWUnLCAnPG91dGZpbGUubWFlPic=

>  <s_epik_input>  (1) 
RltDQEhdMVNbQ0gyXVtDQEhdKFtDSDJdMSlbQ0gyXVtDQEBIXShbQ0gyXUMjTilOKFtDSDJdW0NIMl0yKVtDSDJdW0NIMl1bQ0gyXVtDQEBIXShbT0hdKVtDQEhdMltOSF1DKD1bQ0hdXFtDSDNdKVxbQ0gyXVtDQEhdKE8zKVtDQF0zNFtDQEhdKFtDSDJdW09IXSlONFtDSDNd

>  <s_glide_docking_method>  (1) 
confgen

>  <s_i_glide_gridfile>  (1) 
gpcr_5ht2c_6bqh_protein_autoprepared_prepared

>  <s_lp_Force_Field>  (1) 
S-OPLS

>  <s_lp_Variant>  (1) 
DiffSBDD_3_num_sample_50-2

>  <s_m_source_file>  (1) 
generated__ligand_DiffSBDD_2026-05-06_prepared.sdf

>  <GenAI_Model>  (1) 
DiffSBDD

>  <Protein>  (1) 
GPCR_5HT2C

$$$$
DiffSBDD_42_num_sample_50
     RDKit          3D

  0  0  0  0  0  0  0  0  0  0999 V3000
M  V30 BEGIN CTAB
M  V30 COUNTS 35 37 0 0 1
M  V30 BEGIN ATOM
M  V30 1 C 39.446116 25.733314 56.528162 0
M  V30 2 F 40.166253 29.567816 50.701303 0
M  V30 3 C 39.867592 30.421313 52.955245 0
M  V30 4 O 38.384083 30.422177 60.253645 0 CHG=-1
M  V30 5 C 38.138584 30.430325 59.026785 0
M  V30 6 C 38.919671 28.238819 52.279641 0
M  V30 7 O 38.667344 31.180696 58.178131 0
M  V30 8 C 38.433326 28.147987 53.579105 0
M  V30 9 C 39.735545 27.194486 56.838045 0 CFG=1
M  V30 10 C 39.328515 30.229757 54.266018 0
M  V30 11 O 39.546071 26.197809 57.867395 0
M  V30 12 S 37.520898 26.942622 54.253770 0
M  V30 13 C 37.100908 29.428244 58.520693 0
M  V30 14 C 37.919457 28.573412 55.674626 0 CFG=1
M  V30 15 C 39.661950 29.407191 51.947846 0
M  V30 16 C 41.118278 27.815779 56.871941 0
M  V30 17 N 38.663239 28.212433 56.914190 0
M  V30 18 C 37.756920 28.101221 58.066134 0
M  V30 19 C 41.478775 28.420768 58.237047 0
M  V30 20 F 38.692872 27.262319 51.368108 0
M  V30 21 C 38.621029 29.050059 54.486077 0
M  V30 22 H 38.445684 25.385447 56.287841 0
M  V30 23 H 40.266700 25.093199 56.212211 0
M  V30 24 H 40.423887 31.315546 52.720331 0
M  V30 25 H 39.455296 30.967732 55.046241 0
M  V30 26 H 36.499592 29.897159 57.744375 0
M  V30 27 H 36.407726 29.222103 59.335996 0
M  V30 28 H 37.067226 29.222012 55.858417 0
M  V30 29 H 41.848983 27.039512 56.653494 0
M  V30 30 H 41.192193 28.565261 56.085047 0
M  V30 31 H 36.997242 27.348994 57.853164 0
M  V30 32 H 38.305408 27.749062 58.940002 0
M  V30 33 H 42.492371 28.821085 58.232717 0
M  V30 34 H 40.802184 29.232432 58.501902 0
M  V30 35 H 41.425861 27.672719 59.028358 0
M  V30 END ATOM
M  V30 BEGIN BOND
M  V30 1 1 5 4
M  V30 2 2 7 5
M  V30 3 1 8 6
M  V30 4 1 9 1
M  V30 5 2 10 3
M  V30 6 1 11 1
M  V30 7 1 11 9
M  V30 8 1 12 8
M  V30 9 1 13 5
M  V30 10 1 14 12
M  V30 11 1 15 2
M  V30 12 1 15 3
M  V30 13 2 15 6
M  V30 14 1 16 9
M  V30 15 1 9 17 CFG=1
M  V30 16 1 17 14
M  V30 17 1 18 13
M  V30 18 1 18 17
M  V30 19 1 19 16
M  V30 20 1 20 6
M  V30 21 2 21 8
M  V30 22 1 21 10
M  V30 23 1 21 14
M  V30 24 1 22 1
M  V30 25 1 23 1
M  V30 26 1 24 3
M  V30 27 1 25 10
M  V30 28 1 26 13
M  V30 29 1 27 13
M  V30 30 1 14 28 CFG=1
M  V30 31 1 29 16
M  V30 32 1 30 16
M  V30 33 1 31 18
M  V30 34 1 32 18
M  V30 35 1 33 19
M  V30 36 1 34 19
M  V30 37 1 35 19
M  V30 END BOND
M  V30 END CTAB
M  END
>  <i_epik_Tot_Q>  (1) 
-1

>  <i_epik_Tot_abs_Q>  (1) 
1

>  <i_i_glide_confnum>  (1) 
13

>  <i_i_glide_lignum>  (1) 
100

>  <i_i_glide_posenum>  (1) 
71

>  <i_i_glide_rotatable_bonds>  (1) 
6

>  <i_lp_mmshare_version>  (1) 
72125

>  <i_m_source_file_index>  (1) 
43

>  <i_f3d_flags>  (1) 
0

>  <num_sample>  (1) 
50

>  <b_lp_Chiralities_Consistent>  (1) 
1

>  <r_epik_Charging_Adjusted_Penalty>  (1) 
0.013340690829019033

>  <r_epik_Ionization_Penalty>  (1) 
0.013340690850919951

>  <r_epik_Ionization_Penalty_Charging>  (1) 
0.00047956300676926659

>  <r_epik_Ionization_Penalty_Neutral>  (1) 
0.012861127844150685

>  <r_epik_State_Penalty>  (1) 
0.012861127822249767

>  <r_glide_ring_energy>  (1) 
0

>  <r_i_docking_score>  (1) 
-6.4331844298336023

>  <r_i_glide_ecoul>  (1) 
-0.38935372820720454

>  <r_i_glide_eff_state_penalty>  (1) 
0.012861127822249767

>  <r_i_glide_einternal>  (1) 
9.3742231193477235

>  <r_i_glide_emodel>  (1) 
-40.068140438825374

>  <r_i_glide_emodel_strain>  (1) 
0.60268507560209628

>  <r_i_glide_energy>  (1) 
-31.002833127804671

>  <r_i_glide_erotb>  (1) 
0.75246386740588744

>  <r_i_glide_esite>  (1) 
-0.023734700610515302

>  <r_i_glide_evdw>  (1) 
-30.613479399597466

>  <r_i_glide_gscore>  (1) 
-6.446045557655852

>  <r_i_glide_gscore_strain>  (1) 
0

>  <r_i_glide_hbond>  (1) 
0

>  <r_i_glide_ligand_efficiency>  (1) 
-0.30634211570636199

>  <r_i_glide_ligand_efficiency_ln>  (1) 
-1.5905918508032082

>  <r_i_glide_ligand_efficiency_sa>  (1) 
-0.84517466926602491

>  <r_i_glide_lipo>  (1) 
-2.7953643492008289

>  <r_i_glide_metal>  (1) 
-0

>  <r_i_glide_rewards>  (1) 
-2.7903333460394411

>  <r_lp_Energy>  (1) 
21.586687999999999

>  <s_epik_Chemistry_Notes>  (1) 
This compound contains an acetal/aminal-like group ( X-CH(R)-Y where X, Y are N, S, or O) that may be acid/base labile, releasing an aldehyde.

>  <s_epik_cmdline>  (1) 
J2VwaWtfcHl0aG9uJywgJy1waHQnLCAnMS4wJywgJy1waCcsICc3LjQnLCAnLXRuJywgJzgnLCAnLW1hJywgJzUwMCcsICctaW1hZScsICc8aW5maWxlLm1hZT4nLCAnLW9tYWUnLCAnPG91dGZpbGUubWFlPic=

>  <s_epik_input>  (1) 
W09IXUMoPU8pW0NIMl1bQ0gyXU4oW0NAQF0xKFtDSDJdTzEpW0NIMl1bQ0gzXSlbQ0BIXShTMiljKGMyMylbY0hdW2NIXWMoRiljM0Y=

>  <s_glide_docking_method>  (1) 
confgen

>  <s_i_glide_gridfile>  (1) 
gpcr_5ht2c_6bqh_protein_autoprepared_prepared

>  <s_lp_Force_Field>  (1) 
S-OPLS

>  <s_lp_Variant>  (1) 
DiffSBDD_42_num_sample_50-1

>  <s_m_source_file>  (1) 
generated__ligand_DiffSBDD_2026-05-06_prepared.sdf

>  <GenAI_Model>  (1) 
DiffSBDD

>  <Protein>  (1) 
GPCR_5HT2C

$$$$
DiffSBDD_12_num_sample_50
     RDKit          3D

  0  0  0  0  0  0  0  0  0  0999 V3000
M  V30 BEGIN CTAB
M  V30 COUNTS 69 71 0 0 1
M  V30 BEGIN ATOM
M  V30 1 C 36.267260 35.423794 60.289597 0
M  V30 2 C 39.067416 28.844197 53.427840 0
M  V30 3 C 38.272093 31.702106 54.977690 0
M  V30 4 O 37.896434 33.089487 56.965025 0
M  V30 5 N 39.335523 29.520082 54.619649 0
M  V30 6 F 37.467441 23.931368 57.774836 0
M  V30 7 N 37.151112 31.221416 54.653498 0
M  V30 8 C 38.513704 34.517021 61.097633 0
M  V30 9 C 40.086860 29.941205 50.015477 0
M  V30 10 C 37.361462 35.485420 61.320180 0
M  V30 11 C 37.027688 34.669365 59.208815 0
M  V30 12 C 39.082305 33.248707 59.055349 0
M  V30 13 C 38.010935 24.753185 56.866767 0
M  V30 14 C 39.459605 26.817250 56.984524 0
M  V30 15 N 39.243048 29.601299 52.280095 0
M  V30 16 N 39.492833 28.826661 55.804009 0
M  V30 17 C 38.416210 33.060384 55.640795 0
M  V30 18 C 38.695487 33.483678 62.220318 0
M  V30 19 N 38.732881 27.586450 53.411568 0
M  V30 20 O 37.766237 30.063179 57.705677 0
M  V30 21 C 37.790667 25.760070 54.591741 0
M  V30 22 C 39.571533 30.955718 54.734939 0
M  V30 23 O 39.467449 31.204940 49.853574 0
M  V30 24 C 38.588993 32.317441 57.941704 0 CFG=1
M  V30 25 C 39.819566 35.330477 60.962379 0
M  V30 26 C 38.579797 26.879133 54.631085 0
M  V30 27 C 37.374041 24.902848 55.705250 0
M  V30 28 C 39.190977 27.491019 55.855244 0
M  V30 29 C 39.306508 25.366872 57.193338 0
M  V30 30 C 37.026900 28.993092 58.253321 0
M  V30 31 C 39.278915 29.022006 50.952913 0
M  V30 32 C 37.695506 31.213003 58.524480 0
M  V30 33 O 37.331262 36.273975 62.262461 0
M  V30 34 N 38.042749 33.844206 59.884564 0
M  V30 35 H 35.913199 36.402307 59.963743 0
M  V30 36 H 35.447013 34.821255 60.672659 0
M  V30 37 H 37.228117 30.294260 54.261786 0
M  V30 38 H 40.057757 31.359209 53.848249 0
M  V30 39 H 41.096228 30.088645 50.401444 0
M  V30 40 H 40.186632 29.472953 49.037756 0
M  V30 41 H 37.467400 35.381747 58.516201 0
M  V30 42 H 36.338182 34.050711 58.633324 0
M  V30 43 H 39.733734 32.671681 59.710038 0
M  V30 44 H 39.722171 34.021345 58.641914 0
M  V30 45 H 39.898233 27.356435 57.812698 0
M  V30 46 H 39.483051 30.582155 52.316765 0
M  V30 47 H 39.780572 29.333582 56.627398 0
M  V30 48 H 39.460801 33.376430 55.641946 0
M  V30 49 H 39.070079 33.963971 63.117110 0
M  V30 50 H 37.768929 32.951668 62.441618 0
M  V30 51 H 39.431280 32.727293 61.947197 0
M  V30 52 H 37.368024 25.516131 53.627627 0
M  V30 53 H 37.867487 33.793597 55.050653 0
M  V30 54 H 40.263286 31.148789 55.554115 0
M  V30 55 H 38.648477 31.055031 49.393543 0
M  V30 56 H 39.467394 31.850323 57.503837 0
M  V30 57 H 40.023607 35.913668 61.862497 0
M  V30 58 H 40.683538 34.688639 60.802294 0
M  V30 59 H 39.764454 36.021390 60.131838 0
M  V30 60 H 36.464192 24.335544 55.569919 0
M  V30 61 H 39.505702 25.193722 58.249863 0
M  V30 62 H 40.092804 24.847832 56.645329 0
M  V30 63 H 37.067400 28.126435 57.594721 0
M  V30 64 H 37.467383 28.719205 59.210919 0
M  V30 65 H 35.979163 29.258682 58.400604 0
M  V30 66 H 39.772728 28.050350 50.995449 0
M  V30 67 H 38.268068 28.835748 50.603434 0
M  V30 68 H 38.061854 30.939900 59.515845 0
M  V30 69 H 36.668814 31.557927 58.653562 0
M  V30 END ATOM
M  V30 BEGIN BOND
M  V30 1 1 5 2
M  V30 2 2 7 3
M  V30 3 1 10 1
M  V30 4 1 10 8
M  V30 5 1 11 1
M  V30 6 1 13 6
M  V30 7 1 15 2
M  V30 8 1 16 5
M  V30 9 1 17 3
M  V30 10 1 17 4
M  V30 11 1 18 8
M  V30 12 2 19 2
M  V30 13 1 22 3
M  V30 14 1 22 5
M  V30 15 1 23 9
M  V30 16 1 24 4
M  V30 17 1 24 12
M  V30 18 1 25 8
M  V30 19 1 26 19
M  V30 20 2 26 21
M  V30 21 2 27 13
M  V30 22 1 27 21
M  V30 23 2 28 14
M  V30 24 1 28 16
M  V30 25 1 28 26
M  V30 26 1 29 13
M  V30 27 1 29 14
M  V30 28 1 30 20
M  V30 29 1 31 9
M  V30 30 1 31 15
M  V30 31 1 32 20
M  V30 32 1 32 24
M  V30 33 2 33 10
M  V30 34 1 34 8
M  V30 35 1 34 11
M  V30 36 1 34 12
M  V30 37 1 35 1
M  V30 38 1 36 1
M  V30 39 1 37 7
M  V30 40 1 38 22
M  V30 41 1 39 9
M  V30 42 1 40 9
M  V30 43 1 41 11
M  V30 44 1 42 11
M  V30 45 1 43 12
M  V30 46 1 44 12
M  V30 47 1 45 14
M  V30 48 1 46 15
M  V30 49 1 47 16
M  V30 50 1 48 17
M  V30 51 1 49 18
M  V30 52 1 50 18
M  V30 53 1 51 18
M  V30 54 1 52 21
M  V30 55 1 53 17
M  V30 56 1 54 22
M  V30 57 1 55 23
M  V30 58 1 24 56 CFG=3
M  V30 59 1 57 25
M  V30 60 1 58 25
M  V30 61 1 59 25
M  V30 62 1 60 27
M  V30 63 1 61 29
M  V30 64 1 62 29
M  V30 65 1 63 30
M  V30 66 1 64 30
M  V30 67 1 65 30
M  V30 68 1 66 31
M  V30 69 1 67 31
M  V30 70 1 68 32
M  V30 71 1 69 32
M  V30 END BOND
M  V30 END CTAB
M  END
>  <i_epik_Tot_Q>  (1) 
0

>  <i_epik_Tot_abs_Q>  (1) 
0

>  <i_i_glide_confnum>  (1) 
920

>  <i_i_glide_lignum>  (1) 
39

>  <i_i_glide_posenum>  (1) 
145

>  <i_i_glide_rotatable_bonds>  (1) 
13

>  <i_lp_mmshare_version>  (1) 
72125

>  <i_m_source_file_index>  (1) 
13

>  <i_f3d_flags>  (1) 
0

>  <num_sample>  (1) 
50

>  <b_lp_Chiralities_Consistent>  (1) 
1

>  <r_epik_Charging_Adjusted_Penalty>  (1) 
0.55554580925232466

>  <r_epik_Ionization_Penalty>  (1) 
0.16124304309229381

>  <r_epik_Ionization_Penalty_Charging>  (1) 
0

>  <r_epik_Ionization_Penalty_Neutral>  (1) 
0.16124304309229381

>  <r_epik_State_Penalty>  (1) 
0.55554580925232466

>  <r_glide_ring_energy>  (1) 
0.004571206772424714

>  <r_i_docking_score>  (1) 
-6.4181919850093063

>  <r_i_glide_ecoul>  (1) 
-1.0874304897340812

>  <r_i_glide_eff_state_penalty>  (1) 
0.55554580925232466

>  <r_i_glide_einternal>  (1) 
12.624851100989353

>  <r_i_glide_emodel>  (1) 
-63.190122970026195

>  <r_i_glide_emodel_strain>  (1) 
1.0224340031568175

>  <r_i_glide_energy>  (1) 
-48.979749634067538

>  <r_i_glide_erotb>  (1) 
0.97331795518224939

>  <r_i_glide_esite>  (1) 
-0.029227936492416836

>  <r_i_glide_evdw>  (1) 
-47.892319144333456

>  <r_i_glide_gscore>  (1) 
-6.9737377942616305

>  <r_i_glide_gscore_strain>  (1) 
0

>  <r_i_glide_hbond>  (1) 
-0.32000000000000001

>  <r_i_glide_ligand_efficiency>  (1) 
-0.18877035250027371

>  <r_i_glide_ligand_efficiency_ln>  (1) 
-1.4179586336759098

>  <r_i_glide_ligand_efficiency_sa>  (1) 
-0.61154266169119731

>  <r_i_glide_lipo>  (1) 
-3.8719359870108523

>  <r_i_glide_metal>  (1) 
-0

>  <r_i_glide_rewards>  (1) 
-1.1681612952638252

>  <r_lp_Energy>  (1) 
34.747627000000001

>  <r_lp_tautomer_probability>  (1) 
0.49996700039999997

>  <s_epik_Chemistry_Notes>  (1) 
This compound has an imine and may undergo hydrolysis.

>  <s_epik_cmdline>  (1) 
J2VwaWtfcHl0aG9uJywgJy1waHQnLCAnMS4wJywgJy1waCcsICc3LjQnLCAnLXRuJywgJzgnLCAnLW1hJywgJzUwMCcsICctaW1hZScsICc8aW5maWxlLm1hZT4nLCAnLW9tYWUnLCAnPG91dGZpbGUubWFlPic=

>  <s_epik_input>  (1) 
W0NIM11DMShbQ0gzXSlDKD1PKVtDSDJdW0NIMl1OMVtDSDJdW0NAQEhdKFtDSDJdT1tDSDNdKU8vW0NIXT1DKFxbTkgyXSlbQ0gyXU4oQyg9TjIpW05IXVtDSDJdW0NIMl1bT0hdKVtOSF1DKEMyMyk9W0NIXVtDSDJdQyhGKT1bQ0hdW0NIXT0z

>  <s_glide_docking_method>  (1) 
confgen

>  <s_i_glide_gridfile>  (1) 
gpcr_5ht2c_6bqh_protein_autoprepared_prepared

>  <s_lp_Force_Field>  (1) 
S-OPLS

>  <s_lp_Variant>  (1) 
DiffSBDD_12_num_sample_50-1

>  <s_m_source_file>  (1) 
generated__ligand_DiffSBDD_2026-05-06_prepared.sdf

>  <GenAI_Model>  (1) 
DiffSBDD

>  <Protein>  (1) 
GPCR_5HT2C

$$$$
DiffSBDD_17_num_sample_50
     RDKit          3D

  0  0  0  0  0  0  0  0  0  0999 V3000
M  V30 BEGIN CTAB
M  V30 COUNTS 67 69 0 0 1
M  V30 BEGIN ATOM
M  V30 1 C 41.554094 28.173244 57.204327 0
M  V30 2 S 37.067403 36.811646 59.453647 0
M  V30 3 C 37.917874 25.939648 54.626061 0
M  V30 4 O 41.067383 29.256136 61.760451 0
M  V30 5 C 40.315481 30.034044 61.178778 0
M  V30 6 C 37.550922 24.588646 57.068472 0
M  V30 7 N 39.724450 29.657699 59.993320 0
M  V30 8 C 37.419427 30.828558 59.775056 0 CFG=2
M  V30 9 O 36.586374 29.683987 59.727252 0
M  V30 10 C 36.447943 33.270392 61.263569 0
M  V30 11 C 36.207705 34.680882 61.731513 0
M  V30 12 C 41.455644 28.356886 58.729749 0
M  V30 13 C 36.734513 32.057555 59.116841 0
M  V30 14 O 36.743094 40.109186 61.453519 0 CHG=-1
M  V30 15 C 38.589544 26.380975 55.776566 0
M  V30 16 C 40.044203 28.325746 59.394575 0 CFG=2
M  V30 17 C 38.931544 27.688724 58.534669 0
M  V30 18 C 37.067390 24.821663 54.692917 0
M  V30 19 C 35.939941 29.361702 58.510164 0
M  V30 20 N 36.836926 33.344008 59.837607 0 CFG=2 CHG=1
M  V30 21 C 37.524681 35.479314 61.703733 0 CFG=1
M  V30 22 C 38.066570 34.137982 59.582985 0
M  V30 23 C 36.832932 37.782081 60.983458 0 CFG=2
M  V30 24 C 37.468311 39.175204 61.053511 0
M  V30 25 C 39.125357 26.186190 58.248251 0
M  V30 26 C 38.052951 35.532206 60.273466 0 CFG=1
M  V30 27 C 38.837309 30.567024 59.205124 0
M  V30 28 O 38.667277 39.277512 60.717054 0
M  V30 29 C 37.333913 36.926379 62.168706 0
M  V30 30 S 40.072191 31.634265 61.927764 0 CHG=-1
M  V30 31 C 38.404777 25.708862 57.003374 0
M  V30 32 C 36.883293 24.145691 55.911359 0
M  V30 33 H 42.561059 28.421419 56.868632 0
M  V30 34 H 40.859129 28.821252 56.673168 0
M  V30 35 H 41.371923 27.148478 56.885199 0
M  V30 36 H 38.056221 26.457649 53.688111 0
M  V30 37 H 37.409562 24.069896 58.004453 0
M  V30 38 H 37.487517 30.968995 60.845311 0
M  V30 39 H 37.208239 32.806501 61.888806 0
M  V30 40 H 35.530382 32.689648 61.367041 0
M  V30 41 H 35.499889 35.061360 61.002732 0
M  V30 42 H 35.715880 34.709459 62.699445 0
M  V30 43 H 42.085135 27.603621 59.202902 0
M  V30 44 H 41.939895 29.300416 58.967527 0
M  V30 45 H 37.068220 32.180184 58.087730 0
M  V30 46 H 35.659290 31.901204 59.080909 0
M  V30 47 H 39.244774 27.236126 55.719036 0
M  V30 48 H 40.124540 27.637604 60.236978 0
M  V30 49 H 37.984071 27.798167 59.043175 0
M  V30 50 H 38.833145 28.240395 57.605415 0
M  V30 51 H 36.550480 24.485668 53.808935 0
M  V30 52 H 35.467509 28.397212 58.653481 0
M  V30 53 H 36.630114 29.306749 57.667987 0
M  V30 54 H 35.115429 30.021548 58.260550 0
M  V30 55 H 38.268195 34.988463 62.329843 0
M  V30 56 H 38.933804 33.589710 59.940742 0
M  V30 57 H 38.189386 34.238186 58.505959 0
M  V30 58 H 35.760239 37.936983 61.078042 0
M  V30 59 H 40.174476 25.909159 58.169020 0
M  V30 60 H 38.743529 25.621446 59.089696 0
M  V30 61 H 39.072963 35.918691 60.295234 0
M  V30 62 H 39.322773 31.530804 59.115712 0
M  V30 63 H 38.765756 30.263488 58.164563 0
M  V30 64 H 36.653378 36.985177 63.018414 0
M  V30 65 H 38.297023 37.291261 62.532513 0
M  V30 66 H 36.228100 23.287213 55.958465 0
M  V30 67 H 36.115890 33.904902 59.403754 0
M  V30 END ATOM
M  V30 BEGIN BOND
M  V30 1 2 5 4
M  V30 2 1 7 5
M  V30 3 1 9 8
M  V30 4 1 11 10
M  V30 5 1 12 1
M  V30 6 1 13 8
M  V30 7 1 15 3
M  V30 8 1 16 7
M  V30 9 1 16 12
M  V30 10 1 17 16
M  V30 11 2 18 3
M  V30 12 1 19 9
M  V30 13 1 20 10
M  V30 14 1 20 13
M  V30 15 1 21 11
M  V30 16 1 22 20
M  V30 17 1 23 2
M  V30 18 1 24 14
M  V30 19 1 24 23
M  V30 20 1 25 17
M  V30 21 1 26 2
M  V30 22 1 26 21
M  V30 23 1 26 22
M  V30 24 1 27 7
M  V30 25 1 27 8
M  V30 26 2 28 24
M  V30 27 1 29 21
M  V30 28 1 29 23
M  V30 29 1 30 5
M  V30 30 1 31 6
M  V30 31 2 31 15
M  V30 32 1 31 25
M  V30 33 2 32 6
M  V30 34 1 32 18
M  V30 35 1 33 1
M  V30 36 1 34 1
M  V30 37 1 35 1
M  V30 38 1 36 3
M  V30 39 1 37 6
M  V30 40 1 8 38 CFG=1
M  V30 41 1 39 10
M  V30 42 1 40 10
M  V30 43 1 41 11
M  V30 44 1 42 11
M  V30 45 1 43 12
M  V30 46 1 44 12
M  V30 47 1 45 13
M  V30 48 1 46 13
M  V30 49 1 47 15
M  V30 50 1 16 48 CFG=1
M  V30 51 1 49 17
M  V30 52 1 50 17
M  V30 53 1 51 18
M  V30 54 1 52 19
M  V30 55 1 53 19
M  V30 56 1 54 19
M  V30 57 1 21 55 CFG=1
M  V30 58 1 56 22
M  V30 59 1 57 22
M  V30 60 1 23 58 CFG=1
M  V30 61 1 59 25
M  V30 62 1 60 25
M  V30 63 1 26 61 CFG=1
M  V30 64 1 62 27
M  V30 65 1 63 27
M  V30 66 1 64 29
M  V30 67 1 65 29
M  V30 68 1 66 32
M  V30 69 1 20 67 CFG=3
M  V30 END BOND
M  V30 END CTAB
M  END
>  <i_epik_Tot_Q>  (1) 
-1

>  <i_epik_Tot_abs_Q>  (1) 
3

>  <i_i_glide_confnum>  (1) 
551

>  <i_i_glide_lignum>  (1) 
49

>  <i_i_glide_posenum>  (1) 
177

>  <i_i_glide_rotatable_bonds>  (1) 
12

>  <i_lp_mmshare_version>  (1) 
72125

>  <i_m_source_file_index>  (1) 
18

>  <i_f3d_flags>  (1) 
0

>  <num_sample>  (1) 
50

>  <b_lp_Chiralities_Consistent>  (1) 
1

>  <r_epik_Charging_Adjusted_Penalty>  (1) 
0.068943464179595071

>  <r_epik_Ionization_Penalty>  (1) 
0.034590213650767733

>  <r_epik_Ionization_Penalty_Charging>  (1) 
0.034589667735814351

>  <r_epik_Ionization_Penalty_Neutral>  (1) 
5.4591495337813188e-07

>  <r_epik_State_Penalty>  (1) 
0.034353796443780713

>  <r_glide_ring_energy>  (1) 
0

>  <r_i_docking_score>  (1) 
-6.4149403489513199

>  <r_i_glide_ecoul>  (1) 
-4.4155782919380648

>  <r_i_glide_eff_state_penalty>  (1) 
0.034353796443780713

>  <r_i_glide_einternal>  (1) 
25.286555109635021

>  <r_i_glide_emodel>  (1) 
-38.276116554810123

>  <r_i_glide_emodel_strain>  (1) 
5.6671265620168896

>  <r_i_glide_energy>  (1) 
-34.916703294707986

>  <r_i_glide_erotb>  (1) 
0.61675831554288163

>  <r_i_glide_esite>  (1) 
-0.039945006230687335

>  <r_i_glide_evdw>  (1) 
-30.501125002769925

>  <r_i_glide_gscore>  (1) 
-6.4492941453951005

>  <r_i_glide_gscore_strain>  (1) 
0.41678164050422239

>  <r_i_glide_hbond>  (1) 
-0.32000000000000001

>  <r_i_glide_ligand_efficiency>  (1) 
-0.20046688590472875

>  <r_i_glide_ligand_efficiency_ln>  (1) 
-1.4364800087997966

>  <r_i_glide_ligand_efficiency_sa>  (1) 
-0.63644269113991092

>  <r_i_glide_lipo>  (1) 
-4.1173178838289495

>  <r_i_glide_metal>  (1) 
-0

>  <r_i_glide_rewards>  (1) 
-0.81817821745336217

>  <r_lp_Energy>  (1) 
36.015979000000002

>  <s_epik_cmdline>  (1) 
J2VwaWtfcHl0aG9uJywgJy1waHQnLCAnMS4wJywgJy1waCcsICc3LjQnLCAnLXRuJywgJzgnLCAnLW1hJywgJzUwMCcsICctaW1hZScsICc8aW5maWxlLm1hZT4nLCAnLW9tYWUnLCAnPG91dGZpbGUubWFlPic=

>  <s_epik_input>  (1) 
W2NIXTFbY0hdW2NIXVtjSF1bY0hdYzFbQ0gyXVtDSDJdW0NAQEhdKFtDSDJdW0NIM10pTihDKD1PKVtTSF0pW0NIMl1bQ0hdKE9bQ0gzXSlbQ0gyXU4oW0NIMl1bQ0gyXTIpW0NIMl1bQ0BIXShbQ0BIXTIzKVNbQ0BASF0oW0NIMl0zKUMoPU8pW09IXQ==

>  <s_glide_docking_method>  (1) 
confgen

>  <s_i_glide_gridfile>  (1) 
gpcr_5ht2c_6bqh_protein_autoprepared_prepared

>  <s_lp_Force_Field>  (1) 
S-OPLS

>  <s_lp_Variant>  (1) 
DiffSBDD_17_num_sample_50-2

>  <s_m_source_file>  (1) 
generated__ligand_DiffSBDD_2026-05-06_prepared.sdf

>  <GenAI_Model>  (1) 
DiffSBDD

>  <Protein>  (1) 
GPCR_5HT2C

$$$$
DiffSBDD_19_num_sample_50
     RDKit          3D

  0  0  0  0  0  0  0  0  0  0999 V3000
M  V30 BEGIN CTAB
M  V30 COUNTS 46 49 0 0 1
M  V30 BEGIN ATOM
M  V30 1 N 37.986476 32.306174 58.635779 0
M  V30 2 C 39.843449 28.631967 57.554161 0
M  V30 3 C 37.793670 31.404419 59.792433 0
M  V30 4 C 38.750228 29.284296 55.284883 0
M  V30 5 N 39.041417 28.027447 54.843011 0
M  V30 6 C 40.674690 27.621446 56.804146 0
M  V30 7 C 39.403349 29.750998 56.608701 0 CFG=1
M  V30 8 F 35.467402 31.354036 59.853502 0
M  V30 9 O 38.667395 32.513329 56.388542 0
M  V30 10 O 38.004776 30.045681 54.667362 0
M  V30 11 N 36.439324 33.195961 60.831567 0
M  V30 12 N 37.067402 24.548808 55.491495 0
M  V30 13 C 39.185810 25.712406 55.842612 0 CFG=2
M  V30 14 O 38.502535 30.490742 57.416124 0
M  V30 15 C 38.650585 25.238984 57.196922 0
M  V30 16 O 35.155725 33.427326 61.453498 0
M  V30 17 C 36.448256 33.972458 59.594591 0
M  V30 18 C 39.897001 27.075974 55.601608 0 CFG=1
M  V30 19 C 38.442449 27.497892 53.600933 0
M  V30 20 C 36.515919 31.760523 60.563679 0 CFG=2
M  V30 21 C 37.921031 25.532431 55.053465 0
M  V30 22 C 37.589527 26.331663 54.029639 0
M  V30 23 C 37.781515 33.734592 58.863426 0
M  V30 24 C 38.406360 31.830734 57.380712 0
M  V30 25 C 37.475461 24.421430 56.684435 0
M  V30 26 H 40.422452 29.046866 58.380582 0
M  V30 27 H 38.972523 28.152242 58.000341 0
M  V30 28 H 37.743393 30.338740 59.570874 0
M  V30 29 H 38.655779 31.530322 60.447790 0
M  V30 30 H 41.006138 26.816227 57.461338 0
M  V30 31 H 41.581925 28.115262 56.455707 0
M  V30 32 H 40.267403 30.355999 56.335756 0
M  V30 33 H 38.281238 26.047467 57.825369 0
M  V30 34 H 35.378887 34.019344 62.156800 0
M  V30 35 H 35.611908 33.684735 58.954392 0
M  V30 36 H 36.330268 35.033057 59.819896 0
M  V30 37 H 40.667405 26.821409 54.874433 0
M  V30 38 H 37.817929 28.218365 53.070485 0
M  V30 39 H 39.212839 27.161732 52.906393 0
M  V30 40 H 36.481646 31.206979 61.498467 0
M  V30 41 H 36.667405 26.180204 53.496511 0
M  V30 42 H 37.770191 34.296308 57.928151 0
M  V30 43 H 38.614510 34.116974 59.454139 0
M  V30 44 H 37.022778 23.728656 57.397250 0
M  V30 45 H 39.867428 24.935182 55.489023 0
M  V30 46 H 39.365789 24.628749 57.747741 0
M  V30 END ATOM
M  V30 BEGIN BOND
M  V30 1 1 3 1
M  V30 2 1 5 4
M  V30 3 1 6 2
M  V30 4 1 7 2
M  V30 5 1 7 4
M  V30 6 2 10 4
M  V30 7 1 14 7
M  V30 8 1 15 13
M  V30 9 1 16 11
M  V30 10 1 17 11
M  V30 11 1 18 5
M  V30 12 1 18 6
M  V30 13 1 18 13
M  V30 14 1 19 5
M  V30 15 1 20 3
M  V30 16 1 20 8
M  V30 17 1 20 11
M  V30 18 1 21 12
M  V30 19 1 21 13
M  V30 20 1 22 19
M  V30 21 2 22 21
M  V30 22 1 23 1
M  V30 23 1 23 17
M  V30 24 1 24 1
M  V30 25 2 24 9
M  V30 26 1 24 14
M  V30 27 2 25 12
M  V30 28 1 25 15
M  V30 29 1 26 2
M  V30 30 1 27 2
M  V30 31 1 28 3
M  V30 32 1 29 3
M  V30 33 1 30 6
M  V30 34 1 31 6
M  V30 35 1 7 32 CFG=3
M  V30 36 1 33 15
M  V30 37 1 34 16
M  V30 38 1 35 17
M  V30 39 1 36 17
M  V30 40 1 18 37 CFG=3
M  V30 41 1 38 19
M  V30 42 1 39 19
M  V30 43 1 20 40 CFG=1
M  V30 44 1 41 22
M  V30 45 1 42 23
M  V30 46 1 43 23
M  V30 47 1 44 25
M  V30 48 1 13 45 CFG=3
M  V30 49 1 46 15
M  V30 END BOND
M  V30 END CTAB
M  END
>  <i_epik_Tot_Q>  (1) 
0

>  <i_epik_Tot_abs_Q>  (1) 
0

>  <i_i_glide_confnum>  (1) 
5

>  <i_i_glide_lignum>  (1) 
55

>  <i_i_glide_posenum>  (1) 
189

>  <i_i_glide_rotatable_bonds>  (1) 
4

>  <i_lp_mmshare_version>  (1) 
72125

>  <i_m_source_file_index>  (1) 
20

>  <i_f3d_flags>  (1) 
0

>  <num_sample>  (1) 
50

>  <b_lp_Chiralities_Consistent>  (1) 
1

>  <r_epik_Charging_Adjusted_Penalty>  (1) 
0

>  <r_epik_Ionization_Penalty>  (1) 
0.00023690808741792311

>  <r_epik_Ionization_Penalty_Charging>  (1) 
0

>  <r_epik_Ionization_Penalty_Neutral>  (1) 
0.00023690808741792311

>  <r_epik_State_Penalty>  (1) 
-0

>  <r_glide_ring_energy>  (1) 
0.27322882293606887

>  <r_i_docking_score>  (1) 
-6.4131291218501474

>  <r_i_glide_ecoul>  (1) 
0.95775559994049764

>  <r_i_glide_eff_state_penalty>  (1) 
-0

>  <r_i_glide_einternal>  (1) 
6.8382110028441794

>  <r_i_glide_emodel>  (1) 
-57.104755576114179

>  <r_i_glide_emodel_strain>  (1) 
0.84256020169758017

>  <r_i_glide_energy>  (1) 
-44.787197129531492

>  <r_i_glide_erotb>  (1) 
0.46110279215177946

>  <r_i_glide_esite>  (1) 
-0.22662968774933823

>  <r_i_glide_evdw>  (1) 
-45.74495272947199

>  <r_i_glide_gscore>  (1) 
-6.4131291218501474

>  <r_i_glide_gscore_strain>  (1) 
0

>  <r_i_glide_hbond>  (1) 
0

>  <r_i_glide_ligand_efficiency>  (1) 
-0.2565251648740059

>  <r_i_glide_ligand_efficiency_ln>  (1) 
-1.5201037878498107

>  <r_i_glide_ligand_efficiency_sa>  (1) 
-0.75008413238957328

>  <r_i_glide_lipo>  (1) 
-2.2061153242385698

>  <r_i_glide_metal>  (1) 
-0

>  <r_i_glide_rewards>  (1) 
-2.2979026055314944

>  <r_lp_Energy>  (1) 
47.112966999999998

>  <r_lp_tautomer_probability>  (1) 
1

>  <s_epik_Chemistry_Notes>  (1) 
This compound has an ester and may undergo hydrolysis at high or low pH. This compound has an imine and may undergo hydrolysis. This compound has a N-S or N-O group and may undergo hydrolysis at high or low pH.

>  <s_epik_cmdline>  (1) 
J2VwaWtfcHl0aG9uJywgJy1waHQnLCAnMS4wJywgJy1waCcsICc3LjQnLCAnLXRuJywgJzgnLCAnLW1hJywgJzUwMCcsICctaW1hZScsICc8aW5maWxlLm1hZT4nLCAnLW9tYWUnLCAnPG91dGZpbGUubWFlPic=

>  <s_epik_input>  (1) 
W0NIMl0xW0NIMl1OKFtPSF0pW0NAQEhdKEYpW0NIMl1OMUMoPU8pT1tDQEhdKEMyPU8pW0NIMl1bQ0gyXVtDQEBIXShOMjMpQz00QyhbQ0gyXVtDSDJdMyk9TltDSDJdW0NIXTQ=

>  <s_glide_docking_method>  (1) 
confgen

>  <s_i_glide_gridfile>  (1) 
gpcr_5ht2c_6bqh_protein_autoprepared_prepared

>  <s_lp_Force_Field>  (1) 
S-OPLS

>  <s_lp_Variant>  (1) 
DiffSBDD_19_num_sample_50-4

>  <s_m_source_file>  (1) 
generated__ligand_DiffSBDD_2026-05-06_prepared.sdf

>  <GenAI_Model>  (1) 
DiffSBDD

>  <Protein>  (1) 
GPCR_5HT2C

$$$$
DiffSBDD_6_num_sample_50
     RDKit          3D

  0  0  0  0  0  0  0  0  0  0999 V3000
M  V30 BEGIN CTAB
M  V30 COUNTS 65 68 0 0 1
M  V30 BEGIN ATOM
M  V30 1 N 38.440275 28.578837 56.235779 0
M  V30 2 N 38.122380 31.294142 56.725617 0 CHG=1
M  V30 3 C 37.882477 32.633897 56.750549 0
M  V30 4 C 38.435663 24.942673 55.069359 0
M  V30 5 C 43.130917 30.334822 64.950374 0
M  V30 6 N 39.137203 32.052246 60.011312 0
M  V30 7 N 38.208479 33.062619 57.996999 0
M  V30 8 N 38.538203 30.511736 61.855053 0
M  V30 9 C 39.116063 27.157446 58.095506 0
M  V30 10 C 42.665798 32.981723 65.803607 0
M  V30 11 N 38.936377 29.611165 58.319427 0
M  V30 12 O 41.664487 30.701496 63.069394 0
M  V30 13 C 39.449028 34.085575 61.009350 0
M  V30 14 C 39.466130 37.132592 63.454307 0
M  V30 15 F 42.444980 34.253306 66.213555 0
M  V30 16 C 38.643351 31.995543 58.716676 0
M  V30 17 C 42.270891 31.173051 64.207932 0
M  V30 18 C 37.875870 27.686182 54.040127 0
M  V30 19 C 39.908423 36.233609 62.297376 0
M  V30 20 F 43.356910 29.063731 64.541894 0
M  V30 21 C 43.755876 30.820511 66.116106 0
M  V30 22 C 39.252384 29.446382 59.753512 0
M  V30 23 C 38.319721 27.464317 55.476104 0
M  V30 24 C 43.522933 32.143182 66.542946 0
M  V30 25 C 38.990552 26.012984 57.294881 0
M  V30 26 C 39.013885 34.997922 62.146211 0
M  V30 27 C 39.341795 30.740258 60.661823 0 CFG=1
M  V30 28 C 38.583288 26.162027 55.962479 0
M  V30 29 O 38.519004 33.021045 60.842653 0
M  V30 30 F 41.222148 33.307752 63.922772 0
M  V30 31 C 39.241255 30.743146 63.110586 0
M  V30 32 C 42.040822 32.498526 64.635293 0
M  V30 33 C 38.583965 30.915489 57.944527 0
M  V30 34 C 40.514632 29.895174 63.308991 0
M  V30 35 C 38.828190 28.429488 57.530208 0
M  V30 36 H 37.498815 33.233537 55.942423 0
M  V30 37 H 38.143483 34.016221 58.328142 0
M  V30 38 H 38.089600 24.089311 55.652804 0
M  V30 39 H 39.408599 24.683758 54.653426 0
M  V30 40 H 37.725739 25.083364 54.255222 0
M  V30 41 H 38.264446 29.540465 61.866825 0
M  V30 42 H 39.425709 27.059669 59.122494 0
M  V30 43 H 40.442768 33.696876 61.244937 0
M  V30 44 H 39.534130 34.650602 60.081539 0
M  V30 45 H 40.038477 38.058783 63.453901 0
M  V30 46 H 39.616562 36.643471 64.417258 0
M  V30 47 H 38.410592 37.392681 63.371412 0
M  V30 48 H 38.576241 27.226883 53.342417 0
M  V30 49 H 37.817982 28.749042 53.802916 0
M  V30 50 H 36.886673 27.258862 53.875350 0
M  V30 51 H 39.889142 36.810280 61.375506 0
M  V30 52 H 40.945561 35.930421 62.449505 0
M  V30 53 H 44.414682 30.178006 66.682488 0
M  V30 54 H 40.213668 28.936052 59.830190 0
M  V30 55 H 38.509457 28.765163 60.170939 0
M  V30 56 H 44.003145 32.514649 67.436608 0
M  V30 57 H 39.202910 25.034135 57.699202 0
M  V30 58 H 39.067432 34.407154 63.053562 0
M  V30 59 H 37.976093 35.300131 62.002494 0
M  V30 60 H 40.390457 30.794331 60.948906 0
M  V30 61 H 39.435809 31.803680 63.262569 0
M  V30 62 H 38.537286 30.421522 63.876617 0
M  V30 63 H 40.527387 29.028767 62.646302 0
M  V30 64 H 40.524000 29.488215 64.322269 0
M  V30 65 H 37.965789 30.677902 55.935566 0
M  V30 END ATOM
M  V30 BEGIN BOND
M  V30 1 2 3 2
M  V30 2 1 7 3
M  V30 3 1 15 10
M  V30 4 1 16 6
M  V30 5 1 16 7
M  V30 6 2 17 5
M  V30 7 1 17 12
M  V30 8 1 19 14
M  V30 9 1 20 5
M  V30 10 1 21 5
M  V30 11 1 22 11
M  V30 12 1 23 1
M  V30 13 1 23 18
M  V30 14 1 24 10
M  V30 15 2 24 21
M  V30 16 2 25 9
M  V30 17 1 26 13
M  V30 18 1 26 19
M  V30 19 1 27 6
M  V30 20 1 27 8
M  V30 21 1 27 22
M  V30 22 1 28 4
M  V30 23 2 28 23
M  V30 24 1 28 25
M  V30 25 1 29 6
M  V30 26 1 29 13
M  V30 27 1 31 8
M  V30 28 2 32 10
M  V30 29 1 32 17
M  V30 30 1 32 30
M  V30 31 1 33 2
M  V30 32 1 33 11
M  V30 33 2 33 16
M  V30 34 1 34 12
M  V30 35 1 34 31
M  V30 36 2 35 1
M  V30 37 1 35 9
M  V30 38 1 35 11
M  V30 39 1 36 3
M  V30 40 1 37 7
M  V30 41 1 38 4
M  V30 42 1 39 4
M  V30 43 1 40 4
M  V30 44 1 41 8
M  V30 45 1 42 9
M  V30 46 1 43 13
M  V30 47 1 44 13
M  V30 48 1 45 14
M  V30 49 1 46 14
M  V30 50 1 47 14
M  V30 51 1 48 18
M  V30 52 1 49 18
M  V30 53 1 50 18
M  V30 54 1 51 19
M  V30 55 1 52 19
M  V30 56 1 53 21
M  V30 57 1 54 22
M  V30 58 1 55 22
M  V30 59 1 56 24
M  V30 60 1 57 25
M  V30 61 1 58 26
M  V30 62 1 59 26
M  V30 63 1 27 60 CFG=1
M  V30 64 1 61 31
M  V30 65 1 62 31
M  V30 66 1 63 34
M  V30 67 1 64 34
M  V30 68 1 65 2
M  V30 END BOND
M  V30 END CTAB
M  END
>  <i_epik_Tot_Q>  (1) 
1

>  <i_epik_Tot_abs_Q>  (1) 
1

>  <i_i_glide_confnum>  (1) 
13

>  <i_i_glide_lignum>  (1) 
20

>  <i_i_glide_posenum>  (1) 
244

>  <i_i_glide_rotatable_bonds>  (1) 
10

>  <i_lp_mmshare_version>  (1) 
72125

>  <i_m_source_file_index>  (1) 
7

>  <i_f3d_flags>  (1) 
0

>  <num_sample>  (1) 
50

>  <b_lp_Chiralities_Consistent>  (1) 
1

>  <r_epik_Charging_Adjusted_Penalty>  (1) 
0.17211517054128123

>  <r_epik_Ionization_Penalty>  (1) 
0.10319272176977491

>  <r_epik_Ionization_Penalty_Charging>  (1) 
0

>  <r_epik_Ionization_Penalty_Neutral>  (1) 
0.10319272176977491

>  <r_epik_State_Penalty>  (1) 
0.17211517054128123

>  <r_glide_ring_energy>  (1) 
0

>  <r_i_docking_score>  (1) 
-6.4112262651622984

>  <r_i_glide_ecoul>  (1) 
-2.8029861024945171

>  <r_i_glide_eff_state_penalty>  (1) 
0.17211517054128123

>  <r_i_glide_einternal>  (1) 
7.7672873532305324

>  <r_i_glide_emodel>  (1) 
-56.412447974644671

>  <r_i_glide_emodel_strain>  (1) 
0.61949225988345802

>  <r_i_glide_energy>  (1) 
-39.2733873711557

>  <r_i_glide_erotb>  (1) 
0.67408029721787976

>  <r_i_glide_esite>  (1) 
-0.26518448494646979

>  <r_i_glide_evdw>  (1) 
-36.470401268661185

>  <r_i_glide_gscore>  (1) 
-6.5833414357035798

>  <r_i_glide_gscore_strain>  (1) 
0

>  <r_i_glide_hbond>  (1) 
-0.093475377841859913

>  <r_i_glide_ligand_efficiency>  (1) 
-0.18317789329035139

>  <r_i_glide_ligand_efficiency_ln>  (1) 
-1.4074064547037244

>  <r_i_glide_ligand_efficiency_sa>  (1) 
-0.59918703551338903

>  <r_i_glide_lipo>  (1) 
-3.5293789013377257

>  <r_i_glide_metal>  (1) 
-0

>  <r_i_glide_rewards>  (1) 
-1.1254149899881674

>  <r_lp_Energy>  (1) 
50.162378999999994

>  <r_lp_tautomer_probability>  (1) 
0.70072779002327656

>  <s_epik_Chemistry_Notes>  (1) 
This compound contains an acetal/aminal-like group ( X-CH(R)-Y where X, Y are N, S, or O) that may be acid/base labile, releasing an aldehyde. This compound has a N-S or N-O group and may undergo hydrolysis at high or low pH.

>  <s_epik_cmdline>  (1) 
J2VwaWtfcHl0aG9uJywgJy1waHQnLCAnMS4wJywgJy1waCcsICc3LjQnLCAnLXRuJywgJzgnLCAnLW1hJywgJzUwMCcsICctaW1hZScsICc8aW5maWxlLm1hZT4nLCAnLW9tYWUnLCAnPG91dGZpbGUubWFlPic=

>  <s_epik_input>  (1) 
W0NIM11jMVtjSF1bY0hdYyhuYzFbQ0gzXSlOKEMoQzIzKT1OW0NIMl1OPTMpW0NIMl1bQ0BASF0oTjJPW0NIMl1bQ0gyXVtDSDJdW0NIM10pW05IXVtDSDJdW0NIMl1PYyhjNEYpYyhGKWMoRilbY0hdW2NIXTQ=

>  <s_glide_docking_method>  (1) 
confgen

>  <s_i_glide_gridfile>  (1) 
gpcr_5ht2c_6bqh_protein_autoprepared_prepared

>  <s_lp_Force_Field>  (1) 
S-OPLS

>  <s_lp_Variant>  (1) 
DiffSBDD_6_num_sample_50-1

>  <s_m_source_file>  (1) 
generated__ligand_DiffSBDD_2026-05-06_prepared.sdf

>  <GenAI_Model>  (1) 
DiffSBDD

>  <Protein>  (1) 
GPCR_5HT2C

$$$$
DiffSBDD_10_num_sample_50
     RDKit          3D

  0  0  0  0  0  0  0  0  0  0999 V3000
M  V30 BEGIN CTAB
M  V30 COUNTS 65 67 0 0 1
M  V30 BEGIN ATOM
M  V30 1 C 36.302783 33.729891 59.279215 0
M  V30 2 C 36.127406 34.897533 60.219424 0
M  V30 3 C 41.474563 34.200653 64.058733 0
M  V30 4 N 38.572946 34.777383 60.897347 0 CFG=1 CHG=1
M  V30 5 O 38.467602 28.812779 57.132419 0 CHG=-1
M  V30 6 O 38.667401 33.588811 56.045741 0
M  V30 7 C 39.006690 27.759002 51.109521 0
M  V30 8 C 41.321636 35.470960 63.457581 0
M  V30 9 C 39.867410 30.126512 52.356689 0
M  V30 10 O 40.667391 28.821427 55.853524 0
M  V30 11 N 37.692827 27.188124 53.053501 0
M  V30 12 C 40.373431 35.653519 62.432915 0
M  V30 13 C 38.816221 31.062607 54.838352 0
M  V30 14 C 38.561527 28.057538 52.408624 0
M  V30 15 C 37.154992 34.884700 61.368162 0 CFG=1
M  V30 16 C 36.905884 37.482179 61.635687 0
M  V30 17 C 39.588954 34.568108 62.018657 0
M  V30 18 O 38.950568 26.973492 55.433744 0
M  V30 19 C 38.770128 33.771986 59.812677 0
M  V30 20 N 37.867404 32.589384 57.913968 0
M  V30 21 C 36.923962 36.095885 62.310651 0
M  V30 22 P 39.054097 28.390234 55.839731 0
M  V30 23 C 41.198566 30.773894 50.313523 0
M  V30 24 C 39.867400 28.642897 50.440137 0
M  V30 25 C 38.312197 32.583614 56.661271 0
M  V30 26 N 38.331950 31.357538 56.156075 0
M  V30 27 C 40.674767 33.113155 63.635436 0
M  V30 28 O 40.218707 36.872268 61.853501 0 CHG=-1
M  V30 29 F 42.387112 34.024759 65.043537 0
M  V30 30 C 39.724579 33.295594 62.611406 0
M  V30 31 C 38.994690 29.244791 53.047520 0
M  V30 32 C 37.706220 33.788632 58.701527 0 CFG=1
M  V30 33 C 38.488346 29.599734 54.457875 0 CFG=2
M  V30 34 C 40.290541 29.822269 51.055705 0
M  V30 35 H 35.560591 33.784159 58.481817 0
M  V30 36 H 36.130196 32.789734 59.806344 0
M  V30 37 H 36.172009 35.821196 59.641864 0
M  V30 38 H 35.125443 34.816996 60.624622 0
M  V30 39 H 38.680245 26.852181 50.621300 0
M  V30 40 H 41.932017 36.300773 63.784208 0
M  V30 41 H 40.202242 31.041334 52.815316 0
M  V30 42 H 40.671329 29.761563 55.915923 0
M  V30 43 H 37.529568 26.284314 52.633998 0
M  V30 44 H 37.699947 27.174187 54.072902 0
M  V30 45 H 39.892322 31.239445 54.866750 0
M  V30 46 H 38.370806 31.753913 54.118551 0
M  V30 47 H 36.957393 33.965685 61.917920 0
M  V30 48 H 36.839451 38.267005 62.387728 0
M  V30 49 H 37.808278 37.660331 61.052214 0
M  V30 50 H 36.052622 37.621445 60.972399 0
M  V30 51 H 38.776345 32.767125 60.232202 0
M  V30 52 H 39.758522 33.925039 59.376556 0
M  V30 53 H 37.586168 31.714342 58.330564 0
M  V30 54 H 35.979789 35.958372 62.840511 0
M  V30 55 H 37.679841 36.108947 63.094309 0
M  V30 56 H 41.717643 30.282840 49.490277 0
M  V30 57 H 40.615480 31.596792 49.900718 0
M  V30 58 H 41.941939 31.178420 50.993278 0
M  V30 59 H 40.199150 28.421407 49.452829 0
M  V30 60 H 38.023713 30.575158 56.731776 0
M  V30 61 H 40.791935 32.144566 64.098353 0
M  V30 62 H 39.111612 32.467923 62.290075 0
M  V30 63 H 37.778213 34.685607 58.089000 0
M  V30 64 H 37.400564 29.532356 54.403646 0
M  V30 65 H 38.785739 35.682494 60.496406 0
M  V30 END ATOM
M  V30 BEGIN BOND
M  V30 1 1 2 1
M  V30 2 2 8 3
M  V30 3 1 12 8
M  V30 4 1 14 7
M  V30 5 1 14 11
M  V30 6 1 15 2
M  V30 7 1 15 4
M  V30 8 1 17 4
M  V30 9 2 17 12
M  V30 10 1 19 4
M  V30 11 1 21 15
M  V30 12 1 21 16
M  V30 13 1 22 5
M  V30 14 1 22 10
M  V30 15 2 22 18
M  V30 16 2 24 7
M  V30 17 2 25 6
M  V30 18 1 25 20
M  V30 19 1 26 13
M  V30 20 1 26 25
M  V30 21 1 27 3
M  V30 22 1 28 12
M  V30 23 1 29 3
M  V30 24 1 30 17
M  V30 25 2 30 27
M  V30 26 1 31 9
M  V30 27 2 31 14
M  V30 28 1 32 1
M  V30 29 1 32 19
M  V30 30 1 32 20
M  V30 31 1 33 13
M  V30 32 1 33 22
M  V30 33 1 33 31
M  V30 34 2 34 9
M  V30 35 1 34 23
M  V30 36 1 34 24
M  V30 37 1 35 1
M  V30 38 1 36 1
M  V30 39 1 37 2
M  V30 40 1 38 2
M  V30 41 1 39 7
M  V30 42 1 40 8
M  V30 43 1 41 9
M  V30 44 1 42 10
M  V30 45 1 43 11
M  V30 46 1 44 11
M  V30 47 1 45 13
M  V30 48 1 46 13
M  V30 49 1 15 47 CFG=1
M  V30 50 1 48 16
M  V30 51 1 49 16
M  V30 52 1 50 16
M  V30 53 1 51 19
M  V30 54 1 52 19
M  V30 55 1 53 20
M  V30 56 1 54 21
M  V30 57 1 55 21
M  V30 58 1 56 23
M  V30 59 1 57 23
M  V30 60 1 58 23
M  V30 61 1 59 24
M  V30 62 1 60 26
M  V30 63 1 61 27
M  V30 64 1 62 30
M  V30 65 1 32 63 CFG=3
M  V30 66 1 33 64 CFG=3
M  V30 67 1 4 65 CFG=3
M  V30 END BOND
M  V30 END CTAB
M  END
>  <i_epik_Tot_Q>  (1) 
-1

>  <i_epik_Tot_abs_Q>  (1) 
3

>  <i_i_glide_confnum>  (1) 
40

>  <i_i_glide_lignum>  (1) 
36

>  <i_i_glide_posenum>  (1) 
288

>  <i_i_glide_rotatable_bonds>  (1) 
10

>  <i_lp_mmshare_version>  (1) 
72125

>  <i_m_source_file_index>  (1) 
11

>  <i_f3d_flags>  (1) 
0

>  <num_sample>  (1) 
50

>  <b_lp_Chiralities_Consistent>  (1) 
1

>  <r_epik_Charging_Adjusted_Penalty>  (1) 
0.95893062563682818

>  <r_epik_Ionization_Penalty>  (1) 
0.45630296270815951

>  <r_epik_Ionization_Penalty_Charging>  (1) 
0.042165092744118775

>  <r_epik_Ionization_Penalty_Neutral>  (1) 
0.41413786996404073

>  <r_epik_State_Penalty>  (1) 
0.91676553289270946

>  <r_glide_ring_energy>  (1) 
0

>  <r_i_docking_score>  (1) 
-6.4106369573444839

>  <r_i_glide_ecoul>  (1) 
-1.3989154124515035

>  <r_i_glide_eff_state_penalty>  (1) 
0.91676553289270946

>  <r_i_glide_einternal>  (1) 
12.089981243643122

>  <r_i_glide_emodel>  (1) 
-56.967143585402766

>  <r_i_glide_emodel_strain>  (1) 
3.6290094037058154

>  <r_i_glide_energy>  (1) 
-46.450952817822596

>  <r_i_glide_erotb>  (1) 
0.66918926381983879

>  <r_i_glide_esite>  (1) 
-0.25568877036792181

>  <r_i_glide_evdw>  (1) 
-45.052037405371095

>  <r_i_glide_gscore>  (1) 
-7.3274024902371933

>  <r_i_glide_gscore_strain>  (1) 
0

>  <r_i_glide_hbond>  (1) 
-0.031653122613896086

>  <r_i_glide_ligand_efficiency>  (1) 
-0.18854814580424953

>  <r_i_glide_ligand_efficiency_ln>  (1) 
-1.4162895161534024

>  <r_i_glide_ligand_efficiency_sa>  (1) 
-0.61082279825643448

>  <r_i_glide_lipo>  (1) 
-4.3590517923078158

>  <r_i_glide_metal>  (1) 
-0

>  <r_i_glide_rewards>  (1) 
-0.88775888663111835

>  <r_lp_Energy>  (1) 
33.820101999999999

>  <s_epik_cmdline>  (1) 
J2VwaWtfcHl0aG9uJywgJy1waHQnLCAnMS4wJywgJy1waCcsICc3LjQnLCAnLXRuJywgJzgnLCAnLW1hJywgJzUwMCcsICctaW1hZScsICc8aW5maWxlLm1hZT4nLCAnLW9tYWUnLCAnPG91dGZpbGUubWFlPic=

>  <s_epik_input>  (1) 
RmMxW2NIXWMoW09IXSljKFtjSF1bY0hdMSlOMltDQEBIXShbQ0gyXVtDSDNdKVtDSDJdW0NIMl1bQ0BASF0oW0NIMl0yKVtOSF1DKD1PKVtOSF1bQ0gyXVtDQEhdKFAoPU8pKFtPSF0pW09IXSljM1tjSF1jKFtDSDNdKVtjSF1bY0hdYzNbTkgyXQ==

>  <s_glide_docking_method>  (1) 
confgen

>  <s_i_glide_gridfile>  (1) 
gpcr_5ht2c_6bqh_protein_autoprepared_prepared

>  <s_lp_Force_Field>  (1) 
S-OPLS

>  <s_lp_Variant>  (1) 
DiffSBDD_10_num_sample_50-5

>  <s_m_source_file>  (1) 
generated__ligand_DiffSBDD_2026-05-06_prepared.sdf

>  <GenAI_Model>  (1) 
DiffSBDD

>  <Protein>  (1) 
GPCR_5HT2C

$$$$
DiffSBDD_17_num_sample_50
     RDKit          3D

  0  0  0  0  0  0  0  0  0  0999 V3000
M  V30 BEGIN CTAB
M  V30 COUNTS 67 69 0 0 1
M  V30 BEGIN ATOM
M  V30 1 C 36.756538 27.854200 53.806834 0
M  V30 2 S 36.667413 35.817794 59.885690 0
M  V30 3 C 39.607689 28.298427 50.902429 0
M  V30 4 O 37.879867 26.349112 57.853667 0
M  V30 5 C 38.224706 26.976381 56.856728 0
M  V30 6 C 40.150787 30.961917 51.600884 0
M  V30 7 N 37.902555 28.318097 56.750023 0
M  V30 8 C 38.057343 29.551052 58.931231 0 CFG=2
M  V30 9 O 38.503219 28.466630 59.737873 0
M  V30 10 C 39.027811 32.068302 60.715036 0
M  V30 11 C 39.829424 33.332762 60.436969 0
M  V30 12 C 37.166601 29.191605 54.431048 0
M  V30 13 C 37.293228 30.583868 59.798990 0
M  V30 14 O 37.510966 38.591648 61.053496 0 CHG=-1
M  V30 15 C 39.624033 28.680221 52.253508 0
M  V30 16 C 38.221050 29.191277 55.571085 0 CFG=2
M  V30 17 C 39.705752 29.428308 55.208552 0
M  V30 18 C 39.868041 29.251114 49.903930 0
M  V30 19 C 39.825860 28.549183 60.240304 0
M  V30 20 N 37.928900 31.922047 59.730174 0 CFG=1 CHG=1
M  V30 21 C 38.964336 34.585015 60.390970 0 CFG=1
M  V30 22 C 36.980303 33.063222 59.804333 0
M  V30 23 C 37.502320 36.242443 61.450587 0 CFG=2
M  V30 24 C 38.188832 37.621406 61.453523 0
M  V30 25 C 39.950163 30.461114 54.080824 0
M  V30 26 C 37.711301 34.396766 59.517942 0 CFG=1
M  V30 27 C 37.144634 28.977572 57.830425 0
M  V30 28 O 39.372840 37.676644 61.853681 0
M  V30 29 C 38.472742 35.077541 61.749194 0
M  V30 30 S 39.121991 26.067669 55.609361 0 CHG=-1
M  V30 31 C 39.896487 30.021430 52.608427 0
M  V30 32 C 40.138140 30.580475 50.253531 0
M  V30 33 H 36.008193 27.987717 53.032508 0
M  V30 34 H 36.351047 27.221439 54.583620 0
M  V30 35 H 37.557016 27.301199 53.333360 0
M  V30 36 H 39.405344 27.272127 50.632496 0
M  V30 37 H 40.359808 31.982245 51.862496 0
M  V30 38 H 38.905283 30.029533 58.437209 0
M  V30 39 H 39.715736 31.235191 60.630160 0
M  V30 40 H 38.636410 32.060843 61.733628 0
M  V30 41 H 40.645875 33.448544 61.151565 0
M  V30 42 H 40.267372 33.221481 59.453406 0
M  V30 43 H 37.467398 29.869015 53.637821 0
M  V30 44 H 36.270970 29.655617 54.849840 0
M  V30 45 H 36.257514 30.656078 59.461451 0
M  V30 46 H 37.230915 30.263921 60.837013 0
M  V30 47 H 39.449465 27.945370 53.017693 0
M  V30 48 H 38.034894 30.192726 55.962889 0
M  V30 49 H 40.165467 29.835815 56.109411 0
M  V30 50 H 40.267406 28.526587 55.051060 0
M  V30 51 H 39.867387 28.964622 48.871249 0
M  V30 52 H 40.150270 27.564067 60.565954 0
M  V30 53 H 39.875648 29.191340 61.116948 0
M  V30 54 H 40.538018 28.890117 59.487643 0
M  V30 55 H 39.582001 35.382138 59.976519 0
M  V30 56 H 36.183172 32.928969 59.070039 0
M  V30 57 H 36.503391 33.077613 60.784891 0
M  V30 58 H 36.747779 36.279442 62.237016 0
M  V30 59 H 39.283793 31.314986 54.211053 0
M  V30 60 H 40.951510 30.865887 54.231440 0
M  V30 61 H 37.952511 34.421002 58.456340 0
M  V30 62 H 36.545546 29.779590 57.399857 0
M  V30 63 H 36.396438 28.310007 58.253417 0
M  V30 64 H 37.939963 34.275185 62.253007 0
M  V30 65 H 39.302410 35.337433 62.407534 0
M  V30 66 H 40.338846 31.312392 49.485042 0
M  V30 67 H 38.332452 31.986690 58.806100 0
M  V30 END ATOM
M  V30 BEGIN BOND
M  V30 1 2 5 4
M  V30 2 1 7 5
M  V30 3 1 9 8
M  V30 4 1 11 10
M  V30 5 1 12 1
M  V30 6 1 13 8
M  V30 7 1 15 3
M  V30 8 1 16 7
M  V30 9 1 16 12
M  V30 10 1 17 16
M  V30 11 2 18 3
M  V30 12 1 19 9
M  V30 13 1 20 10
M  V30 14 1 20 13
M  V30 15 1 21 11
M  V30 16 1 22 20
M  V30 17 1 23 2
M  V30 18 1 24 14
M  V30 19 1 24 23
M  V30 20 1 25 17
M  V30 21 1 26 2
M  V30 22 1 26 21
M  V30 23 1 26 22
M  V30 24 1 27 7
M  V30 25 1 27 8
M  V30 26 2 28 24
M  V30 27 1 29 21
M  V30 28 1 29 23
M  V30 29 1 30 5
M  V30 30 1 31 6
M  V30 31 2 31 15
M  V30 32 1 31 25
M  V30 33 2 32 6
M  V30 34 1 32 18
M  V30 35 1 33 1
M  V30 36 1 34 1
M  V30 37 1 35 1
M  V30 38 1 36 3
M  V30 39 1 37 6
M  V30 40 1 8 38 CFG=3
M  V30 41 1 39 10
M  V30 42 1 40 10
M  V30 43 1 41 11
M  V30 44 1 42 11
M  V30 45 1 43 12
M  V30 46 1 44 12
M  V30 47 1 45 13
M  V30 48 1 46 13
M  V30 49 1 47 15
M  V30 50 1 16 48 CFG=1
M  V30 51 1 49 17
M  V30 52 1 50 17
M  V30 53 1 51 18
M  V30 54 1 52 19
M  V30 55 1 53 19
M  V30 56 1 54 19
M  V30 57 1 21 55 CFG=3
M  V30 58 1 56 22
M  V30 59 1 57 22
M  V30 60 1 23 58 CFG=1
M  V30 61 1 59 25
M  V30 62 1 60 25
M  V30 63 1 26 61 CFG=3
M  V30 64 1 62 27
M  V30 65 1 63 27
M  V30 66 1 64 29
M  V30 67 1 65 29
M  V30 68 1 66 32
M  V30 69 1 20 67 CFG=3
M  V30 END BOND
M  V30 END CTAB
M  END
>  <i_epik_Tot_Q>  (1) 
-1

>  <i_epik_Tot_abs_Q>  (1) 
3

>  <i_i_glide_confnum>  (1) 
728

>  <i_i_glide_lignum>  (1) 
48

>  <i_i_glide_posenum>  (1) 
48

>  <i_i_glide_rotatable_bonds>  (1) 
12

>  <i_lp_mmshare_version>  (1) 
72125

>  <i_m_source_file_index>  (1) 
18

>  <i_f3d_flags>  (1) 
0

>  <num_sample>  (1) 
50

>  <b_lp_Chiralities_Consistent>  (1) 
1

>  <r_epik_Charging_Adjusted_Penalty>  (1) 
0.068943464179595071

>  <r_epik_Ionization_Penalty>  (1) 
0.034590213650767733

>  <r_epik_Ionization_Penalty_Charging>  (1) 
0.034589667735814351

>  <r_epik_Ionization_Penalty_Neutral>  (1) 
5.4591495337813188e-07

>  <r_epik_State_Penalty>  (1) 
0.034353796443780713

>  <r_glide_ring_energy>  (1) 
0

>  <r_i_docking_score>  (1) 
-6.4104670963626047

>  <r_i_glide_ecoul>  (1) 
-2.256725314551935

>  <r_i_glide_eff_state_penalty>  (1) 
0.034353796443780713

>  <r_i_glide_einternal>  (1) 
16.630364499324589

>  <r_i_glide_emodel>  (1) 
-40.703090557777728

>  <r_i_glide_emodel_strain>  (1) 
3.5104452383244933

>  <r_i_glide_energy>  (1) 
-30.067157184487034

>  <r_i_glide_erotb>  (1) 
0.61675831554288163

>  <r_i_glide_esite>  (1) 
-0.031561821635811713

>  <r_i_glide_evdw>  (1) 
-27.810431869935098

>  <r_i_glide_gscore>  (1) 
-6.4448208928063853

>  <r_i_glide_gscore_strain>  (1) 
0

>  <r_i_glide_hbond>  (1) 
0

>  <r_i_glide_ligand_efficiency>  (1) 
-0.2003270967613314

>  <r_i_glide_ligand_efficiency_ln>  (1) 
-1.4354783256089232

>  <r_i_glide_ligand_efficiency_sa>  (1) 
-0.63599888827334561

>  <r_i_glide_lipo>  (1) 
-3.8123930323941737

>  <r_i_glide_metal>  (1) 
-0

>  <r_i_glide_rewards>  (1) 
-1.4885939636397372

>  <r_lp_Energy>  (1) 
40.638894999999998

>  <s_epik_cmdline>  (1) 
J2VwaWtfcHl0aG9uJywgJy1waHQnLCAnMS4wJywgJy1waCcsICc3LjQnLCAnLXRuJywgJzgnLCAnLW1hJywgJzUwMCcsICctaW1hZScsICc8aW5maWxlLm1hZT4nLCAnLW9tYWUnLCAnPG91dGZpbGUubWFlPic=

>  <s_epik_input>  (1) 
W2NIXTFbY0hdW2NIXVtjSF1bY0hdYzFbQ0gyXVtDSDJdW0NAQEhdKFtDSDJdW0NIM10pTihDKD1PKVtTSF0pW0NIMl1bQ0hdKE9bQ0gzXSlbQ0gyXU4oW0NIMl1bQ0gyXTIpW0NIMl1bQ0BIXShbQ0BIXTIzKVNbQ0BASF0oW0NIMl0zKUMoPU8pW09IXQ==

>  <s_glide_docking_method>  (1) 
confgen

>  <s_i_glide_gridfile>  (1) 
gpcr_5ht2c_6bqh_protein_autoprepared_prepared

>  <s_lp_Force_Field>  (1) 
S-OPLS

>  <s_lp_Variant>  (1) 
DiffSBDD_17_num_sample_50-1

>  <s_m_source_file>  (1) 
generated__ligand_DiffSBDD_2026-05-06_prepared.sdf

>  <GenAI_Model>  (1) 
DiffSBDD

>  <Protein>  (1) 
GPCR_5HT2C

$$$$
DiffSBDD_31_num_sample_50
     RDKit          3D

  0  0  0  0  0  0  0  0  0  0999 V3000
M  V30 BEGIN CTAB
M  V30 COUNTS 35 36 0 0 1
M  V30 BEGIN ATOM
M  V30 1 C 39.116254 30.028312 53.450965 0
M  V30 2 C 38.354045 28.841248 53.440021 0
M  V30 3 C 39.867427 29.569851 51.174784 0
M  V30 4 C 38.744033 27.457553 56.721653 0
M  V30 5 C 39.335635 27.640955 57.994414 0
M  V30 6 C 37.521907 28.450317 54.654429 0
M  V30 7 C 38.186063 28.588942 56.036655 0
M  V30 8 O 39.947030 29.081524 59.811880 0
M  V30 9 O 37.458735 24.114618 55.659440 0
M  V30 10 C 39.109248 28.384741 51.160815 0
M  V30 11 C 38.224765 29.860064 56.652709 0
M  V30 12 C 38.710029 26.047097 56.111782 0 CFG=2
M  V30 13 C 39.670589 25.866953 54.926000 0
M  V30 14 C 38.350259 28.021510 52.289215 0
M  V30 15 C 39.868283 30.391763 52.318266 0
M  V30 16 F 39.867407 26.583389 58.653405 0
M  V30 17 N 37.363070 25.543636 55.858074 0
M  V30 18 C 38.815586 30.021409 57.917723 0
M  V30 19 C 39.372041 28.917392 58.584795 0
M  V30 20 H 39.121203 30.663752 54.321628 0
M  V30 21 H 40.446936 29.850669 50.307566 0
M  V30 22 H 37.067395 27.485296 54.472681 0
M  V30 23 H 36.672245 29.134782 54.653503 0
M  V30 24 H 40.283260 28.264098 60.150216 0
M  V30 25 H 37.123168 24.015474 54.779631 0
M  V30 26 H 39.105851 27.755721 50.282252 0
M  V30 27 H 37.794139 30.715759 56.150911 0
M  V30 28 H 39.095975 25.385243 56.887628 0
M  V30 29 H 40.667469 26.219010 55.187457 0
M  V30 30 H 39.766579 24.818624 54.653535 0
M  V30 31 H 39.353355 26.402087 54.040301 0
M  V30 32 H 37.764911 27.113876 52.273230 0
M  V30 33 H 40.448804 31.302295 52.326407 0
M  V30 34 H 36.742892 25.620622 56.653455 0
M  V30 35 H 38.840435 30.998056 58.378408 0
M  V30 END ATOM
M  V30 BEGIN BOND
M  V30 1 1 2 1
M  V30 2 1 5 4
M  V30 3 1 6 2
M  V30 4 2 7 4
M  V30 5 1 7 6
M  V30 6 2 10 3
M  V30 7 1 11 7
M  V30 8 1 12 4
M  V30 9 1 13 12
M  V30 10 2 14 2
M  V30 11 1 14 10
M  V30 12 2 15 1
M  V30 13 1 15 3
M  V30 14 1 16 5
M  V30 15 1 17 9
M  V30 16 1 17 12
M  V30 17 2 18 11
M  V30 18 2 19 5
M  V30 19 1 19 8
M  V30 20 1 19 18
M  V30 21 1 20 1
M  V30 22 1 21 3
M  V30 23 1 22 6
M  V30 24 1 23 6
M  V30 25 1 24 8
M  V30 26 1 25 9
M  V30 27 1 26 10
M  V30 28 1 27 11
M  V30 29 1 12 28 CFG=1
M  V30 30 1 29 13
M  V30 31 1 30 13
M  V30 32 1 31 13
M  V30 33 1 32 14
M  V30 34 1 33 15
M  V30 35 1 34 17
M  V30 36 1 35 18
M  V30 END BOND
M  V30 END CTAB
M  END
>  <i_epik_Tot_Q>  (1) 
0

>  <i_epik_Tot_abs_Q>  (1) 
0

>  <i_i_glide_confnum>  (1) 
69

>  <i_i_glide_lignum>  (1) 
83

>  <i_i_glide_posenum>  (1) 
150

>  <i_i_glide_rotatable_bonds>  (1) 
6

>  <i_lp_mmshare_version>  (1) 
72125

>  <i_m_source_file_index>  (1) 
32

>  <i_f3d_flags>  (1) 
0

>  <num_sample>  (1) 
50

>  <b_lp_Chiralities_Consistent>  (1) 
1

>  <r_epik_Charging_Adjusted_Penalty>  (1) 
0.023527113832685478

>  <r_epik_Ionization_Penalty>  (1) 
0.024468661873060751

>  <r_epik_Ionization_Penalty_Charging>  (1) 
0

>  <r_epik_Ionization_Penalty_Neutral>  (1) 
0.024468661873060751

>  <r_epik_State_Penalty>  (1) 
0.023527113832685478

>  <r_glide_ring_energy>  (1) 
0

>  <r_i_docking_score>  (1) 
-6.4093977742930601

>  <r_i_glide_ecoul>  (1) 
-2.1251755882405856

>  <r_i_glide_eff_state_penalty>  (1) 
0.023527113832685478

>  <r_i_glide_einternal>  (1) 
3.4356401232068325

>  <r_i_glide_emodel>  (1) 
-49.794872325866599

>  <r_i_glide_emodel_strain>  (1) 
0.18756574449776053

>  <r_i_glide_energy>  (1) 
-35.347849620907326

>  <r_i_glide_erotb>  (1) 
1.038060136543584

>  <r_i_glide_esite>  (1) 
0

>  <r_i_glide_evdw>  (1) 
-33.222674032666738

>  <r_i_glide_gscore>  (1) 
-6.4329248881257453

>  <r_i_glide_gscore_strain>  (1) 
0

>  <r_i_glide_hbond>  (1) 
0

>  <r_i_glide_ligand_efficiency>  (1) 
-0.33733672496279266

>  <r_i_glide_ligand_efficiency_ln>  (1) 
-1.6249199970251607

>  <r_i_glide_ligand_efficiency_sa>  (1) 
-0.90014987306517724

>  <r_i_glide_lipo>  (1) 
-3.1491037017640271

>  <r_i_glide_metal>  (1) 
-0

>  <r_i_glide_rewards>  (1) 
-2.3419712830358779

>  <r_lp_Energy>  (1) 
22.995338

>  <r_lp_tautomer_probability>  (1) 
0.99999999999736477

>  <s_epik_Chemistry_Notes>  (1) 
This compound has a N-S or N-O group and may undergo hydrolysis at high or low pH.

>  <s_epik_cmdline>  (1) 
J2VwaWtfcHl0aG9uJywgJy1waHQnLCAnMS4wJywgJy1waCcsICc3LjQnLCAnLXRuJywgJzgnLCAnLW1hJywgJzUwMCcsICctaW1hZScsICc8aW5maWxlLm1hZT4nLCAnLW9tYWUnLCAnPG91dGZpbGUubWFlPic=

>  <s_epik_input>  (1) 
W2NIXTFbY0hdW2NIXVtjSF1bY0hdYzFbQ0gyXWMyW2NIXVtjSF1jKFtPSF0pYyhGKWMyW0NASF0oW0NIM10pW05IXVtPSF0=

>  <s_glide_docking_method>  (1) 
confgen

>  <s_i_glide_gridfile>  (1) 
gpcr_5ht2c_6bqh_protein_autoprepared_prepared

>  <s_lp_Force_Field>  (1) 
S-OPLS

>  <s_lp_Variant>  (1) 
DiffSBDD_31_num_sample_50-1

>  <s_m_source_file>  (1) 
generated__ligand_DiffSBDD_2026-05-06_prepared.sdf

>  <GenAI_Model>  (1) 
DiffSBDD

>  <Protein>  (1) 
GPCR_5HT2C

$$$$
DiffSBDD_33_num_sample_50
     RDKit          3D

  0  0  0  0  0  0  0  0  0  0999 V3000
M  V30 BEGIN CTAB
M  V30 COUNTS 78 81 0 0 1
M  V30 BEGIN ATOM
M  V30 1 C 38.503305 28.172480 58.559034 0
M  V30 2 C 38.628214 28.770898 55.257361 0 CFG=1
M  V30 3 C 38.476935 33.574695 59.976484 0
M  V30 4 C 39.161988 29.047263 53.831705 0
M  V30 5 C 40.606331 32.325984 63.631850 0
M  V30 6 C 38.860676 33.293524 58.540136 0 CFG=2
M  V30 7 C 37.495569 29.782342 55.607736 0
M  V30 8 C 39.467631 31.586986 63.053501 0
M  V30 9 C 40.793367 27.466078 58.123870 0
M  V30 10 O 36.667328 22.916692 55.195274 0
M  V30 11 C 41.230431 28.242747 59.202716 0
M  V30 12 C 41.261428 33.437328 62.782800 0 CFG=2
M  V30 13 C 39.527196 33.015050 60.957897 0 CFG=2
M  V30 14 C 41.115303 28.878324 62.142531 0
M  V30 15 C 40.307371 28.975489 59.971080 0
M  V30 16 C 41.939035 34.499329 63.677136 0
M  V30 17 C 38.944089 28.950792 59.639181 0
M  V30 18 C 38.074749 24.054042 56.768781 0
M  V30 19 C 36.921007 25.196304 54.730557 0
M  V30 20 O 37.853486 33.625370 57.584265 0
M  V30 21 N 37.866943 31.208122 55.474847 0 CHG=1
M  V30 22 C 38.977227 31.909432 61.840070 0
M  V30 23 O 39.364789 34.937175 62.434097 0
M  V30 24 O 40.735785 29.701660 61.045261 0
M  V30 25 C 37.827230 26.389454 54.360528 0 CFG=2
M  V30 26 C 40.281484 34.087727 61.772326 0 CFG=1
M  V30 27 C 38.211741 32.244930 57.675383 0 CFG=1
M  V30 28 C 37.602286 23.971042 55.304214 0 CFG=2
M  V30 29 C 38.088566 25.442019 57.396283 0
M  V30 30 O 41.049932 32.078943 64.752353 0
M  V30 31 C 38.944093 26.526180 56.684296 0 CFG=2
M  V30 32 C 39.428296 27.417826 57.807203 0
M  V30 33 C 38.873829 31.708282 56.431842 0
M  V30 34 C 38.163886 27.288196 55.574381 0 CFG=1
M  V30 35 O 37.067423 27.156324 53.453482 0
M  V30 36 O 42.266756 32.821482 62.004115 0
M  V30 37 H 37.453408 28.135910 58.315834 0
M  V30 38 H 39.484193 28.980532 55.889250 0
M  V30 39 H 38.374536 34.655469 60.082657 0
M  V30 40 H 37.484627 33.162384 60.169435 0
M  V30 41 H 38.363321 29.318614 53.140456 0
M  V30 42 H 39.869686 29.876856 53.832095 0
M  V30 43 H 39.664910 28.180844 53.407473 0
M  V30 44 H 39.858986 33.620525 58.257285 0
M  V30 45 H 36.652415 29.618866 54.937963 0
M  V30 46 H 37.110987 29.626837 56.614604 0
M  V30 47 H 39.033861 30.782357 63.628616 0
M  V30 48 H 41.505717 26.890367 57.550764 0
M  V30 49 H 35.923855 23.104088 55.748116 0
M  V30 50 H 42.269493 28.264104 59.454029 0
M  V30 51 H 40.267365 32.496405 60.349384 0
M  V30 52 H 41.538309 29.491367 62.937787 0
M  V30 53 H 40.245216 28.357700 62.545326 0
M  V30 54 H 41.863214 28.133223 61.870454 0
M  V30 55 H 41.254112 34.878350 64.436729 0
M  V30 56 H 42.806369 34.096213 64.200004 0
M  V30 57 H 42.267071 35.361677 63.097142 0
M  V30 58 H 38.234073 29.513186 60.223733 0
M  V30 59 H 37.441675 23.436760 57.409936 0
M  V30 60 H 39.070645 23.622762 56.861676 0
M  V30 61 H 36.402090 24.851647 53.829998 0
M  V30 62 H 36.171859 25.506469 55.453754 0
M  V30 63 H 38.193407 31.371979 54.534610 0
M  V30 64 H 38.143025 31.351296 61.444157 0
M  V30 65 H 38.803746 34.409651 62.981210 0
M  V30 66 H 38.730335 26.047327 53.853667 0
M  V30 67 H 40.842618 34.725772 61.086761 0
M  V30 68 H 37.467510 31.607148 58.146636 0
M  V30 69 H 38.437703 23.751944 54.653675 0
M  V30 70 H 37.069902 25.789276 57.573954 0
M  V30 71 H 38.486465 25.279010 58.399550 0
M  V30 72 H 39.818407 26.054339 56.232292 0
M  V30 73 H 39.603904 30.951319 56.712381 0
M  V30 74 H 39.430891 32.517429 55.957430 0
M  V30 75 H 37.215988 27.399880 56.066968 0
M  V30 76 H 36.860176 26.624153 52.693335 0
M  V30 77 H 41.853469 32.162528 61.468081 0
M  V30 78 H 37.019125 31.753235 55.629645 0
M  V30 END ATOM
M  V30 BEGIN BOND
M  V30 1 1 4 2
M  V30 2 1 6 3
M  V30 3 1 7 2
M  V30 4 1 8 5
M  V30 5 2 11 9
M  V30 6 1 12 5
M  V30 7 1 13 3
M  V30 8 1 15 11
M  V30 9 1 16 12
M  V30 10 1 17 1
M  V30 11 2 17 15
M  V30 12 1 20 6
M  V30 13 1 21 7
M  V30 14 2 22 8
M  V30 15 1 22 13
M  V30 16 1 24 14
M  V30 17 1 24 15
M  V30 18 1 25 19
M  V30 19 1 26 12
M  V30 20 1 26 13
M  V30 21 1 26 23
M  V30 22 1 27 6
M  V30 23 1 27 20
M  V30 24 1 28 10
M  V30 25 1 28 18
M  V30 26 1 28 19
M  V30 27 1 29 18
M  V30 28 2 30 5
M  V30 29 1 31 29
M  V30 30 2 32 1
M  V30 31 1 32 9
M  V30 32 1 32 31
M  V30 33 1 33 21
M  V30 34 1 33 27
M  V30 35 1 34 2
M  V30 36 1 34 25
M  V30 37 1 34 31
M  V30 38 1 35 25
M  V30 39 1 12 36 CFG=3
M  V30 40 1 37 1
M  V30 41 1 2 38 CFG=1
M  V30 42 1 39 3
M  V30 43 1 40 3
M  V30 44 1 41 4
M  V30 45 1 42 4
M  V30 46 1 43 4
M  V30 47 1 6 44 CFG=3
M  V30 48 1 45 7
M  V30 49 1 46 7
M  V30 50 1 47 8
M  V30 51 1 48 9
M  V30 52 1 49 10
M  V30 53 1 50 11
M  V30 54 1 13 51 CFG=3
M  V30 55 1 52 14
M  V30 56 1 53 14
M  V30 57 1 54 14
M  V30 58 1 55 16
M  V30 59 1 56 16
M  V30 60 1 57 16
M  V30 61 1 58 17
M  V30 62 1 59 18
M  V30 63 1 60 18
M  V30 64 1 61 19
M  V30 65 1 62 19
M  V30 66 1 63 21
M  V30 67 1 64 22
M  V30 68 1 65 23
M  V30 69 1 25 66 CFG=3
M  V30 70 1 26 67 CFG=3
M  V30 71 1 27 68 CFG=1
M  V30 72 1 28 69 CFG=3
M  V30 73 1 70 29
M  V30 74 1 71 29
M  V30 75 1 31 72 CFG=3
M  V30 76 1 73 33
M  V30 77 1 74 33
M  V30 78 1 34 75 CFG=1
M  V30 79 1 76 35
M  V30 80 1 77 36
M  V30 81 1 78 21
M  V30 END BOND
M  V30 END CTAB
M  END
>  <i_epik_Tot_Q>  (1) 
1

>  <i_epik_Tot_abs_Q>  (1) 
1

>  <i_i_glide_confnum>  (1) 
468

>  <i_i_glide_lignum>  (1) 
86

>  <i_i_glide_posenum>  (1) 
185

>  <i_i_glide_rotatable_bonds>  (1) 
13

>  <i_lp_mmshare_version>  (1) 
72125

>  <i_m_source_file_index>  (1) 
34

>  <i_f3d_flags>  (1) 
0

>  <num_sample>  (1) 
50

>  <b_lp_Chiralities_Consistent>  (1) 
1

>  <r_epik_Charging_Adjusted_Penalty>  (1) 
0.0021184864287466625

>  <r_epik_Ionization_Penalty>  (1) 
0.0021212372829442611

>  <r_epik_Ionization_Penalty_Charging>  (1) 
0.0021184864287466625

>  <r_epik_Ionization_Penalty_Neutral>  (1) 
2.7508541975987684e-06

>  <r_epik_State_Penalty>  (1) 
-0

>  <r_glide_ring_energy>  (1) 
0

>  <r_i_docking_score>  (1) 
-6.3927452796458031

>  <r_i_glide_ecoul>  (1) 
-5.6520545177979642

>  <r_i_glide_eff_state_penalty>  (1) 
-0

>  <r_i_glide_einternal>  (1) 
22.174893163936993

>  <r_i_glide_emodel>  (1) 
-45.272304957196084

>  <r_i_glide_emodel_strain>  (1) 
2.7938365282127791

>  <r_i_glide_energy>  (1) 
-40.979608850458405

>  <r_i_glide_erotb>  (1) 
0.64233652918665762

>  <r_i_glide_esite>  (1) 
-0.090967819016328361

>  <r_i_glide_evdw>  (1) 
-35.327554332660441

>  <r_i_glide_gscore>  (1) 
-6.3927452796458031

>  <r_i_glide_gscore_strain>  (1) 
0

>  <r_i_glide_hbond>  (1) 
-0.76608363615209352

>  <r_i_glide_ligand_efficiency>  (1) 
-0.17757625776793898

>  <r_i_glide_ligand_efficiency_ln>  (1) 
-1.3947243080005913

>  <r_i_glide_ligand_efficiency_sa>  (1) 
-0.58634388428069395

>  <r_i_glide_lipo>  (1) 
-4.6297151148712015

>  <r_i_glide_metal>  (1) 
-0

>  <r_i_glide_rewards>  (1) 
1.0658706555098802

>  <r_lp_Energy>  (1) 
54.687307999999994

>  <r_lp_tautomer_probability>  (1) 
1

>  <s_epik_cmdline>  (1) 
J2VwaWtfcHl0aG9uJywgJy1waHQnLCAnMS4wJywgJy1waCcsICc3LjQnLCAnLXRuJywgJzgnLCAnLW1hJywgJzUwMCcsICctaW1hZScsICc8aW5maWxlLm1hZT4nLCAnLW9tYWUnLCAnPG91dGZpbGUubWFlPic=

>  <s_epik_input>  (1) 
W0NIM11PYzFbY0hdW2NIXWMoW2NIXVtjSF0xKVtDQEBIXShbQ0gyXVtDSDJdW0NAQEhdKFtPSF0pW0NIMl1bQ0BIXTJbT0hdKVtDQEhdMltDQEBIXShbQ0gzXSlbQ0gyXVtOSF1bQ0gyXVtDQEBIXTNPW0NASF0zW0NIMl1bQ0BASF0oW0NASF00W09IXSlbQ0hdPVtDSF1DKD1PKVtDQEBdNChbQ0gzXSlbT0hd

>  <s_glide_docking_method>  (1) 
confgen

>  <s_i_glide_gridfile>  (1) 
gpcr_5ht2c_6bqh_protein_autoprepared_prepared

>  <s_lp_Force_Field>  (1) 
S-OPLS

>  <s_lp_Variant>  (1) 
DiffSBDD_33_num_sample_50-1

>  <s_m_source_file>  (1) 
generated__ligand_DiffSBDD_2026-05-06_prepared.sdf

>  <GenAI_Model>  (1) 
DiffSBDD

>  <Protein>  (1) 
GPCR_5HT2C

$$$$
DiffSBDD_10_num_sample_50
     RDKit          3D

  0  0  0  0  0  0  0  0  0  0999 V3000
M  V30 BEGIN CTAB
M  V30 COUNTS 65 67 0 0 1
M  V30 BEGIN ATOM
M  V30 1 C 40.983445 31.718561 62.525802 0
M  V30 2 C 41.224755 32.743444 63.637039 0
M  V30 3 C 38.197083 38.143552 61.288382 0
M  V30 4 N 39.512637 34.267726 62.564751 0
M  V30 5 O 41.033026 28.393912 56.942395 0 CHG=-1
M  V30 6 O 38.870175 31.598453 59.352693 0
M  V30 7 C 37.407737 25.332781 55.134384 0
M  V30 8 C 37.341699 37.046754 61.147785 0
M  V30 9 C 38.244897 28.005938 55.448466 0
M  V30 10 O 40.813818 28.009718 59.473385 0
M  V30 11 N 37.697604 24.939206 57.502735 0
M  V30 12 C 37.747840 35.767907 61.568097 0
M  V30 13 C 38.107070 29.122193 58.257421 0
M  V30 14 C 37.758130 25.803432 56.409405 0
M  V30 15 C 40.827295 34.212331 63.281584 0 CFG=1
M  V30 16 C 41.300113 34.448917 65.923093 0
M  V30 17 C 39.063424 35.576679 62.134133 0
M  V30 18 O 40.667310 26.022694 57.853441 0
M  V30 19 C 39.264326 33.210783 61.565089 0
M  V30 20 N 39.036617 30.631196 61.404860 0
M  V30 21 C 40.915695 35.102567 64.580400 0
M  V30 22 P 40.419615 27.473110 57.920937 0
M  V30 23 C 37.948103 28.438367 52.973858 0
M  V30 24 C 37.467415 26.191873 54.024670 0
M  V30 25 C 38.763924 30.620992 60.086664 0
M  V30 26 N 38.375261 29.416400 59.660922 0
M  V30 27 C 39.468213 37.980204 61.853676 0
M  V30 28 O 36.863716 34.733164 61.453450 0
M  V30 29 F 37.796988 39.369927 60.880328 0
M  V30 30 C 39.909095 36.713502 62.266484 0
M  V30 31 C 38.175869 27.152282 56.574463 0
M  V30 32 C 39.509288 31.812861 62.145678 0 CFG=1
M  V30 33 C 38.560488 27.679975 57.956640 0 CFG=2
M  V30 34 C 37.886598 27.524037 54.177569 0
M  V30 35 H 41.225671 30.719085 62.890388 0
M  V30 36 H 41.623043 31.914292 61.663250 0
M  V30 37 H 40.644845 32.397353 64.493121 0
M  V30 38 H 42.272393 32.705663 63.934953 0
M  V30 39 H 37.086859 24.309974 55.005346 0
M  V30 40 H 36.359310 37.185890 60.722282 0
M  V30 41 H 38.569061 29.030298 55.562139 0
M  V30 42 H 41.740732 27.855543 59.570791 0
M  V30 43 H 37.603585 23.947568 57.342566 0
M  V30 44 H 38.180505 25.197360 58.351589 0
M  V30 45 H 37.035937 29.227959 58.081667 0
M  V30 46 H 38.613150 29.827234 57.596511 0
M  V30 47 H 41.579781 34.561284 62.572830 0
M  V30 48 H 41.389508 35.206675 66.702134 0
M  V30 49 H 40.545629 33.738504 66.258844 0
M  V30 50 H 42.260193 33.934955 65.869907 0
M  V30 51 H 38.281679 33.157047 61.134666 0
M  V30 52 H 39.942013 33.392637 60.730012 0
M  V30 53 H 38.926604 29.774729 61.926706 0
M  V30 54 H 41.675676 35.868205 64.423773 0
M  V30 55 H 39.982426 35.636911 64.740407 0
M  V30 56 H 38.311004 27.895454 52.100742 0
M  V30 57 H 36.952427 28.818476 52.750521 0
M  V30 58 H 38.613537 29.283484 53.151301 0
M  V30 59 H 37.184363 25.827654 53.053752 0
M  V30 60 H 38.313988 28.657226 60.319993 0
M  V30 61 H 40.114487 38.834077 61.959147 0
M  V30 62 H 36.141926 34.909765 60.869838 0
M  V30 63 H 40.896625 36.620095 62.670472 0
M  V30 64 H 38.914422 31.750108 63.053111 0
M  V30 65 H 38.152686 27.039371 58.732531 0
M  V30 END ATOM
M  V30 BEGIN BOND
M  V30 1 1 2 1
M  V30 2 2 8 3
M  V30 3 1 12 8
M  V30 4 1 14 7
M  V30 5 1 14 11
M  V30 6 1 15 2
M  V30 7 1 15 4
M  V30 8 1 17 4
M  V30 9 2 17 12
M  V30 10 1 19 4
M  V30 11 1 21 15
M  V30 12 1 21 16
M  V30 13 1 22 5
M  V30 14 1 22 10
M  V30 15 2 22 18
M  V30 16 2 24 7
M  V30 17 2 25 6
M  V30 18 1 25 20
M  V30 19 1 26 13
M  V30 20 1 26 25
M  V30 21 1 27 3
M  V30 22 1 28 12
M  V30 23 1 29 3
M  V30 24 1 30 17
M  V30 25 2 30 27
M  V30 26 1 31 9
M  V30 27 2 31 14
M  V30 28 1 32 1
M  V30 29 1 32 19
M  V30 30 1 32 20
M  V30 31 1 33 13
M  V30 32 1 33 22
M  V30 33 1 33 31
M  V30 34 2 34 9
M  V30 35 1 34 23
M  V30 36 1 34 24
M  V30 37 1 35 1
M  V30 38 1 36 1
M  V30 39 1 37 2
M  V30 40 1 38 2
M  V30 41 1 39 7
M  V30 42 1 40 8
M  V30 43 1 41 9
M  V30 44 1 42 10
M  V30 45 1 43 11
M  V30 46 1 44 11
M  V30 47 1 45 13
M  V30 48 1 46 13
M  V30 49 1 15 47 CFG=3
M  V30 50 1 48 16
M  V30 51 1 49 16
M  V30 52 1 50 16
M  V30 53 1 51 19
M  V30 54 1 52 19
M  V30 55 1 53 20
M  V30 56 1 54 21
M  V30 57 1 55 21
M  V30 58 1 56 23
M  V30 59 1 57 23
M  V30 60 1 58 23
M  V30 61 1 59 24
M  V30 62 1 60 26
M  V30 63 1 61 27
M  V30 64 1 62 28
M  V30 65 1 63 30
M  V30 66 1 32 64 CFG=1
M  V30 67 1 33 65 CFG=1
M  V30 END BOND
M  V30 END CTAB
M  END
>  <i_epik_Tot_Q>  (1) 
-1

>  <i_epik_Tot_abs_Q>  (1) 
1

>  <i_i_glide_confnum>  (1) 
90

>  <i_i_glide_lignum>  (1) 
32

>  <i_i_glide_posenum>  (1) 
399

>  <i_i_glide_rotatable_bonds>  (1) 
11

>  <i_lp_mmshare_version>  (1) 
72125

>  <i_m_source_file_index>  (1) 
11

>  <i_f3d_flags>  (1) 
0

>  <num_sample>  (1) 
50

>  <b_lp_Chiralities_Consistent>  (1) 
1

>  <r_epik_Charging_Adjusted_Penalty>  (1) 
0.73638213407736119

>  <r_epik_Ionization_Penalty>  (1) 
0.43605758440355569

>  <r_epik_Ionization_Penalty_Charging>  (1) 
4.3620522216925192e-06

>  <r_epik_Ionization_Penalty_Neutral>  (1) 
0.43605322235133398

>  <r_epik_State_Penalty>  (1) 
0.73637777202513954

>  <r_glide_ring_energy>  (1) 
0

>  <r_i_docking_score>  (1) 
-6.3802693938238884

>  <r_i_glide_ecoul>  (1) 
-1.2061580392791116

>  <r_i_glide_eff_state_penalty>  (1) 
0.73637777202513954

>  <r_i_glide_einternal>  (1) 
5.4419226511420433

>  <r_i_glide_emodel>  (1) 
-57.195211514884335

>  <r_i_glide_emodel_strain>  (1) 
2.3366509562313666

>  <r_i_glide_energy>  (1) 
-40.988634699629088

>  <r_i_glide_erotb>  (1) 
0.66918926381983879

>  <r_i_glide_esite>  (1) 
0

>  <r_i_glide_evdw>  (1) 
-39.782476660349978

>  <r_i_glide_gscore>  (1) 
-7.1166471658490282

>  <r_i_glide_gscore_strain>  (1) 
0

>  <r_i_glide_hbond>  (1) 
0

>  <r_i_glide_ligand_efficiency>  (1) 
-0.18765498217129084

>  <r_i_glide_ligand_efficiency_ln>  (1) 
-1.4095804695903977

>  <r_i_glide_ligand_efficiency_sa>  (1) 
-0.60792929481062963

>  <r_i_glide_lipo>  (1) 
-4.3279682157097561

>  <r_i_glide_metal>  (1) 
-0

>  <r_i_glide_rewards>  (1) 
-1.2878206750497465

>  <r_lp_Energy>  (1) 
40.406531000000001

>  <r_lp_tautomer_probability>  (1) 
0.99999999999736477

>  <s_epik_cmdline>  (1) 
J2VwaWtfcHl0aG9uJywgJy1waHQnLCAnMS4wJywgJy1waCcsICc3LjQnLCAnLXRuJywgJzgnLCAnLW1hJywgJzUwMCcsICctaW1hZScsICc8aW5maWxlLm1hZT4nLCAnLW9tYWUnLCAnPG91dGZpbGUubWFlPic=

>  <s_epik_input>  (1) 
RmMxW2NIXWMoW09IXSljKFtjSF1bY0hdMSlOMltDQEBIXShbQ0gyXVtDSDNdKVtDSDJdW0NIMl1bQ0BASF0oW0NIMl0yKVtOSF1DKD1PKVtOSF1bQ0gyXVtDQEhdKFAoPU8pKFtPSF0pW09IXSljM1tjSF1jKFtDSDNdKVtjSF1bY0hdYzNbTkgyXQ==

>  <s_glide_docking_method>  (1) 
confgen

>  <s_i_glide_gridfile>  (1) 
gpcr_5ht2c_6bqh_protein_autoprepared_prepared

>  <s_lp_Force_Field>  (1) 
S-OPLS

>  <s_lp_Variant>  (1) 
DiffSBDD_10_num_sample_50-1

>  <s_m_source_file>  (1) 
generated__ligand_DiffSBDD_2026-05-06_prepared.sdf

>  <GenAI_Model>  (1) 
DiffSBDD

>  <Protein>  (1) 
GPCR_5HT2C

$$$$
DiffSBDD_10_num_sample_50
     RDKit          3D

  0  0  0  0  0  0  0  0  0  0999 V3000
M  V30 BEGIN CTAB
M  V30 COUNTS 64 66 0 0 1
M  V30 BEGIN ATOM
M  V30 1 C 38.497080 25.364087 58.227827 0
M  V30 2 C 37.237036 25.846412 57.508412 0
M  V30 3 C 38.828464 27.972024 51.698099 0
M  V30 4 N 38.656563 26.922386 55.819972 0 CFG=2 CHG=1
M  V30 5 O 37.375062 30.557041 60.411905 0 CHG=-1
M  V30 6 O 41.467174 28.021464 59.406341 0
M  V30 7 C 41.385116 33.342419 64.197313 0
M  V30 8 C 38.154699 28.783432 52.610354 0
M  V30 9 C 40.275058 30.767391 64.473733 0
M  V30 10 O 37.265727 32.246667 62.253462 0 CHG=-1
M  V30 11 N 40.713778 33.403170 61.872008 0
M  V30 12 C 38.128176 28.453901 53.966869 0
M  V30 13 C 40.503306 30.096549 61.053959 0
M  V30 14 C 40.761704 32.729058 63.090023 0
M  V30 15 C 37.529074 25.961001 56.021913 0 CFG=1
M  V30 16 C 36.610179 23.556398 55.614619 0
M  V30 17 C 38.770790 27.306475 54.393220 0
M  V30 18 O 38.781528 32.646486 60.267362 0
M  V30 19 C 39.915670 26.588270 56.527194 0
M  V30 20 N 39.347158 27.580550 58.752740 0
M  V30 21 C 37.710464 24.585251 55.325859 0
M  V30 22 P 38.128330 31.628475 61.181822 0
M  V30 23 C 40.962510 30.668752 66.906083 0
M  V30 24 C 41.448966 32.674965 65.435937 0
M  V30 25 C 40.271084 28.283244 59.418780 0
M  V30 26 N 39.738366 29.275236 60.124884 0
M  V30 27 C 39.467310 26.821424 52.139036 0
M  V30 28 O 37.467409 29.238912 54.855706 0 CHG=-1
M  V30 29 F 38.852267 28.295810 50.389174 0
M  V30 30 C 39.458584 26.483840 53.505024 0
M  V30 31 C 40.195990 31.429095 63.228815 0
M  V30 32 C 39.659261 26.350182 58.024799 0 CFG=1
M  V30 33 C 39.510163 30.718908 62.046063 0 CFG=2
M  V30 34 C 40.894297 31.388310 65.573876 0
M  V30 35 H 38.782983 24.381052 57.853134 0
M  V30 36 H 38.267329 25.230342 59.276158 0
M  V30 37 H 36.392579 25.189642 57.713472 0
M  V30 38 H 36.933426 26.832142 57.854509 0
M  V30 39 H 41.814841 34.328452 64.095760 0
M  V30 40 H 37.649587 29.621417 52.268910 0
M  V30 41 H 39.858795 29.778711 64.583241 0
M  V30 42 H 40.919704 34.388451 61.851676 0
M  V30 43 H 40.033909 33.083679 61.153679 0
M  V30 44 H 41.207535 29.470685 61.602889 0
M  V30 45 H 41.071115 30.875996 60.559038 0
M  V30 46 H 36.660327 26.421023 55.559243 0
M  V30 47 H 36.716171 22.689282 54.962002 0
M  V30 48 H 36.666282 23.199969 56.643538 0
M  V30 49 H 35.616187 23.971751 55.446682 0
M  V30 50 H 40.358208 25.689525 56.098258 0
M  V30 51 H 40.640403 27.393015 56.385476 0
M  V30 52 H 38.379709 27.865068 58.812144 0
M  V30 53 H 37.700464 24.739009 54.253317 0
M  V30 54 H 38.675820 24.144122 55.565063 0
M  V30 55 H 41.202833 31.352931 67.720502 0
M  V30 56 H 40.003626 30.197702 67.129710 0
M  V30 57 H 41.726080 29.892621 66.870615 0
M  V30 58 H 41.925785 33.151000 66.280042 0
M  V30 59 H 38.731201 29.447259 60.070512 0
M  V30 60 H 39.931962 26.174274 51.427743 0
M  V30 61 H 39.943125 25.586397 53.853390 0
M  V30 62 H 40.555244 25.891558 58.441662 0
M  V30 63 H 38.995756 29.878450 62.510255 0
M  V30 64 H 38.330479 27.772431 56.268393 0
M  V30 END ATOM
M  V30 BEGIN BOND
M  V30 1 1 2 1
M  V30 2 2 8 3
M  V30 3 1 12 8
M  V30 4 1 14 7
M  V30 5 1 14 11
M  V30 6 1 15 2
M  V30 7 1 15 4
M  V30 8 1 17 4
M  V30 9 2 17 12
M  V30 10 1 19 4
M  V30 11 1 21 15
M  V30 12 1 21 16
M  V30 13 1 22 5
M  V30 14 1 22 10
M  V30 15 2 22 18
M  V30 16 2 24 7
M  V30 17 2 25 6
M  V30 18 1 25 20
M  V30 19 1 26 13
M  V30 20 1 26 25
M  V30 21 1 27 3
M  V30 22 1 28 12
M  V30 23 1 29 3
M  V30 24 1 30 17
M  V30 25 2 30 27
M  V30 26 1 31 9
M  V30 27 2 31 14
M  V30 28 1 32 1
M  V30 29 1 32 19
M  V30 30 1 32 20
M  V30 31 1 33 13
M  V30 32 1 33 22
M  V30 33 1 33 31
M  V30 34 2 34 9
M  V30 35 1 34 23
M  V30 36 1 34 24
M  V30 37 1 35 1
M  V30 38 1 36 1
M  V30 39 1 37 2
M  V30 40 1 38 2
M  V30 41 1 39 7
M  V30 42 1 40 8
M  V30 43 1 41 9
M  V30 44 1 42 11
M  V30 45 1 43 11
M  V30 46 1 44 13
M  V30 47 1 45 13
M  V30 48 1 15 46 CFG=3
M  V30 49 1 47 16
M  V30 50 1 48 16
M  V30 51 1 49 16
M  V30 52 1 50 19
M  V30 53 1 51 19
M  V30 54 1 52 20
M  V30 55 1 53 21
M  V30 56 1 54 21
M  V30 57 1 55 23
M  V30 58 1 56 23
M  V30 59 1 57 23
M  V30 60 1 58 24
M  V30 61 1 59 26
M  V30 62 1 60 27
M  V30 63 1 61 30
M  V30 64 1 32 62 CFG=1
M  V30 65 1 33 63 CFG=1
M  V30 66 1 4 64 CFG=1
M  V30 END BOND
M  V30 END CTAB
M  END
>  <i_epik_Tot_Q>  (1) 
-2

>  <i_epik_Tot_abs_Q>  (1) 
4

>  <i_i_glide_confnum>  (1) 
93

>  <i_i_glide_lignum>  (1) 
35

>  <i_i_glide_posenum>  (1) 
338

>  <i_i_glide_rotatable_bonds>  (1) 
9

>  <i_lp_mmshare_version>  (1) 
72125

>  <i_m_source_file_index>  (1) 
11

>  <i_f3d_flags>  (1) 
0

>  <num_sample>  (1) 
50

>  <b_lp_Chiralities_Consistent>  (1) 
1

>  <r_epik_Charging_Adjusted_Penalty>  (1) 
1.3613781813755943

>  <r_epik_Ionization_Penalty>  (1) 
0.45221775539962494

>  <r_epik_Ionization_Penalty_Charging>  (1) 
0.45010221832775887

>  <r_epik_Ionization_Penalty_Neutral>  (1) 
0.0021155370718660637

>  <r_epik_State_Penalty>  (1) 
0.91127596304783554

>  <r_glide_ring_energy>  (1) 
0

>  <r_i_docking_score>  (1) 
-6.3473699960715759

>  <r_i_glide_ecoul>  (1) 
-0.86272371016845817

>  <r_i_glide_eff_state_penalty>  (1) 
0.91127596304783554

>  <r_i_glide_einternal>  (1) 
9.8551337902052936

>  <r_i_glide_emodel>  (1) 
-53.327278922058667

>  <r_i_glide_emodel_strain>  (1) 
1.3770182924603915

>  <r_i_glide_energy>  (1) 
-38.392418628230558

>  <r_i_glide_erotb>  (1) 
0.58773720055558498

>  <r_i_glide_esite>  (1) 
0

>  <r_i_glide_evdw>  (1) 
-37.529694918062098

>  <r_i_glide_gscore>  (1) 
-7.258645959119411

>  <r_i_glide_gscore_strain>  (1) 
0

>  <r_i_glide_hbond>  (1) 
-0.11019083306394095

>  <r_i_glide_ligand_efficiency>  (1) 
-0.18668735282563459

>  <r_i_glide_ligand_efficiency_ln>  (1) 
-1.4023120698300622

>  <r_i_glide_ligand_efficiency_sa>  (1) 
-0.60479455136317917

>  <r_i_glide_lipo>  (1) 
-4.5077512919025855

>  <r_i_glide_metal>  (1) 
-0

>  <r_i_glide_rewards>  (1) 
-1.2225477322800957

>  <r_lp_Energy>  (1) 
33.264645999999999

>  <s_epik_cmdline>  (1) 
J2VwaWtfcHl0aG9uJywgJy1waHQnLCAnMS4wJywgJy1waCcsICc3LjQnLCAnLXRuJywgJzgnLCAnLW1hJywgJzUwMCcsICctaW1hZScsICc8aW5maWxlLm1hZT4nLCAnLW9tYWUnLCAnPG91dGZpbGUubWFlPic=

>  <s_epik_input>  (1) 
RmMxW2NIXWMoW09IXSljKFtjSF1bY0hdMSlOMltDQEBIXShbQ0gyXVtDSDNdKVtDSDJdW0NIMl1bQ0BASF0oW0NIMl0yKVtOSF1DKD1PKVtOSF1bQ0gyXVtDQEhdKFAoPU8pKFtPSF0pW09IXSljM1tjSF1jKFtDSDNdKVtjSF1bY0hdYzNbTkgyXQ==

>  <s_glide_docking_method>  (1) 
confgen

>  <s_i_glide_gridfile>  (1) 
gpcr_5ht2c_6bqh_protein_autoprepared_prepared

>  <s_lp_Force_Field>  (1) 
S-OPLS

>  <s_lp_Variant>  (1) 
DiffSBDD_10_num_sample_50-4

>  <s_m_source_file>  (1) 
generated__ligand_DiffSBDD_2026-05-06_prepared.sdf

>  <GenAI_Model>  (1) 
DiffSBDD

>  <Protein>  (1) 
GPCR_5HT2C

$$$$
DiffSBDD_5_num_sample_50
     RDKit          3D

  0  0  0  0  0  0  0  0  0  0999 V3000
M  V30 BEGIN CTAB
M  V30 COUNTS 80 82 0 0 1
M  V30 BEGIN ATOM
M  V30 1 C 37.598088 32.236006 59.567007 0
M  V30 2 C 39.146542 30.187797 59.434644 0 CFG=2
M  V30 3 N 39.222968 37.221574 63.189321 0
M  V30 4 F 38.599384 27.398958 52.030207 0
M  V30 5 C 36.361106 35.010991 60.638069 0
M  V30 6 N 37.581132 32.955622 60.638244 0 CHG=1
M  V30 7 C 36.677333 37.322091 61.694147 0 CFG=1
M  V30 8 C 38.750879 29.405323 53.235838 0 CFG=2
M  V30 9 C 38.698051 27.727311 58.953914 0
M  V30 10 C 36.259436 33.514924 60.942720 0 CFG=2
M  V30 11 N 36.423121 32.104526 59.053506 0
M  V30 12 C 40.185888 27.335914 58.954896 0
M  V30 13 C 38.176385 30.746006 56.706034 0 CFG=2
M  V30 14 C 37.916683 26.728724 58.065657 0
M  V30 15 N 37.055075 30.401345 54.653502 0 CHG=1
M  V30 16 C 39.330480 37.372403 61.742867 0
M  V30 17 C 38.880096 30.023499 60.940567 0
M  V30 18 C 35.364159 32.780029 59.812926 0
M  V30 19 C 38.840154 31.657551 58.987777 0 CFG=1
M  V30 20 C 37.380156 29.187179 53.873840 0
M  V30 21 O 40.866896 35.685003 63.384340 0
M  V30 22 C 39.412359 28.083593 52.830714 0
M  V30 23 C 39.810885 36.414987 65.409725 0
M  V30 24 C 40.011742 36.407952 63.896820 0
M  V30 25 S 39.688141 30.421426 54.410099 0
M  V30 26 C 38.861135 31.888924 57.450333 0
M  V30 27 C 38.765492 29.409000 57.149179 0
M  V30 28 C 35.129590 38.104750 63.336796 0
M  V30 29 O 36.491540 37.940315 62.961013 0
M  V30 30 O 37.950896 39.171593 60.751251 0
M  V30 31 N 38.463076 29.159767 58.578801 0 CFG=2 CHG=1
M  V30 32 C 38.002689 37.788851 61.053179 0 CFG=2
M  V30 33 N 38.269207 30.918255 55.258461 0
M  V30 34 C 36.667379 35.796507 61.900191 0
M  V30 35 H 40.215282 30.021446 59.296778 0
M  V30 36 H 38.532388 37.781038 63.671403 0
M  V30 37 H 35.467421 35.367100 60.146349 0
M  V30 38 H 37.145220 35.200399 59.903368 0
M  V30 39 H 35.867563 37.621922 61.025658 0
M  V30 40 H 38.667318 30.011687 52.339159 0
M  V30 41 H 38.309197 27.598925 59.963290 0
M  V30 42 H 35.921502 33.286875 61.952359 0
M  V30 43 H 36.224179 31.666908 58.141762 0
M  V30 44 H 40.267409 26.258550 59.053314 0
M  V30 45 H 40.694321 27.581680 58.024073 0
M  V30 46 H 40.740781 27.788519 59.776708 0
M  V30 47 H 37.122686 30.754046 56.976731 0
M  V30 48 H 37.866528 25.753311 58.551065 0
M  V30 49 H 36.897030 27.057181 57.853347 0
M  V30 50 H 38.411910 26.553584 57.110106 0
M  V30 51 H 36.372571 30.249163 55.385729 0
M  V30 52 H 39.651503 36.423990 61.305238 0
M  V30 53 H 40.122115 38.085569 61.515051 0
M  V30 54 H 39.399355 30.795907 61.508120 0
M  V30 55 H 37.819928 30.114860 61.163026 0
M  V30 56 H 39.236989 29.072140 61.333881 0
M  V30 57 H 34.676162 32.055234 60.247847 0
M  V30 58 H 34.801293 33.465384 59.178349 0
M  V30 59 H 39.576951 32.313159 59.453432 0
M  V30 60 H 36.643533 28.921927 53.119696 0
M  V30 61 H 37.421313 28.337845 54.553919 0
M  V30 62 H 40.313129 28.258269 52.251234 0
M  V30 63 H 39.636967 27.442757 53.683475 0
M  V30 64 H 38.751021 36.421331 65.664332 0
M  V30 65 H 40.269417 35.536662 65.863611 0
M  V30 66 H 40.267365 37.297962 65.854924 0
M  V30 67 H 38.381879 32.839351 57.211025 0
M  V30 68 H 39.867367 31.972166 57.054413 0
M  V30 69 H 38.346093 28.633456 56.517476 0
M  V30 70 H 39.844900 29.388375 56.993655 0
M  V30 71 H 35.067704 38.621276 64.293492 0
M  V30 72 H 34.592421 38.705170 62.600411 0
M  V30 73 H 34.612176 37.152707 63.453420 0
M  V30 74 H 37.121028 39.359552 60.329386 0
M  V30 75 H 38.031722 37.332775 60.062606 0
M  V30 76 H 37.622268 35.444814 62.275388 0
M  V30 77 H 35.926152 35.530173 62.653869 0
M  V30 78 H 36.729258 31.138276 54.045179 0
M  V30 79 H 38.403719 33.191822 61.176320 0
M  V30 80 H 37.469987 29.304672 58.693280 0
M  V30 END ATOM
M  V30 BEGIN BOND
M  V30 1 2 6 1
M  V30 2 1 10 5
M  V30 3 1 10 6
M  V30 4 1 11 1
M  V30 5 1 12 9
M  V30 6 1 14 9
M  V30 7 1 16 3
M  V30 8 1 17 2
M  V30 9 1 18 10
M  V30 10 1 18 11
M  V30 11 1 19 1
M  V30 12 1 19 2
M  V30 13 1 20 8
M  V30 14 1 20 15
M  V30 15 1 22 4
M  V30 16 1 22 8
M  V30 17 1 24 3
M  V30 18 2 24 21
M  V30 19 1 24 23
M  V30 20 1 25 8
M  V30 21 1 26 13
M  V30 22 1 26 19
M  V30 23 1 27 13
M  V30 24 1 29 7
M  V30 25 1 29 28
M  V30 26 1 31 2
M  V30 27 1 31 9
M  V30 28 1 31 27
M  V30 29 1 32 7
M  V30 30 1 32 16
M  V30 31 1 32 30
M  V30 32 1 33 13
M  V30 33 1 33 15
M  V30 34 1 33 25
M  V30 35 1 34 5
M  V30 36 1 34 7
M  V30 37 1 2 35 CFG=1
M  V30 38 1 36 3
M  V30 39 1 37 5
M  V30 40 1 38 5
M  V30 41 1 7 39 CFG=3
M  V30 42 1 8 40 CFG=3
M  V30 43 1 41 9
M  V30 44 1 10 42 CFG=1
M  V30 45 1 43 11
M  V30 46 1 44 12
M  V30 47 1 45 12
M  V30 48 1 46 12
M  V30 49 1 13 47 CFG=1
M  V30 50 1 48 14
M  V30 51 1 49 14
M  V30 52 1 50 14
M  V30 53 1 51 15
M  V30 54 1 52 16
M  V30 55 1 53 16
M  V30 56 1 54 17
M  V30 57 1 55 17
M  V30 58 1 56 17
M  V30 59 1 57 18
M  V30 60 1 58 18
M  V30 61 1 19 59 CFG=1
M  V30 62 1 60 20
M  V30 63 1 61 20
M  V30 64 1 62 22
M  V30 65 1 63 22
M  V30 66 1 64 23
M  V30 67 1 65 23
M  V30 68 1 66 23
M  V30 69 1 67 26
M  V30 70 1 68 26
M  V30 71 1 69 27
M  V30 72 1 70 27
M  V30 73 1 71 28
M  V30 74 1 72 28
M  V30 75 1 73 28
M  V30 76 1 74 30
M  V30 77 1 32 75 CFG=3
M  V30 78 1 76 34
M  V30 79 1 77 34
M  V30 80 1 78 15
M  V30 81 1 79 6
M  V30 82 1 31 80 CFG=3
M  V30 END BOND
M  V30 END CTAB
M  END
>  <i_epik_Tot_Q>  (1) 
3

>  <i_epik_Tot_abs_Q>  (1) 
3

>  <i_i_glide_confnum>  (1) 
457

>  <i_i_glide_lignum>  (1) 
17

>  <i_i_glide_posenum>  (1) 
130

>  <i_i_glide_rotatable_bonds>  (1) 
13

>  <i_lp_mmshare_version>  (1) 
72125

>  <i_m_source_file_index>  (1) 
6

>  <i_f3d_flags>  (1) 
0

>  <num_sample>  (1) 
50

>  <b_lp_Chiralities_Consistent>  (1) 
1

>  <r_epik_Charging_Adjusted_Penalty>  (1) 
0.16301919670703535

>  <r_epik_Ionization_Penalty>  (1) 
0.082191666583868089

>  <r_epik_Ionization_Penalty_Charging>  (1) 
0.082191230012028396

>  <r_epik_Ionization_Penalty_Neutral>  (1) 
4.3657183969654913e-07

>  <r_epik_State_Penalty>  (1) 
0.080827966695006942

>  <r_glide_ring_energy>  (1) 
0

>  <r_i_docking_score>  (1) 
-6.3371695647028341

>  <r_i_glide_ecoul>  (1) 
-6.7264972855048057

>  <r_i_glide_eff_state_penalty>  (1) 
0.080827966695006942

>  <r_i_glide_einternal>  (1) 
13.600761934709766

>  <r_i_glide_emodel>  (1) 
-45.801182483153156

>  <r_i_glide_emodel_strain>  (1) 
1.5934360602158506

>  <r_i_glide_energy>  (1) 
-37.999619045282415

>  <r_i_glide_erotb>  (1) 
0.63983490757673345

>  <r_i_glide_esite>  (1) 
-0.21444568478602602

>  <r_i_glide_evdw>  (1) 
-31.273121759777606

>  <r_i_glide_gscore>  (1) 
-6.417997531397841

>  <r_i_glide_gscore_strain>  (1) 
0

>  <r_i_glide_hbond>  (1) 
-0.49123603591126153

>  <r_i_glide_ligand_efficiency>  (1) 
-0.18638734013831865

>  <r_i_glide_ligand_efficiency_ln>  (1) 
-1.4000585084282986

>  <r_i_glide_ligand_efficiency_sa>  (1) 
-0.60382262672081755

>  <r_i_glide_lipo>  (1) 
-3.0250832380360544

>  <r_i_glide_metal>  (1) 
-0

>  <r_i_glide_rewards>  (1) 
-0.75443679942663022

>  <r_lp_Energy>  (1) 
42.251275999999997

>  <s_epik_Chemistry_Notes>  (1) 
This compound has an imine and may undergo hydrolysis. This compound has a N-S or N-O group and may undergo hydrolysis at high or low pH.

>  <s_epik_cmdline>  (1) 
J2VwaWtfcHl0aG9uJywgJy1waHQnLCAnMS4wJywgJy1waCcsICc3LjQnLCAnLXRuJywgJzgnLCAnLW1hJywgJzUwMCcsICctaW1hZScsICc8aW5maWxlLm1hZT4nLCAnLW9tYWUnLCAnPG91dGZpbGUubWFlPic=

>  <s_epik_input>  (1) 
RltDSDJdW0NASF0xW0NIMl1bTkhdTihTMSlbQ0BASF0oW0NIMl1OMltDSF0oW0NIM10pW0NIM10pW0NIMl1bQ0BASF0oW0NASF0yW0NIM10pQzM9TltDQEhdKFtDSDJdW05IXTMpW0NIMl1bQ0gyXVtDQEBIXShPW0NIM10pW0NAQEhdKFtPSF0pW0NIMl1bTkhdQyg9TylbQ0gzXQ==

>  <s_glide_docking_method>  (1) 
confgen

>  <s_i_glide_gridfile>  (1) 
gpcr_5ht2c_6bqh_protein_autoprepared_prepared

>  <s_lp_Force_Field>  (1) 
S-OPLS

>  <s_lp_Variant>  (1) 
DiffSBDD_5_num_sample_50-4

>  <s_m_source_file>  (1) 
generated__ligand_DiffSBDD_2026-05-06_prepared.sdf

>  <GenAI_Model>  (1) 
DiffSBDD

>  <Protein>  (1) 
GPCR_5HT2C

$$$$
DiffSBDD_30_num_sample_50
     RDKit          3D

  0  0  0  0  0  0  0  0  0  0999 V3000
M  V30 BEGIN CTAB
M  V30 COUNTS 68 67 0 0 1
M  V30 BEGIN ATOM
M  V30 1 C 39.189697 30.540217 53.989967 0
M  V30 2 C 36.638477 34.282284 60.109719 0 CFG=2
M  V30 3 C 35.901989 35.141503 59.072016 0
M  V30 4 O 35.867403 39.560851 62.253500 0
M  V30 5 C 35.470320 37.660995 63.674247 0
M  V30 6 C 38.827832 34.146435 61.492706 0
M  V30 7 C 37.556452 27.347074 53.856393 0
M  V30 8 C 39.500819 27.970007 50.980724 0
M  V30 9 C 37.924565 33.054851 58.189812 0
M  V30 10 C 37.780302 35.081271 60.830234 0 CFG=2
M  V30 11 C 38.826314 29.376922 53.031580 0 CFG=1
M  V30 12 C 37.203273 36.102347 61.867235 0
M  V30 13 C 39.809162 29.221998 51.830349 0 CFG=2
M  V30 14 C 38.594850 31.860432 56.111877 0
M  V30 15 C 40.073475 34.847993 62.061743 0
M  V30 16 C 37.021302 32.941117 59.435992 0
M  V30 17 C 35.989785 38.348633 62.408769 0
M  V30 18 C 36.667216 37.461352 61.330970 0 CFG=1
M  V30 19 C 38.327786 30.603015 55.268193 0
M  V30 20 C 39.945630 30.470112 50.927503 0
M  V30 21 O 38.360055 30.727615 58.187287 0 CHG=-1
M  V30 22 C 41.160075 30.421428 49.995922 0
M  V30 23 N 37.873478 31.746004 57.438782 0 CFG=1 CHG=1
M  V30 24 C 37.738059 38.245268 60.549146 0
M  V30 25 C 38.685293 28.072573 53.807366 0
M  V30 26 H 40.240712 30.468016 54.274031 0
M  V30 27 H 39.079026 31.490481 53.468561 0
M  V30 28 H 35.908446 34.001410 60.870454 0
M  V30 29 H 36.573431 35.886641 58.653500 0
M  V30 30 H 35.477834 34.545155 58.262142 0
M  V30 31 H 35.067403 35.672634 59.494365 0
M  V30 32 H 34.737400 36.886062 63.453501 0
M  V30 33 H 36.291988 37.209145 64.229827 0
M  V30 34 H 34.992104 38.393926 64.323525 0
M  V30 35 H 38.354052 33.528957 62.253508 0
M  V30 36 H 39.214568 33.451788 60.750146 0
M  V30 37 H 36.667296 27.663096 53.330953 0
M  V30 38 H 37.510010 26.428705 54.422579 0
M  V30 39 H 38.546506 28.073434 50.469345 0
M  V30 40 H 40.267403 27.797799 50.230668 0
M  V30 41 H 39.464836 27.054104 51.569073 0
M  V30 42 H 38.968004 33.252046 58.435913 0
M  V30 43 H 37.572016 33.817552 57.495702 0
M  V30 44 H 38.338806 35.627777 60.072811 0
M  V30 45 H 37.844731 29.593055 52.628795 0
M  V30 46 H 36.418499 35.595771 62.427119 0
M  V30 47 H 37.958274 36.349305 62.609807 0
M  V30 48 H 40.790946 29.087039 52.253501 0
M  V30 49 H 39.654123 31.992280 56.335664 0
M  V30 50 H 38.218285 32.751266 55.607141 0
M  V30 51 H 40.839875 34.114963 62.315360 0
M  V30 52 H 40.506904 35.535825 61.334809 0
M  V30 53 H 39.861767 35.405005 62.973319 0
M  V30 54 H 36.092773 32.457049 59.127656 0
M  V30 55 H 37.451251 32.246211 60.156865 0
M  V30 56 H 35.867409 37.268032 60.622854 0
M  V30 57 H 37.268977 30.568473 55.007175 0
M  V30 58 H 38.523571 29.719259 55.875430 0
M  V30 59 H 39.067384 30.601888 50.304964 0
M  V30 60 H 40.040238 31.372497 51.528250 0
M  V30 61 H 41.248866 31.357132 49.453500 0
M  V30 62 H 42.085083 30.278798 50.554037 0
M  V30 63 H 41.067405 29.633026 49.249519 0
M  V30 64 H 37.469731 39.288313 60.382464 0
M  V30 65 H 38.695409 38.231859 61.067748 0
M  V30 66 H 37.867446 37.809425 59.559558 0
M  V30 67 H 39.558777 27.731769 54.342273 0
M  V30 68 H 36.856508 31.621429 57.193214 0
M  V30 END ATOM
M  V30 BEGIN BOND
M  V30 1 1 3 2
M  V30 2 1 10 2
M  V30 3 1 10 6
M  V30 4 1 11 1
M  V30 5 1 12 10
M  V30 6 1 13 8
M  V30 7 1 13 11
M  V30 8 1 15 6
M  V30 9 1 16 2
M  V30 10 1 16 9
M  V30 11 2 17 4
M  V30 12 1 17 5
M  V30 13 1 18 12
M  V30 14 1 18 17
M  V30 15 1 19 1
M  V30 16 1 19 14
M  V30 17 1 20 13
M  V30 18 1 22 20
M  V30 19 1 23 9
M  V30 20 1 23 14
M  V30 21 1 23 21
M  V30 22 1 24 18
M  V30 23 2 25 7
M  V30 24 1 25 11
M  V30 25 1 26 1
M  V30 26 1 27 1
M  V30 27 1 2 28 CFG=1
M  V30 28 1 29 3
M  V30 29 1 30 3
M  V30 30 1 31 3
M  V30 31 1 32 5
M  V30 32 1 33 5
M  V30 33 1 34 5
M  V30 34 1 35 6
M  V30 35 1 36 6
M  V30 36 1 37 7
M  V30 37 1 38 7
M  V30 38 1 39 8
M  V30 39 1 40 8
M  V30 40 1 41 8
M  V30 41 1 42 9
M  V30 42 1 43 9
M  V30 43 1 10 44 CFG=3
M  V30 44 1 11 45 CFG=3
M  V30 45 1 46 12
M  V30 46 1 47 12
M  V30 47 1 13 48 CFG=1
M  V30 48 1 49 14
M  V30 49 1 50 14
M  V30 50 1 51 15
M  V30 51 1 52 15
M  V30 52 1 53 15
M  V30 53 1 54 16
M  V30 54 1 55 16
M  V30 55 1 18 56 CFG=3
M  V30 56 1 57 19
M  V30 57 1 58 19
M  V30 58 1 59 20
M  V30 59 1 60 20
M  V30 60 1 61 22
M  V30 61 1 62 22
M  V30 62 1 63 22
M  V30 63 1 64 24
M  V30 64 1 65 24
M  V30 65 1 66 24
M  V30 66 1 67 25
M  V30 67 1 23 68 CFG=3
M  V30 END BOND
M  V30 END CTAB
M  END
>  <i_epik_Tot_Q>  (1) 
0

>  <i_epik_Tot_abs_Q>  (1) 
2

>  <i_i_glide_confnum>  (1) 
941

>  <i_i_glide_lignum>  (1) 
80

>  <i_i_glide_posenum>  (1) 
143

>  <i_i_glide_rotatable_bonds>  (1) 
15

>  <i_lp_mmshare_version>  (1) 
72125

>  <i_m_source_file_index>  (1) 
31

>  <i_f3d_flags>  (1) 
0

>  <num_sample>  (1) 
50

>  <b_lp_Chiralities_Consistent>  (1) 
1

>  <r_epik_Charging_Adjusted_Penalty>  (1) 
0.52251968911758562

>  <r_epik_Ionization_Penalty>  (1) 
0.019979657236955634

>  <r_epik_Ionization_Penalty_Charging>  (1) 
0.019979657236557934

>  <r_epik_Ionization_Penalty_Neutral>  (1) 
3.9770064437045143e-13

>  <r_epik_State_Penalty>  (1) 
0.50254003188102769

>  <r_glide_ring_energy>  (1) 
0

>  <r_i_docking_score>  (1) 
-6.3355543306736655

>  <r_i_glide_ecoul>  (1) 
-4.0144972799243419

>  <r_i_glide_eff_state_penalty>  (1) 
0.50254003188102769

>  <r_i_glide_einternal>  (1) 
5.636991627436057

>  <r_i_glide_emodel>  (1) 
-52.166269170880831

>  <r_i_glide_emodel_strain>  (1) 
2.3688322470589256

>  <r_i_glide_energy>  (1) 
-39.78951487164683

>  <r_i_glide_erotb>  (1) 
1.833058027080513

>  <r_i_glide_esite>  (1) 
-0.10000000000000001

>  <r_i_glide_evdw>  (1) 
-35.775017591722488

>  <r_i_glide_gscore>  (1) 
-6.8380943625546928

>  <r_i_glide_gscore_strain>  (1) 
0

>  <r_i_glide_hbond>  (1) 
-0.16

>  <r_i_glide_ligand_efficiency>  (1) 
-0.2534221732269466

>  <r_i_glide_ligand_efficiency_ln>  (1) 
-1.5017162376120872

>  <r_i_glide_ligand_efficiency_sa>  (1) 
-0.74101092977204563

>  <r_i_glide_lipo>  (1) 
-3.7977784776820798

>  <r_i_glide_metal>  (1) 
-0

>  <r_i_glide_rewards>  (1) 
-2.2224484403783507

>  <r_lp_Energy>  (1) 
19.406434000000001

>  <s_epik_cmdline>  (1) 
J2VwaWtfcHl0aG9uJywgJy1waHQnLCAnMS4wJywgJy1waCcsICc3LjQnLCAnLXRuJywgJzgnLCAnLW1hJywgJzUwMCcsICctaW1hZScsICc8aW5maWxlLm1hZT4nLCAnLW9tYWUnLCAnPG91dGZpbGUubWFlPic=

>  <s_epik_input>  (1) 
W0NIM11bQ0gyXVtDQEhdKFtDSDNdKVtDQEBIXShbQ0hdPVtDSDJdKVtDSDJdW0NIMl1bQ0gyXU4oW09IXSlbQ0gyXVtDSDJdW0NASF0oW0NIM10pW0NASF0oW0NIMl1bQ0gzXSlbQ0gyXVtDQEhdKFtDSDNdKUMoPU8pW0NIM10=

>  <s_glide_docking_method>  (1) 
confgen

>  <s_i_glide_gridfile>  (1) 
gpcr_5ht2c_6bqh_protein_autoprepared_prepared

>  <s_lp_Force_Field>  (1) 
S-OPLS

>  <s_lp_Variant>  (1) 
DiffSBDD_30_num_sample_50-4

>  <s_m_source_file>  (1) 
generated__ligand_DiffSBDD_2026-05-06_prepared.sdf

>  <GenAI_Model>  (1) 
DiffSBDD

>  <Protein>  (1) 
GPCR_5HT2C

$$$$
DiffSBDD_3_num_sample_50
     RDKit          3D

  0  0  0  0  0  0  0  0  0  0999 V3000
M  V30 BEGIN CTAB
M  V30 COUNTS 73 76 0 0 1
M  V30 BEGIN ATOM
M  V30 1 C 39.691083 31.471169 56.152006 0
M  V30 2 N 38.037092 24.247454 57.852340 0
M  V30 3 C 40.283237 28.899238 56.690258 0
M  V30 4 C 38.917988 33.890130 60.890299 0 CFG=2
M  V30 5 C 35.767912 33.580654 60.112640 0
M  V30 6 S 38.451775 28.821364 51.875483 0
M  V30 7 C 38.756956 28.791059 58.580561 0
M  V30 8 C 37.661579 25.308546 57.613681 0
M  V30 9 C 36.968410 36.572648 62.322119 0
M  V30 10 C 39.699444 27.566237 51.734583 0 CFG=1
M  V30 11 C 38.837704 34.796812 62.048340 0 CFG=2
M  V30 12 C 40.037472 30.059304 55.674164 0
M  V30 13 C 38.140132 31.311839 58.200809 0 CFG=2
M  V30 14 C 36.988163 32.765941 59.817239 0
M  V30 15 C 38.090373 32.619093 60.842971 0
M  V30 16 C 39.507162 26.630396 52.910334 0
M  V30 17 N 39.164624 28.179407 57.312782 0
M  V30 18 C 37.167804 26.647026 57.291691 0
M  V30 19 O 39.972804 33.968255 61.942634 0
M  V30 20 C 38.693359 26.674744 55.321163 0
M  V30 21 C 37.829093 28.225640 53.447847 0
M  V30 22 C 38.125902 27.542532 56.470480 0 CFG=2
M  V30 23 C 40.664305 36.484133 62.092069 0
M  V30 24 C 35.615732 34.700366 59.075523 0
M  V30 25 N 37.067406 32.185398 58.653811 0 CHG=1
M  V30 26 C 38.387625 36.138381 62.641472 0 CFG=1
M  V30 27 C 38.320819 31.684314 56.699833 0 CFG=2
M  V30 28 C 37.668648 29.863691 58.469003 0
M  V30 29 C 39.010548 27.456926 54.054520 0 CFG=2
M  V30 30 O 37.467423 31.049378 55.800153 0
M  V30 31 N 39.338127 36.114291 61.594743 0
M  V30 32 F 39.472356 26.877834 50.636300 0
M  V30 33 O 36.567887 37.614934 63.175320 0
M  V30 34 H 40.267250 31.838986 56.949074 0
M  V30 35 H 39.848574 32.155868 55.319012 0
M  V30 36 H 40.954762 29.221498 57.478270 0
M  V30 37 H 40.855521 28.130576 56.168468 0
M  V30 38 H 39.242879 34.281659 59.924544 0
M  V30 39 H 34.897161 32.924542 60.067991 0
M  V30 40 H 39.620577 29.185145 59.117227 0
M  V30 41 H 38.386252 27.994750 59.224317 0
M  V30 42 H 36.284498 35.740861 62.497764 0
M  V30 43 H 36.880573 36.871281 61.275269 0
M  V30 44 H 40.688028 28.021435 51.692481 0
M  V30 45 H 40.940945 30.160119 55.064566 0
M  V30 46 H 39.283453 29.824534 54.946024 0
M  V30 47 H 39.054701 31.542157 58.740032 0
M  V30 48 H 35.809898 33.979527 61.123471 0
M  V30 49 H 38.730373 31.751525 60.707254 0
M  V30 50 H 40.374862 26.016602 53.147853 0
M  V30 51 H 38.661348 26.021428 52.659628 0
M  V30 52 H 36.824721 27.124522 58.197522 0
M  V30 53 H 36.274176 26.420247 56.714482 0
M  V30 54 H 39.577661 26.130415 55.649520 0
M  V30 55 H 37.966893 25.910688 55.041094 0
M  V30 56 H 36.986297 27.556998 53.257075 0
M  V30 57 H 37.459190 29.053353 54.048211 0
M  V30 58 H 37.516777 28.340563 56.053098 0
M  V30 59 H 41.414237 36.372402 61.309298 0
M  V30 60 H 40.657701 37.526079 62.403208 0
M  V30 61 H 40.980941 35.893255 62.953157 0
M  V30 62 H 34.668628 35.214184 59.206203 0
M  V30 63 H 36.416448 35.437377 59.151241 0
M  V30 64 H 35.599416 34.306329 58.060244 0
M  V30 65 H 37.618690 32.466516 61.813724 0
M  V30 66 H 38.794844 36.427579 63.611331 0
M  V30 67 H 38.138371 32.758201 56.598380 0
M  V30 68 H 37.175055 29.858941 59.441164 0
M  V30 69 H 36.877176 29.578431 57.775721 0
M  V30 70 H 39.867405 28.075855 54.239808 0
M  V30 71 H 36.567993 31.282590 56.054739 0
M  V30 72 H 35.622655 37.662952 63.168557 0
M  V30 73 H 36.273484 32.287500 57.994634 0
M  V30 END ATOM
M  V30 BEGIN BOND
M  V30 1 3 8 2
M  V30 2 1 10 6
M  V30 3 1 11 4
M  V30 4 1 12 1
M  V30 5 1 12 3
M  V30 6 1 14 5
M  V30 7 1 15 4
M  V30 8 1 15 14
M  V30 9 1 16 10
M  V30 10 1 17 3
M  V30 11 1 17 7
M  V30 12 1 18 8
M  V30 13 1 19 4
M  V30 14 1 11 19 CFG=3
M  V30 15 1 21 6
M  V30 16 1 22 17
M  V30 17 1 22 18
M  V30 18 1 22 20
M  V30 19 1 24 5
M  V30 20 1 25 13
M  V30 21 2 25 14
M  V30 22 1 26 9
M  V30 23 1 26 11
M  V30 24 1 27 1
M  V30 25 1 27 13
M  V30 26 1 28 7
M  V30 27 1 28 13
M  V30 28 1 29 16
M  V30 29 1 29 20
M  V30 30 1 29 21
M  V30 31 1 30 27
M  V30 32 1 31 11
M  V30 33 1 31 23
M  V30 34 1 31 26
M  V30 35 1 32 10
M  V30 36 1 33 9
M  V30 37 1 34 1
M  V30 38 1 35 1
M  V30 39 1 36 3
M  V30 40 1 37 3
M  V30 41 1 4 38 CFG=3
M  V30 42 1 39 5
M  V30 43 1 40 7
M  V30 44 1 41 7
M  V30 45 1 42 9
M  V30 46 1 43 9
M  V30 47 1 10 44 CFG=3
M  V30 48 1 45 12
M  V30 49 1 46 12
M  V30 50 1 13 47 CFG=1
M  V30 51 1 48 5
M  V30 52 1 49 15
M  V30 53 1 50 16
M  V30 54 1 51 16
M  V30 55 1 52 18
M  V30 56 1 53 18
M  V30 57 1 54 20
M  V30 58 1 55 20
M  V30 59 1 56 21
M  V30 60 1 57 21
M  V30 61 1 22 58 CFG=3
M  V30 62 1 59 23
M  V30 63 1 60 23
M  V30 64 1 61 23
M  V30 65 1 62 24
M  V30 66 1 63 24
M  V30 67 1 64 24
M  V30 68 1 65 15
M  V30 69 1 26 66 CFG=1
M  V30 70 1 27 67 CFG=1
M  V30 71 1 68 28
M  V30 72 1 69 28
M  V30 73 1 29 70 CFG=1
M  V30 74 1 71 30
M  V30 75 1 72 33
M  V30 76 1 73 25
M  V30 END BOND
M  V30 END CTAB
M  END
>  <i_epik_Tot_Q>  (1) 
1

>  <i_epik_Tot_abs_Q>  (1) 
1

>  <i_i_glide_confnum>  (1) 
430

>  <i_i_glide_lignum>  (1) 
10

>  <i_i_glide_posenum>  (1) 
317

>  <i_i_glide_rotatable_bonds>  (1) 
11

>  <i_lp_mmshare_version>  (1) 
72125

>  <i_m_source_file_index>  (1) 
4

>  <i_f3d_flags>  (1) 
0

>  <num_sample>  (1) 
50

>  <b_lp_Chiralities_Consistent>  (1) 
1

>  <r_epik_Charging_Adjusted_Penalty>  (1) 
0.69158801815778781

>  <r_epik_Ionization_Penalty>  (1) 
0.18004840766126984

>  <r_epik_Ionization_Penalty_Charging>  (1) 
0.063917621844604325

>  <r_epik_Ionization_Penalty_Neutral>  (1) 
0.11613078581666553

>  <r_epik_State_Penalty>  (1) 
0.62767039631318344

>  <r_glide_ring_energy>  (1) 
0

>  <r_i_docking_score>  (1) 
-6.332533792458416

>  <r_i_glide_ecoul>  (1) 
-10.799730925862672

>  <r_i_glide_eff_state_penalty>  (1) 
0.62767039631318344

>  <r_i_glide_einternal>  (1) 
27.933657700826238

>  <r_i_glide_emodel>  (1) 
-21.855480679571809

>  <r_i_glide_emodel_strain>  (1) 
2.8310613706501897

>  <r_i_glide_energy>  (1) 
-29.564687875985378

>  <r_i_glide_erotb>  (1) 
0.69427784923131142

>  <r_i_glide_esite>  (1) 
-0.14573036729651717

>  <r_i_glide_evdw>  (1) 
-18.764956950122706

>  <r_i_glide_gscore>  (1) 
-6.9602041887715993

>  <r_i_glide_gscore_strain>  (1) 
0

>  <r_i_glide_hbond>  (1) 
-0.33852222299844248

>  <r_i_glide_ligand_efficiency>  (1) 
-0.1918949634078308

>  <r_i_glide_ligand_efficiency_ln>  (1) 
-1.408322727337556

>  <r_i_glide_ligand_efficiency_sa>  (1) 
-0.61550968288391017

>  <r_i_glide_lipo>  (1) 
-3.1711603238672992

>  <r_i_glide_metal>  (1) 
-0

>  <r_i_glide_rewards>  (1) 
-1.4408616374551153

>  <r_lp_Energy>  (1) 
28.262066999999998

>  <s_epik_Chemistry_Notes>  (1) 
This compound has an imine and may undergo hydrolysis.

>  <s_epik_cmdline>  (1) 
J2VwaWtfcHl0aG9uJywgJy1waHQnLCAnMS4wJywgJy1waCcsICc3LjQnLCAnLXRuJywgJzgnLCAnLW1hJywgJzUwMCcsICctaW1hZScsICc8aW5maWxlLm1hZT4nLCAnLW9tYWUnLCAnPG91dGZpbGUubWFlPic=

>  <s_epik_input>  (1) 
RltDQEhdMVNbQ0gyXVtDQEhdKFtDSDJdMSlbQ0gyXVtDQEBIXShbQ0gyXUMjTilOKFtDSDJdW0NIMl0yKVtDSDJdW0NIMl1bQ0gyXVtDQEBIXShbT0hdKVtDQEhdMltOSF1DKD1bQ0hdXFtDSDNdKVxbQ0gyXVtDQEhdKE8zKVtDQF0zNFtDQEhdKFtDSDJdW09IXSlONFtDSDNd

>  <s_glide_docking_method>  (1) 
confgen

>  <s_i_glide_gridfile>  (1) 
gpcr_5ht2c_6bqh_protein_autoprepared_prepared

>  <s_lp_Force_Field>  (1) 
S-OPLS

>  <s_lp_Variant>  (1) 
DiffSBDD_3_num_sample_50-1

>  <s_m_source_file>  (1) 
generated__ligand_DiffSBDD_2026-05-06_prepared.sdf

>  <GenAI_Model>  (1) 
DiffSBDD

>  <Protein>  (1) 
GPCR_5HT2C

$$$$
DiffSBDD_5_num_sample_50
     RDKit          3D

  0  0  0  0  0  0  0  0  0  0999 V3000
M  V30 BEGIN CTAB
M  V30 COUNTS 80 82 0 0 1
M  V30 BEGIN ATOM
M  V30 1 C 37.408692 31.302192 59.599407 0
M  V30 2 C 38.271684 31.220718 57.330973 0 CFG=2
M  V30 3 N 40.851661 34.651319 62.715143 0
M  V30 4 F 37.466995 25.735473 54.389730 0
M  V30 5 C 36.406348 34.183802 60.931497 0
M  V30 6 N 37.682349 32.132653 60.546775 0 CHG=1
M  V30 7 C 38.349753 35.977840 60.956244 0 CFG=1
M  V30 8 C 38.421612 25.045420 56.432493 0 CFG=2
M  V30 9 C 39.220859 31.197230 55.012567 0
M  V30 10 C 36.491365 32.685311 61.204211 0 CFG=2
M  V30 11 N 36.132086 31.113500 59.462209 0
M  V30 12 C 37.839699 31.231537 54.341049 0
M  V30 13 C 39.257423 28.497915 57.802713 0 CFG=2
M  V30 14 C 40.267229 30.583013 54.080482 0
M  V30 15 N 40.267288 26.375256 57.264814 0 CHG=1
M  V30 16 C 40.822128 35.800063 61.807299 0
M  V30 17 C 38.376356 32.766371 57.364846 0
M  V30 18 C 35.318095 31.881553 60.416367 0
M  V30 19 C 38.442706 30.652578 58.752043 0 CFG=2
M  V30 20 C 39.813508 25.598537 56.098768 0
M  V30 21 O 40.267189 33.106251 61.164588 0
M  V30 22 C 37.570894 24.689278 55.209832 0
M  V30 23 C 40.656316 32.315186 63.391119 0
M  V30 24 C 40.576501 33.398008 62.321495 0
M  V30 25 S 37.628689 26.301222 57.453304 0
M  V30 26 C 38.268812 29.135311 58.786285 0
M  V30 27 C 39.056521 29.085065 56.378677 0
M  V30 28 C 36.844350 36.756651 59.259271 0
M  V30 29 O 37.663042 37.079928 60.371691 0
M  V30 30 O 39.074159 36.785840 63.172632 0
M  V30 31 N 39.213518 30.572623 56.372250 0 CFG=2 CHG=1
M  V30 32 C 39.486536 36.582823 61.833570 0 CFG=2
M  V30 33 N 39.118925 27.043581 57.866979 0
M  V30 34 C 37.400895 35.041338 61.734436 0
M  V30 35 H 37.275586 30.934208 57.004724 0
M  V30 36 H 41.089806 34.824556 63.681582 0
M  V30 37 H 35.393067 34.511271 61.139845 0
M  V30 38 H 36.557648 34.306583 59.863203 0
M  V30 39 H 38.827515 35.404952 60.162340 0
M  V30 40 H 38.535397 24.157782 57.055944 0
M  V30 41 H 39.552244 32.227389 55.139413 0
M  V30 42 H 36.507465 32.440457 62.253505 0
M  V30 43 H 35.715846 30.558055 58.723716 0
M  V30 44 H 37.907870 31.850218 53.453491 0
M  V30 45 H 37.493950 30.239557 54.051201 0
M  V30 46 H 37.066659 31.690634 54.955236 0
M  V30 47 H 40.265839 28.742628 58.143287 0
M  V30 48 H 40.442232 31.221533 53.213670 0
M  V30 49 H 41.214883 30.458900 54.604192 0
M  V30 50 H 39.940389 29.620967 53.689206 0
M  V30 51 H 40.963267 27.064141 57.019570 0
M  V30 52 H 41.094640 35.525819 60.786268 0
M  V30 53 H 41.615380 36.468296 62.146790 0
M  V30 54 H 37.690042 33.190325 58.094680 0
M  V30 55 H 39.379894 33.102981 57.624501 0
M  V30 56 H 38.093974 33.232357 56.420589 0
M  V30 57 H 34.766778 31.221378 61.085033 0
M  V30 58 H 34.622631 32.540238 59.895140 0
M  V30 59 H 39.428533 30.892274 59.151057 0
M  V30 60 H 40.526508 24.821602 55.853954 0
M  V30 61 H 39.765904 26.269830 55.242204 0
M  V30 62 H 38.008763 23.862991 54.653932 0
M  V30 63 H 36.558671 24.402732 55.498731 0
M  V30 64 H 40.314409 32.687616 64.357092 0
M  V30 65 H 40.031482 31.462567 63.123432 0
M  V30 66 H 41.684638 31.968584 63.494903 0
M  V30 67 H 38.437534 28.767881 59.799202 0
M  V30 68 H 37.243503 28.876918 58.523424 0
M  V30 69 H 39.788241 28.629603 55.715067 0
M  V30 70 H 38.071446 28.824969 55.988809 0
M  V30 71 H 36.665770 37.629775 58.653545 0
M  V30 72 H 37.306323 36.017397 58.604842 0
M  V30 73 H 35.867029 36.401771 59.577240 0
M  V30 74 H 38.239873 37.229141 63.158401 0
M  V30 75 H 39.714734 37.577450 61.453556 0
M  V30 76 H 38.051437 34.350247 62.253502 0
M  V30 77 H 36.852927 35.621503 62.480743 0
M  V30 78 H 40.632642 25.756853 57.976143 0
M  V30 79 H 38.626425 32.425145 60.794866 0
M  V30 80 H 40.136728 30.758213 56.735965 0
M  V30 END ATOM
M  V30 BEGIN BOND
M  V30 1 2 6 1
M  V30 2 1 10 5
M  V30 3 1 10 6
M  V30 4 1 11 1
M  V30 5 1 12 9
M  V30 6 1 14 9
M  V30 7 1 16 3
M  V30 8 1 17 2
M  V30 9 1 18 10
M  V30 10 1 18 11
M  V30 11 1 19 1
M  V30 12 1 19 2
M  V30 13 1 20 8
M  V30 14 1 20 15
M  V30 15 1 22 4
M  V30 16 1 22 8
M  V30 17 1 24 3
M  V30 18 2 24 21
M  V30 19 1 24 23
M  V30 20 1 25 8
M  V30 21 1 26 13
M  V30 22 1 26 19
M  V30 23 1 27 13
M  V30 24 1 29 7
M  V30 25 1 29 28
M  V30 26 1 31 2
M  V30 27 1 31 9
M  V30 28 1 31 27
M  V30 29 1 32 7
M  V30 30 1 32 16
M  V30 31 1 32 30
M  V30 32 1 33 13
M  V30 33 1 33 15
M  V30 34 1 33 25
M  V30 35 1 34 5
M  V30 36 1 34 7
M  V30 37 1 2 35 CFG=3
M  V30 38 1 36 3
M  V30 39 1 37 5
M  V30 40 1 38 5
M  V30 41 1 7 39 CFG=3
M  V30 42 1 8 40 CFG=1
M  V30 43 1 41 9
M  V30 44 1 10 42 CFG=1
M  V30 45 1 43 11
M  V30 46 1 44 12
M  V30 47 1 45 12
M  V30 48 1 46 12
M  V30 49 1 13 47 CFG=1
M  V30 50 1 48 14
M  V30 51 1 49 14
M  V30 52 1 50 14
M  V30 53 1 51 15
M  V30 54 1 52 16
M  V30 55 1 53 16
M  V30 56 1 54 17
M  V30 57 1 55 17
M  V30 58 1 56 17
M  V30 59 1 57 18
M  V30 60 1 58 18
M  V30 61 1 19 59 CFG=1
M  V30 62 1 60 20
M  V30 63 1 61 20
M  V30 64 1 62 22
M  V30 65 1 63 22
M  V30 66 1 64 23
M  V30 67 1 65 23
M  V30 68 1 66 23
M  V30 69 1 67 26
M  V30 70 1 68 26
M  V30 71 1 69 27
M  V30 72 1 70 27
M  V30 73 1 71 28
M  V30 74 1 72 28
M  V30 75 1 73 28
M  V30 76 1 74 30
M  V30 77 1 32 75 CFG=3
M  V30 78 1 76 34
M  V30 79 1 77 34
M  V30 80 1 78 15
M  V30 81 1 79 6
M  V30 82 1 31 80 CFG=1
M  V30 END BOND
M  V30 END CTAB
M  END
>  <i_epik_Tot_Q>  (1) 
3

>  <i_epik_Tot_abs_Q>  (1) 
3

>  <i_i_glide_confnum>  (1) 
1760

>  <i_i_glide_lignum>  (1) 
15

>  <i_i_glide_posenum>  (1) 
312

>  <i_i_glide_rotatable_bonds>  (1) 
13

>  <i_lp_mmshare_version>  (1) 
72125

>  <i_m_source_file_index>  (1) 
6

>  <i_f3d_flags>  (1) 
0

>  <num_sample>  (1) 
50

>  <b_lp_Chiralities_Consistent>  (1) 
1

>  <r_epik_Charging_Adjusted_Penalty>  (1) 
0.16301919670703535

>  <r_epik_Ionization_Penalty>  (1) 
0.082191666583868089

>  <r_epik_Ionization_Penalty_Charging>  (1) 
0.082191230012028396

>  <r_epik_Ionization_Penalty_Neutral>  (1) 
4.3657183969654913e-07

>  <r_epik_State_Penalty>  (1) 
0.080827966695006942

>  <r_glide_ring_energy>  (1) 
0

>  <r_i_docking_score>  (1) 
-6.3321367896040055

>  <r_i_glide_ecoul>  (1) 
-2.3229634031233779

>  <r_i_glide_eff_state_penalty>  (1) 
0.080827966695006942

>  <r_i_glide_einternal>  (1) 
22.806494305082914

>  <r_i_glide_emodel>  (1) 
-56.020809772806544

>  <r_i_glide_emodel_strain>  (1) 
0.67942517351470144

>  <r_i_glide_energy>  (1) 
-44.352866618133518

>  <r_i_glide_erotb>  (1) 
0.63983490757673345

>  <r_i_glide_esite>  (1) 
-0.16591245012151876

>  <r_i_glide_evdw>  (1) 
-42.029903215010144

>  <r_i_glide_gscore>  (1) 
-6.4129647562990124

>  <r_i_glide_gscore_strain>  (1) 
0

>  <r_i_glide_hbond>  (1) 
-0.022347585963809959

>  <r_i_glide_ligand_efficiency>  (1) 
-0.18623931734129429

>  <r_i_glide_ligand_efficiency_ln>  (1) 
-1.3989466272444073

>  <r_i_glide_ligand_efficiency_sa>  (1) 
-0.60334309032071931

>  <r_i_glide_lipo>  (1) 
-3.1566909775786707

>  <r_i_glide_metal>  (1) 
-0

>  <r_i_glide_rewards>  (1) 
-1.2579089789927325

>  <r_lp_Energy>  (1) 
42.756794999999997

>  <s_epik_Chemistry_Notes>  (1) 
This compound has an imine and may undergo hydrolysis. This compound has a N-S or N-O group and may undergo hydrolysis at high or low pH.

>  <s_epik_cmdline>  (1) 
J2VwaWtfcHl0aG9uJywgJy1waHQnLCAnMS4wJywgJy1waCcsICc3LjQnLCAnLXRuJywgJzgnLCAnLW1hJywgJzUwMCcsICctaW1hZScsICc8aW5maWxlLm1hZT4nLCAnLW9tYWUnLCAnPG91dGZpbGUubWFlPic=

>  <s_epik_input>  (1) 
RltDSDJdW0NASF0xW0NIMl1bTkhdTihTMSlbQ0BASF0oW0NIMl1OMltDSF0oW0NIM10pW0NIM10pW0NIMl1bQ0BASF0oW0NASF0yW0NIM10pQzM9TltDQEhdKFtDSDJdW05IXTMpW0NIMl1bQ0gyXVtDQEBIXShPW0NIM10pW0NAQEhdKFtPSF0pW0NIMl1bTkhdQyg9TylbQ0gzXQ==

>  <s_glide_docking_method>  (1) 
confgen

>  <s_i_glide_gridfile>  (1) 
gpcr_5ht2c_6bqh_protein_autoprepared_prepared

>  <s_lp_Force_Field>  (1) 
S-OPLS

>  <s_lp_Variant>  (1) 
DiffSBDD_5_num_sample_50-2

>  <s_m_source_file>  (1) 
generated__ligand_DiffSBDD_2026-05-06_prepared.sdf

>  <GenAI_Model>  (1) 
DiffSBDD

>  <Protein>  (1) 
GPCR_5HT2C

$$$$
DiffSBDD_29_num_sample_50
     RDKit          3D

  0  0  0  0  0  0  0  0  0  0999 V3000
M  V30 BEGIN CTAB
M  V30 COUNTS 79 81 0 0 1
M  V30 BEGIN ATOM
M  V30 1 C 42.061018 34.143854 65.052799 0
M  V30 2 C 40.345804 29.749623 60.889493 0
M  V30 3 C 41.889497 35.621448 65.399135 0
M  V30 4 C 38.275420 27.560252 56.063211 0
M  V30 5 C 36.955896 35.650264 60.168052 0
M  V30 6 C 39.872647 26.682030 57.849955 0
M  V30 7 C 39.458319 36.764375 62.240459 0 CFG=2
M  V30 8 N 38.327115 31.211814 61.198262 0 CHG=1
M  V30 9 C 38.265466 35.181363 60.703680 0 CFG=1
M  V30 10 N 39.667153 27.719879 58.566010 0
M  V30 11 C 38.463012 35.640434 62.161011 0
M  V30 12 C 38.671611 32.634315 61.462241 0 CFG=2
M  V30 13 O 36.998052 30.182616 59.194418 0
M  V30 14 O 40.790291 36.391407 62.610268 0
M  V30 15 C 36.083400 34.726694 59.882449 0
M  V30 16 C 38.222272 25.121803 56.788041 0
M  V30 17 C 36.724545 37.148621 59.972705 0
M  V30 18 C 39.635821 36.650496 64.827448 0
M  V30 19 C 38.017623 33.604717 60.444281 0 CFG=1
M  V30 20 C 37.642818 28.301609 57.240015 0
M  V30 21 C 42.135539 33.149310 66.218498 0
M  V30 22 F 43.160170 33.449551 67.014364 0
M  V30 23 O 41.202683 28.424219 62.699865 0
M  V30 24 O 39.993770 26.021020 55.519222 0
M  V30 25 C 36.450196 37.971947 61.257519 0
M  V30 26 C 39.119133 30.425893 60.214997 0 CFG=2
M  V30 27 F 41.015131 33.193006 66.934888 0
M  V30 28 C 36.475439 33.321579 60.118386 0
M  V30 29 C 40.009827 28.872272 62.104761 0
M  V30 30 C 38.169204 29.435843 59.486510 0 CFG=2
M  V30 31 C 40.426898 35.947023 65.661977 0
M  V30 32 F 42.299133 31.906902 65.759737 0
M  V30 33 C 38.748476 28.795233 58.192509 0 CFG=1
M  V30 34 O 42.140958 33.768684 63.884389 0
M  V30 35 C 40.054012 37.228849 63.519323 0 CFG=2
M  V30 36 C 39.106184 26.362287 56.562212 0 CFG=1
M  V30 37 C 40.192177 32.859041 61.595954 0
M  V30 38 H 41.067173 30.493580 61.207323 0
M  V30 39 H 40.910264 29.167512 60.165638 0
M  V30 40 H 42.287496 36.214910 64.576595 0
M  V30 41 H 42.479033 35.868996 66.280301 0
M  V30 42 H 38.912514 28.262284 55.522315 0
M  V30 43 H 37.512889 27.237018 55.352462 0
M  V30 44 H 40.622834 25.937297 58.130236 0
M  V30 45 H 39.409573 37.509521 61.453505 0
M  V30 46 H 37.394489 31.205028 60.797343 0
M  V30 47 H 39.098969 35.518074 60.090284 0
M  V30 48 H 37.527154 35.956246 62.619040 0
M  V30 49 H 38.840394 34.858055 62.805550 0
M  V30 50 H 38.210238 32.823219 62.431216 0
M  V30 51 H 36.578594 29.841491 58.415241 0
M  V30 52 H 35.103881 34.949312 59.482541 0
M  V30 53 H 37.481632 25.291397 57.570491 0
M  V30 54 H 37.683021 24.848634 55.880518 0
M  V30 55 H 38.817691 24.256469 57.083883 0
M  V30 56 H 37.562751 37.576975 59.421702 0
M  V30 57 H 35.867401 37.236775 59.309330 0
M  V30 58 H 38.608344 36.823385 65.113683 0
M  V30 59 H 38.520572 33.411660 59.493969 0
M  V30 60 H 36.952056 27.648974 57.776055 0
M  V30 61 H 37.068420 29.148072 56.856966 0
M  V30 62 H 40.983550 27.923299 63.472761 0
M  V30 63 H 40.656600 26.691760 55.459180 0
M  V30 64 H 35.898158 38.886962 61.053492 0
M  V30 65 H 35.867419 37.433760 62.001564 0
M  V30 66 H 37.368241 38.290824 61.740308 0
M  V30 67 H 39.467325 31.120542 59.454322 0
M  V30 68 H 36.324764 32.717304 59.223117 0
M  V30 69 H 35.915274 32.909827 60.957893 0
M  V30 70 H 39.397538 28.016345 61.824867 0
M  V30 71 H 39.467411 29.443363 62.856318 0
M  V30 72 H 37.867921 28.638776 60.161619 0
M  V30 73 H 40.014208 35.575839 66.588874 0
M  V30 74 H 39.314952 29.560538 57.659201 0
M  V30 75 H 40.267378 38.293517 63.515131 0
M  V30 76 H 40.459188 33.888352 61.816554 0
M  V30 77 H 40.600260 32.257292 62.406936 0
M  V30 78 H 40.720343 32.623331 60.674059 0
M  V30 79 H 38.309678 30.702323 62.067946 0
M  V30 END ATOM
M  V30 BEGIN BOND
M  V30 1 1 3 1
M  V30 2 1 9 5
M  V30 3 2 10 6
M  V30 4 1 11 7
M  V30 5 1 11 9
M  V30 6 1 12 8
M  V30 7 1 14 7
M  V30 8 2 15 5
M  V30 9 1 17 5
M  V30 10 1 19 9
M  V30 11 1 19 12
M  V30 12 1 20 4
M  V30 13 1 21 1
M  V30 14 1 22 21
M  V30 15 1 25 17
M  V30 16 1 26 2
M  V30 17 1 26 8
M  V30 18 1 27 21
M  V30 19 1 28 15
M  V30 20 1 28 19
M  V30 21 1 29 2
M  V30 22 1 29 23
M  V30 23 1 30 13
M  V30 24 1 30 26
M  V30 25 1 31 3
M  V30 26 2 31 18
M  V30 27 1 32 21
M  V30 28 1 33 10
M  V30 29 1 33 20
M  V30 30 1 33 30
M  V30 31 2 34 1
M  V30 32 1 35 7
M  V30 33 1 35 14
M  V30 34 1 35 18
M  V30 35 1 36 4
M  V30 36 1 36 6
M  V30 37 1 36 16
M  V30 38 1 36 24 CFG=3
M  V30 39 1 37 12
M  V30 40 1 38 2
M  V30 41 1 39 2
M  V30 42 1 40 3
M  V30 43 1 41 3
M  V30 44 1 42 4
M  V30 45 1 43 4
M  V30 46 1 44 6
M  V30 47 1 7 45 CFG=3
M  V30 48 1 46 8
M  V30 49 1 9 47 CFG=3
M  V30 50 1 48 11
M  V30 51 1 49 11
M  V30 52 1 12 50 CFG=1
M  V30 53 1 51 13
M  V30 54 1 52 15
M  V30 55 1 53 16
M  V30 56 1 54 16
M  V30 57 1 55 16
M  V30 58 1 56 17
M  V30 59 1 57 17
M  V30 60 1 58 18
M  V30 61 1 19 59 CFG=3
M  V30 62 1 60 20
M  V30 63 1 61 20
M  V30 64 1 62 23
M  V30 65 1 63 24
M  V30 66 1 64 25
M  V30 67 1 65 25
M  V30 68 1 66 25
M  V30 69 1 26 67 CFG=3
M  V30 70 1 68 28
M  V30 71 1 69 28
M  V30 72 1 70 29
M  V30 73 1 71 29
M  V30 74 1 30 72 CFG=1
M  V30 75 1 73 31
M  V30 76 1 33 74 CFG=3
M  V30 77 1 35 75 CFG=1
M  V30 78 1 76 37
M  V30 79 1 77 37
M  V30 80 1 78 37
M  V30 81 1 79 8
M  V30 END BOND
M  V30 END CTAB
M  END
>  <i_epik_Tot_Q>  (1) 
1

>  <i_epik_Tot_abs_Q>  (1) 
1

>  <i_i_glide_confnum>  (1) 
3306

>  <i_i_glide_lignum>  (1) 
74

>  <i_i_glide_posenum>  (1) 
140

>  <i_i_glide_rotatable_bonds>  (1) 
17

>  <i_lp_mmshare_version>  (1) 
72125

>  <i_m_source_file_index>  (1) 
30

>  <i_f3d_flags>  (1) 
0

>  <num_sample>  (1) 
50

>  <b_lp_Chiralities_Consistent>  (1) 
1

>  <r_epik_Charging_Adjusted_Penalty>  (1) 
0.073066720001252791

>  <r_epik_Ionization_Penalty>  (1) 
0.041882768558209021

>  <r_epik_Ionization_Penalty_Charging>  (1) 
0.011280877963412759

>  <r_epik_Ionization_Penalty_Neutral>  (1) 
0.030601890594796264

>  <r_epik_State_Penalty>  (1) 
0.061785842037840037

>  <r_glide_ring_energy>  (1) 
0

>  <r_i_docking_score>  (1) 
-6.3292707710081846

>  <r_i_glide_ecoul>  (1) 
-0.48934759771693148

>  <r_i_glide_eff_state_penalty>  (1) 
0.061785842037840037

>  <r_i_glide_einternal>  (1) 
9.2907464749107582

>  <r_i_glide_emodel>  (1) 
-58.569416939018602

>  <r_i_glide_emodel_strain>  (1) 
1.4903001771764508

>  <r_i_glide_energy>  (1) 
-44.162890956925224

>  <r_i_glide_erotb>  (1) 
0.87550365807384167

>  <r_i_glide_esite>  (1) 
0

>  <r_i_glide_evdw>  (1) 
-43.673543359208296

>  <r_i_glide_gscore>  (1) 
-6.3910566130460245

>  <r_i_glide_gscore_strain>  (1) 
0

>  <r_i_glide_hbond>  (1) 
0

>  <r_i_glide_ligand_efficiency>  (1) 
-0.17106137218941039

>  <r_i_glide_ligand_efficiency_ln>  (1) 
-1.3726704510726231

>  <r_i_glide_ligand_efficiency_sa>  (1) 
-0.57001444238209475

>  <r_i_glide_lipo>  (1) 
-3.0032045936939364

>  <r_i_glide_metal>  (1) 
-0

>  <r_i_glide_rewards>  (1) 
-2.0062763698079755

>  <r_lp_Energy>  (1) 
35.125267000000001

>  <s_epik_Chemistry_Notes>  (1) 
This compound has an imine and may undergo hydrolysis.

>  <s_epik_cmdline>  (1) 
J2VwaWtfcHl0aG9uJywgJy1waHQnLCAnMS4wJywgJy1waCcsICc3LjQnLCAnLXRuJywgJzgnLCAnLW1hJywgJzUwMCcsICctaW1hZScsICc8aW5maWxlLm1hZT4nLCAnLW9tYWUnLCAnPG91dGZpbGUubWFlPic=

>  <s_epik_input>  (1) 
RkMoRikoRilDKD1PKVtDSDJdL1tDSF09W0NIXVxbQ0BIXTFPW0NASF0xW0NIMl1bQ0BIXTJbQ0BIXShbQ0gyXVtDSF09QzJbQ0gyXVtDSDNdKVtDQEhdKFtDSDNdKVtOSF1bQ0BASF0oW0NIMl1bQ0gyXVtPSF0pW0NAQEhdKFtPSF0pW0NAQEhdKE49W0NIXTMpW0NIMl1bQ0gyXVtDQEBdMyhbQ0gzXSlbT0hd

>  <s_glide_docking_method>  (1) 
confgen

>  <s_i_glide_gridfile>  (1) 
gpcr_5ht2c_6bqh_protein_autoprepared_prepared

>  <s_lp_Force_Field>  (1) 
S-OPLS

>  <s_lp_Variant>  (1) 
DiffSBDD_29_num_sample_50-2

>  <s_m_source_file>  (1) 
generated__ligand_DiffSBDD_2026-05-06_prepared.sdf

>  <GenAI_Model>  (1) 
DiffSBDD

>  <Protein>  (1) 
GPCR_5HT2C

$$$$
DiffSBDD_10_num_sample_50
     RDKit          3D

  0  0  0  0  0  0  0  0  0  0999 V3000
M  V30 BEGIN CTAB
M  V30 COUNTS 64 66 0 0 1
M  V30 BEGIN ATOM
M  V30 1 C 36.430263 33.616855 59.647563 0
M  V30 2 C 36.405724 34.863994 60.513194 0
M  V30 3 C 41.771500 34.115819 64.187823 0
M  V30 4 N 38.878021 34.594721 61.013327 0 CFG=1 CHG=1
M  V30 5 O 40.267579 27.075305 55.403810 0 CHG=-1
M  V30 6 O 39.067441 33.186944 56.503318 0
M  V30 7 C 38.671090 27.657723 51.372421 0
M  V30 8 C 41.697852 35.330332 63.465675 0
M  V30 9 C 39.851207 29.865581 52.656987 0
M  V30 10 O 39.507988 28.445718 57.365763 0 CHG=-1
M  V30 11 N 37.543791 27.034282 53.428409 0
M  V30 12 C 40.757881 35.472131 62.425836 0
M  V30 13 C 39.182230 30.649088 55.346035 0
M  V30 14 C 38.403013 27.889609 52.735358 0
M  V30 15 C 37.525313 34.897224 61.566460 0 CFG=1
M  V30 16 C 36.257827 36.586595 63.100541 0
M  V30 17 C 39.904804 34.408360 62.119594 0
M  V30 18 O 37.871569 27.010153 56.114744 0
M  V30 19 C 38.904972 33.492557 60.018748 0
M  V30 20 N 37.868923 32.322767 58.212942 0
M  V30 21 C 37.534306 36.251488 62.327082 0
M  V30 22 P 39.132619 27.850296 56.024100 0
M  V30 23 C 40.971934 30.580255 50.505297 0
M  V30 24 C 39.503171 28.533610 50.653756 0
M  V30 25 C 38.518903 32.236881 57.056106 0
M  V30 26 N 38.520203 31.001238 56.576046 0
M  V30 27 C 40.906381 33.042799 63.864068 0
M  V30 28 O 40.667605 36.637741 61.731425 0 CHG=-1
M  V30 29 F 42.667461 33.981338 65.193772 0
M  V30 30 C 39.964544 33.189200 62.823157 0
M  V30 31 C 38.993302 28.996421 53.389292 0
M  V30 32 C 37.784517 33.548042 58.974191 0 CFG=1
M  V30 33 C 38.677676 29.277059 54.870506 0 CFG=2
M  V30 34 C 40.090552 29.633961 51.291734 0
M  V30 35 H 35.633915 33.654658 58.901758 0
M  V30 36 H 36.246674 32.733738 60.256294 0
M  V30 37 H 36.418122 35.761465 59.892597 0
M  V30 38 H 35.465998 34.819775 61.042165 0
M  V30 39 H 38.218913 26.816887 50.870435 0
M  V30 40 H 42.358937 36.149631 63.713407 0
M  V30 41 H 40.308120 30.715159 53.138143 0
M  V30 42 H 37.240980 26.173801 52.998817 0
M  V30 43 H 37.531372 27.049721 54.460147 0
M  V30 44 H 38.923833 31.422895 54.619912 0
M  V30 45 H 40.264457 30.647841 55.481822 0
M  V30 46 H 37.296325 34.085523 62.253499 0
M  V30 47 H 36.483637 36.857406 64.133008 0
M  V30 48 H 35.739377 37.432638 62.653302 0
M  V30 49 H 35.577605 35.740172 63.129441 0
M  V30 50 H 39.866451 33.505827 59.512319 0
M  V30 51 H 38.827786 32.530946 60.522849 0
M  V30 52 H 37.426094 31.499166 58.589528 0
M  V30 53 H 38.323370 36.247765 63.075028 0
M  V30 54 H 37.779354 37.065844 61.641991 0
M  V30 55 H 41.259605 30.170036 49.538096 0
M  V30 56 H 40.427668 31.506455 50.334660 0
M  V30 57 H 41.875466 30.824094 51.051613 0
M  V30 58 H 39.682273 28.370912 49.604902 0
M  V30 59 H 38.067015 30.261821 57.096992 0
M  V30 60 H 40.961538 32.117910 64.421207 0
M  V30 61 H 39.293664 32.379656 62.580526 0
M  V30 62 H 37.867136 34.420064 58.327296 0
M  V30 63 H 37.590676 29.352408 54.904211 0
M  V30 64 H 39.151861 35.431554 60.513287 0
M  V30 END ATOM
M  V30 BEGIN BOND
M  V30 1 1 2 1
M  V30 2 2 8 3
M  V30 3 1 12 8
M  V30 4 1 14 7
M  V30 5 1 14 11
M  V30 6 1 15 2
M  V30 7 1 15 4
M  V30 8 1 17 4
M  V30 9 2 17 12
M  V30 10 1 19 4
M  V30 11 1 21 15
M  V30 12 1 21 16
M  V30 13 1 22 5
M  V30 14 1 22 10
M  V30 15 2 22 18
M  V30 16 2 24 7
M  V30 17 2 25 6
M  V30 18 1 25 20
M  V30 19 1 26 13
M  V30 20 1 26 25
M  V30 21 1 27 3
M  V30 22 1 28 12
M  V30 23 1 29 3
M  V30 24 1 30 17
M  V30 25 2 30 27
M  V30 26 1 31 9
M  V30 27 2 31 14
M  V30 28 1 32 1
M  V30 29 1 32 19
M  V30 30 1 32 20
M  V30 31 1 33 13
M  V30 32 1 33 22
M  V30 33 1 33 31
M  V30 34 2 34 9
M  V30 35 1 34 23
M  V30 36 1 34 24
M  V30 37 1 35 1
M  V30 38 1 36 1
M  V30 39 1 37 2
M  V30 40 1 38 2
M  V30 41 1 39 7
M  V30 42 1 40 8
M  V30 43 1 41 9
M  V30 44 1 42 11
M  V30 45 1 43 11
M  V30 46 1 44 13
M  V30 47 1 45 13
M  V30 48 1 15 46 CFG=1
M  V30 49 1 47 16
M  V30 50 1 48 16
M  V30 51 1 49 16
M  V30 52 1 50 19
M  V30 53 1 51 19
M  V30 54 1 52 20
M  V30 55 1 53 21
M  V30 56 1 54 21
M  V30 57 1 55 23
M  V30 58 1 56 23
M  V30 59 1 57 23
M  V30 60 1 58 24
M  V30 61 1 59 26
M  V30 62 1 60 27
M  V30 63 1 61 30
M  V30 64 1 32 62 CFG=3
M  V30 65 1 33 63 CFG=3
M  V30 66 1 4 64 CFG=3
M  V30 END BOND
M  V30 END CTAB
M  END
>  <i_epik_Tot_Q>  (1) 
-2

>  <i_epik_Tot_abs_Q>  (1) 
4

>  <i_i_glide_confnum>  (1) 
244

>  <i_i_glide_lignum>  (1) 
34

>  <i_i_glide_posenum>  (1) 
31

>  <i_i_glide_rotatable_bonds>  (1) 
9

>  <i_lp_mmshare_version>  (1) 
72125

>  <i_m_source_file_index>  (1) 
11

>  <i_f3d_flags>  (1) 
0

>  <num_sample>  (1) 
50

>  <b_lp_Chiralities_Consistent>  (1) 
1

>  <r_epik_Charging_Adjusted_Penalty>  (1) 
1.3613781813755943

>  <r_epik_Ionization_Penalty>  (1) 
0.45221775539962494

>  <r_epik_Ionization_Penalty_Charging>  (1) 
0.45010221832775887

>  <r_epik_Ionization_Penalty_Neutral>  (1) 
0.0021155370718660637

>  <r_epik_State_Penalty>  (1) 
0.91127596304783554

>  <r_glide_ring_energy>  (1) 
0

>  <r_i_docking_score>  (1) 
-6.323211868894802

>  <r_i_glide_ecoul>  (1) 
-1.8880815816972392

>  <r_i_glide_eff_state_penalty>  (1) 
0.91127596304783554

>  <r_i_glide_einternal>  (1) 
11.272813151055306

>  <r_i_glide_emodel>  (1) 
-56.481082235035387

>  <r_i_glide_emodel_strain>  (1) 
4.1806762631515042

>  <r_i_glide_energy>  (1) 
-45.659693475855768

>  <r_i_glide_erotb>  (1) 
0.58773720055558498

>  <r_i_glide_esite>  (1) 
-0.2364620669596271

>  <r_i_glide_evdw>  (1) 
-43.771611894158532

>  <r_i_glide_gscore>  (1) 
-7.2344878319426371

>  <r_i_glide_gscore_strain>  (1) 
0.04516906578787605

>  <r_i_glide_hbond>  (1) 
-0.023321212393630875

>  <r_i_glide_ligand_efficiency>  (1) 
-0.18597681967337654

>  <r_i_glide_ligand_efficiency_ln>  (1) 
-1.396974861924198

>  <r_i_glide_ligand_efficiency_sa>  (1) 
-0.60249269977792508

>  <r_i_glide_lipo>  (1) 
-4.2752331258076657

>  <r_i_glide_metal>  (1) 
-0

>  <r_i_glide_rewards>  (1) 
-0.86058486116266331

>  <r_lp_Energy>  (1) 
32.038921000000002

>  <s_epik_cmdline>  (1) 
J2VwaWtfcHl0aG9uJywgJy1waHQnLCAnMS4wJywgJy1waCcsICc3LjQnLCAnLXRuJywgJzgnLCAnLW1hJywgJzUwMCcsICctaW1hZScsICc8aW5maWxlLm1hZT4nLCAnLW9tYWUnLCAnPG91dGZpbGUubWFlPic=

>  <s_epik_input>  (1) 
RmMxW2NIXWMoW09IXSljKFtjSF1bY0hdMSlOMltDQEBIXShbQ0gyXVtDSDNdKVtDSDJdW0NIMl1bQ0BASF0oW0NIMl0yKVtOSF1DKD1PKVtOSF1bQ0gyXVtDQEhdKFAoPU8pKFtPSF0pW09IXSljM1tjSF1jKFtDSDNdKVtjSF1bY0hdYzNbTkgyXQ==

>  <s_glide_docking_method>  (1) 
confgen

>  <s_i_glide_gridfile>  (1) 
gpcr_5ht2c_6bqh_protein_autoprepared_prepared

>  <s_lp_Force_Field>  (1) 
S-OPLS

>  <s_lp_Variant>  (1) 
DiffSBDD_10_num_sample_50-3

>  <s_m_source_file>  (1) 
generated__ligand_DiffSBDD_2026-05-06_prepared.sdf

>  <GenAI_Model>  (1) 
DiffSBDD

>  <Protein>  (1) 
GPCR_5HT2C

$$$$
DiffSBDD_12_num_sample_50
     RDKit          3D

  0  0  0  0  0  0  0  0  0  0999 V3000
M  V30 BEGIN CTAB
M  V30 COUNTS 70 72 0 0 1
M  V30 BEGIN ATOM
M  V30 1 C 39.060777 26.239022 58.439116 0
M  V30 2 C 37.284322 32.081155 60.089190 0
M  V30 3 C 37.867416 30.786750 57.086621 0
M  V30 4 O 37.836494 29.189299 55.202773 0
M  V30 5 N 37.691382 30.836178 59.596001 0
M  V30 6 F 42.569202 31.250288 64.248197 0
M  V30 7 N 38.854767 31.573090 57.125385 0
M  V30 8 C 38.436249 25.730945 56.010368 0
M  V30 9 C 36.952176 35.124534 59.270573 0
M  V30 10 C 38.296685 25.364838 57.475897 0
M  V30 11 C 39.706514 27.219694 57.456113 0
M  V30 12 C 39.594356 27.725286 54.998581 0
M  V30 13 C 41.377538 31.314164 63.631553 0
M  V30 14 C 40.000467 29.747922 62.156762 0
M  V30 15 N 36.311728 32.730968 59.335460 0
M  V30 16 N 38.609303 30.057454 60.299243 0
M  V30 17 C 37.240400 30.339421 55.768895 0
M  V30 18 C 37.072518 25.700436 55.290300 0
M  V30 19 N 37.792016 32.586643 61.173731 0
M  V30 20 O 39.062481 29.099323 52.484602 0
M  V30 21 C 39.665104 32.811309 62.592412 0
M  V30 22 C 37.213039 30.224881 58.351123 0
M  V30 23 O 36.385168 36.397333 59.053505 0
M  V30 24 C 39.229787 29.207312 54.916551 0 CFG=1
M  V30 25 C 39.467410 24.823010 55.330657 0
M  V30 26 C 38.906224 31.986617 61.800167 0
M  V30 27 C 40.926875 32.517232 63.279856 0
M  V30 28 C 39.205602 30.560177 61.438387 0
M  V30 29 C 40.631015 30.058218 63.460847 0
M  V30 30 C 39.625047 29.471482 51.236163 0
M  V30 31 C 35.869101 34.089079 59.621187 0
M  V30 32 C 39.531625 29.890359 53.567721 0
M  V30 33 O 37.608341 24.421439 57.853544 0
M  V30 34 N 38.945218 27.112572 56.181369 0 CFG=1 CHG=1
M  V30 35 H 39.794617 25.673387 59.012393 0
M  V30 36 H 38.363951 26.737403 59.112493 0
M  V30 37 H 39.123313 31.792743 58.075391 0
M  V30 38 H 36.132311 30.338819 58.282688 0
M  V30 39 H 37.700119 35.189163 60.061332 0
M  V30 40 H 37.467397 34.830761 58.354888 0
M  V30 41 H 40.747040 26.932365 57.293420 0
M  V30 42 H 39.702576 28.242556 57.833067 0
M  V30 43 H 39.227951 27.245841 54.091599 0
M  V30 44 H 40.667369 27.554148 55.053500 0
M  V30 45 H 40.146959 28.735447 61.807926 0
M  V30 46 H 35.923446 32.325602 58.474547 0
M  V30 47 H 38.810070 29.127278 59.966971 0
M  V30 48 H 36.211091 30.021427 55.935931 0
M  V30 49 H 36.805575 24.692146 54.971436 0
M  V30 50 H 36.267401 26.021533 55.945888 0
M  V30 51 H 37.067428 26.332721 54.401557 0
M  V30 52 H 39.319695 33.832782 62.670826 0
M  V30 53 H 37.222894 31.164963 55.056001 0
M  V30 54 H 37.382905 29.148339 58.378017 0
M  V30 55 H 36.085129 36.408819 58.146848 0
M  V30 56 H 39.811123 29.702313 55.690772 0
M  V30 57 H 38.929171 24.021431 54.850313 0
M  V30 58 H 40.041522 25.286308 54.532483 0
M  V30 59 H 40.183461 24.421432 56.046426 0
M  V30 60 H 41.551491 33.362180 63.529266 0
M  V30 61 H 41.313532 29.239653 63.691414 0
M  V30 62 H 39.857884 30.021464 64.228951 0
M  V30 63 H 39.166473 28.886218 50.438585 0
M  V30 64 H 39.467395 30.527766 51.016333 0
M  V30 65 H 40.697548 29.274144 51.220726 0
M  V30 66 H 34.984028 34.264854 59.008160 0
M  V30 67 H 35.554372 34.185528 60.661051 0
M  V30 68 H 39.087731 30.885466 53.526015 0
M  V30 69 H 40.609117 30.030383 53.484279 0
M  V30 70 H 38.107224 27.667145 56.306377 0
M  V30 END ATOM
M  V30 BEGIN BOND
M  V30 1 1 5 2
M  V30 2 2 7 3
M  V30 3 1 10 1
M  V30 4 1 10 8
M  V30 5 1 11 1
M  V30 6 1 13 6
M  V30 7 1 15 2
M  V30 8 1 16 5
M  V30 9 1 17 3
M  V30 10 1 17 4
M  V30 11 1 18 8
M  V30 12 2 19 2
M  V30 13 1 22 3
M  V30 14 1 22 5
M  V30 15 1 23 9
M  V30 16 1 24 4
M  V30 17 1 24 12
M  V30 18 1 25 8
M  V30 19 1 26 19
M  V30 20 2 26 21
M  V30 21 2 27 13
M  V30 22 1 27 21
M  V30 23 2 28 14
M  V30 24 1 28 16
M  V30 25 1 28 26
M  V30 26 1 29 13
M  V30 27 1 29 14
M  V30 28 1 30 20
M  V30 29 1 31 9
M  V30 30 1 31 15
M  V30 31 1 32 20
M  V30 32 1 32 24
M  V30 33 2 33 10
M  V30 34 1 34 8
M  V30 35 1 34 11
M  V30 36 1 34 12
M  V30 37 1 35 1
M  V30 38 1 36 1
M  V30 39 1 37 7
M  V30 40 1 38 22
M  V30 41 1 39 9
M  V30 42 1 40 9
M  V30 43 1 41 11
M  V30 44 1 42 11
M  V30 45 1 43 12
M  V30 46 1 44 12
M  V30 47 1 45 14
M  V30 48 1 46 15
M  V30 49 1 47 16
M  V30 50 1 48 17
M  V30 51 1 49 18
M  V30 52 1 50 18
M  V30 53 1 51 18
M  V30 54 1 52 21
M  V30 55 1 53 17
M  V30 56 1 54 22
M  V30 57 1 55 23
M  V30 58 1 24 56 CFG=1
M  V30 59 1 57 25
M  V30 60 1 58 25
M  V30 61 1 59 25
M  V30 62 1 60 27
M  V30 63 1 61 29
M  V30 64 1 62 29
M  V30 65 1 63 30
M  V30 66 1 64 30
M  V30 67 1 65 30
M  V30 68 1 66 31
M  V30 69 1 67 31
M  V30 70 1 68 32
M  V30 71 1 69 32
M  V30 72 1 34 70 CFG=1
M  V30 END BOND
M  V30 END CTAB
M  END
>  <i_epik_Tot_Q>  (1) 
1

>  <i_epik_Tot_abs_Q>  (1) 
1

>  <i_i_glide_confnum>  (1) 
1074

>  <i_i_glide_lignum>  (1) 
40

>  <i_i_glide_posenum>  (1) 
283

>  <i_i_glide_rotatable_bonds>  (1) 
13

>  <i_lp_mmshare_version>  (1) 
72125

>  <i_m_source_file_index>  (1) 
13

>  <i_f3d_flags>  (1) 
0

>  <num_sample>  (1) 
50

>  <b_lp_Chiralities_Consistent>  (1) 
1

>  <r_epik_Charging_Adjusted_Penalty>  (1) 
2.2216491605189872

>  <r_epik_Ionization_Penalty>  (1) 
0.91881204336881139

>  <r_epik_Ionization_Penalty_Charging>  (1) 
0.90548466078319156

>  <r_epik_Ionization_Penalty_Neutral>  (1) 
0.013327382585619883

>  <r_epik_State_Penalty>  (1) 
1.3161644997357957

>  <r_glide_ring_energy>  (1) 
0

>  <r_i_docking_score>  (1) 
-6.2999455522552017

>  <r_i_glide_ecoul>  (1) 
-12.82900036275009

>  <r_i_glide_eff_state_penalty>  (1) 
1.3161644997357957

>  <r_i_glide_einternal>  (1) 
6.4445637173833328

>  <r_i_glide_emodel>  (1) 
-71.173318111572996

>  <r_i_glide_emodel_strain>  (1) 
4.2265760344910461

>  <r_i_glide_energy>  (1) 
-55.529300328721305

>  <r_i_glide_erotb>  (1) 
0.96958307808003152

>  <r_i_glide_esite>  (1) 
-0.23331667192774203

>  <r_i_glide_evdw>  (1) 
-42.700299965971212

>  <r_i_glide_gscore>  (1) 
-7.6161100519909972

>  <r_i_glide_gscore_strain>  (1) 
0.056644008622761532

>  <r_i_glide_hbond>  (1) 
-0.45599999999999996

>  <r_i_glide_ligand_efficiency>  (1) 
-0.18529251624280005

>  <r_i_glide_ligand_efficiency_ln>  (1) 
-1.3918346799804333

>  <r_i_glide_ligand_efficiency_sa>  (1) 
-0.6002758223085749

>  <r_i_glide_lipo>  (1) 
-2.8895694844286068

>  <r_i_glide_metal>  (1) 
-0

>  <r_i_glide_rewards>  (1) 
-1.0040859296263671

>  <r_lp_Energy>  (1) 
35.139842000000002

>  <r_lp_tautomer_probability>  (1) 
0.49996700039999997

>  <s_epik_Chemistry_Notes>  (1) 
This compound has an imine and may undergo hydrolysis.

>  <s_epik_cmdline>  (1) 
J2VwaWtfcHl0aG9uJywgJy1waHQnLCAnMS4wJywgJy1waCcsICc3LjQnLCAnLXRuJywgJzgnLCAnLW1hJywgJzUwMCcsICctaW1hZScsICc8aW5maWxlLm1hZT4nLCAnLW9tYWUnLCAnPG91dGZpbGUubWFlPic=

>  <s_epik_input>  (1) 
W0NIM11DMShbQ0gzXSlDKD1PKVtDSDJdW0NIMl1OMVtDSDJdW0NAQEhdKFtDSDJdT1tDSDNdKU8vW0NIXT1DKFxbTkgyXSlbQ0gyXU4oQyg9TjIpW05IXVtDSDJdW0NIMl1bT0hdKVtOSF1DKEMyMyk9W0NIXVtDSDJdQyhGKT1bQ0hdW0NIXT0z

>  <s_glide_docking_method>  (1) 
confgen

>  <s_i_glide_gridfile>  (1) 
gpcr_5ht2c_6bqh_protein_autoprepared_prepared

>  <s_lp_Force_Field>  (1) 
S-OPLS

>  <s_lp_Variant>  (1) 
DiffSBDD_12_num_sample_50-2

>  <s_m_source_file>  (1) 
generated__ligand_DiffSBDD_2026-05-06_prepared.sdf

>  <GenAI_Model>  (1) 
DiffSBDD

>  <Protein>  (1) 
GPCR_5HT2C

$$$$
DiffSBDD_32_num_sample_50
     RDKit          3D

  0  0  0  0  0  0  0  0  0  0999 V3000
M  V30 BEGIN CTAB
M  V30 COUNTS 52 55 0 0 1
M  V30 BEGIN ATOM
M  V30 1 C 37.171990 33.277351 60.967311 0
M  V30 2 O 38.345862 26.720821 54.521947 0
M  V30 3 C 38.650177 30.443669 57.677348 0
M  V30 4 C 38.875268 29.381371 55.643796 0
M  V30 5 C 39.616232 29.703142 51.885222 0
M  V30 6 C 36.734564 37.102250 59.342471 0
M  V30 7 N 35.922099 34.818361 59.573838 0
M  V30 8 C 38.946930 27.416503 52.320539 0
M  V30 9 C 38.595390 30.716383 56.289569 0
M  V30 10 C 36.881918 35.712413 59.914607 0
M  V30 11 C 39.023001 29.035649 54.182459 0
M  V30 12 C 39.216691 28.021430 60.253531 0
M  V30 13 C 39.442126 30.021746 53.249308 0
M  V30 14 N 38.499997 31.288709 58.634536 0 CHG=1
M  V30 15 N 38.137549 34.167952 61.287321 0
M  V30 16 N 38.889516 29.270704 58.040938 0
M  V30 17 C 36.074135 33.599195 60.131508 0
M  V30 18 C 39.367862 28.405022 51.427035 0
M  V30 19 C 38.340306 31.969881 55.475369 0
M  V30 20 C 38.771962 27.711426 53.686711 0
M  V30 21 C 37.971180 35.399479 60.759738 0
M  V30 22 F 38.877389 36.360545 61.053504 0
M  V30 23 C 38.633910 31.205872 61.187197 0
M  V30 24 C 40.073753 30.770947 50.912363 0
M  V30 25 C 38.941701 29.219950 59.423619 0
M  V30 26 C 38.684018 30.578880 59.827816 0
M  V30 27 C 37.321123 31.895057 61.577235 0
M  V30 28 S 39.105774 28.064024 56.928884 0
M  V30 29 N 35.093831 32.653118 59.853500 0
M  V30 30 H 38.135809 25.917649 54.070091 0
M  V30 31 H 37.624222 37.361743 58.768851 0
M  V30 32 H 35.867409 37.176627 58.685536 0
M  V30 33 H 36.624801 37.821842 60.154617 0
M  V30 34 H 38.755045 26.421431 51.958596 0
M  V30 35 H 39.853508 28.281533 61.099020 0
M  V30 36 H 38.279335 27.621430 60.635501 0
M  V30 37 H 39.721434 27.250099 59.671403 0
M  V30 38 H 39.651913 31.021972 53.582262 0
M  V30 39 H 39.499578 28.165137 50.381438 0
M  V30 40 H 37.775506 32.685111 56.074279 0
M  V30 41 H 39.276261 32.447957 55.188151 0
M  V30 42 H 37.740457 31.756968 54.590357 0
M  V30 43 H 38.806677 30.406136 61.908293 0
M  V30 44 H 39.484140 31.879096 61.300913 0
M  V30 45 H 39.497227 31.683547 51.054576 0
M  V30 46 H 41.128624 30.998935 51.062299 0
M  V30 47 H 39.938323 30.451608 49.878418 0
M  V30 48 H 36.480319 31.232664 61.378621 0
M  V30 49 H 37.327506 32.047301 62.653500 0
M  V30 50 H 35.194015 31.693883 60.143324 0
M  V30 51 H 34.377603 32.842425 59.165669 0
M  V30 52 H 38.301317 32.277572 58.544809 0
M  V30 END ATOM
M  V30 BEGIN BOND
M  V30 1 1 9 3
M  V30 2 2 9 4
M  V30 3 1 10 6
M  V30 4 2 10 7
M  V30 5 1 11 4
M  V30 6 2 13 5
M  V30 7 1 13 11
M  V30 8 2 14 3
M  V30 9 1 15 1
M  V30 10 1 16 3
M  V30 11 2 17 1
M  V30 12 1 17 7
M  V30 13 1 18 5
M  V30 14 2 18 8
M  V30 15 1 19 9
M  V30 16 1 20 2
M  V30 17 1 20 8
M  V30 18 2 20 11
M  V30 19 1 21 10
M  V30 20 2 21 15
M  V30 21 1 22 21
M  V30 22 1 24 5
M  V30 23 1 25 12
M  V30 24 1 25 16
M  V30 25 1 26 14
M  V30 26 1 26 23
M  V30 27 2 26 25
M  V30 28 1 27 1
M  V30 29 1 27 23
M  V30 30 1 28 4
M  V30 31 1 28 16
M  V30 32 1 29 17
M  V30 33 1 30 2
M  V30 34 1 31 6
M  V30 35 1 32 6
M  V30 36 1 33 6
M  V30 37 1 34 8
M  V30 38 1 35 12
M  V30 39 1 36 12
M  V30 40 1 37 12
M  V30 41 1 38 13
M  V30 42 1 39 18
M  V30 43 1 40 19
M  V30 44 1 41 19
M  V30 45 1 42 19
M  V30 46 1 43 23
M  V30 47 1 44 23
M  V30 48 1 45 24
M  V30 49 1 46 24
M  V30 50 1 47 24
M  V30 51 1 48 27
M  V30 52 1 49 27
M  V30 53 1 50 29
M  V30 54 1 51 29
M  V30 55 1 52 14
M  V30 END BOND
M  V30 END CTAB
M  END
>  <i_epik_Tot_Q>  (1) 
1

>  <i_epik_Tot_abs_Q>  (1) 
1

>  <i_i_glide_confnum>  (1) 
67

>  <i_i_glide_lignum>  (1) 
85

>  <i_i_glide_posenum>  (1) 
214

>  <i_i_glide_rotatable_bonds>  (1) 
5

>  <i_lp_mmshare_version>  (1) 
72125

>  <i_m_source_file_index>  (1) 
33

>  <i_f3d_flags>  (1) 
0

>  <num_sample>  (1) 
50

>  <b_lp_Chiralities_Consistent>  (1) 
1

>  <r_epik_Charging_Adjusted_Penalty>  (1) 
0.70840898770903482

>  <r_epik_Ionization_Penalty>  (1) 
0.71036238548422381

>  <r_epik_Ionization_Penalty_Charging>  (1) 
0

>  <r_epik_Ionization_Penalty_Neutral>  (1) 
0.71036238548422381

>  <r_epik_State_Penalty>  (1) 
0.70840898770903482

>  <r_glide_ring_energy>  (1) 
0

>  <r_i_docking_score>  (1) 
-6.289803630705368

>  <r_i_glide_ecoul>  (1) 
0.48432110436894704

>  <r_i_glide_eff_state_penalty>  (1) 
0.70840898770903482

>  <r_i_glide_einternal>  (1) 
6.256708721666854

>  <r_i_glide_emodel>  (1) 
-65.806789850216177

>  <r_i_glide_emodel_strain>  (1) 
0.57442194105881583

>  <r_i_glide_energy>  (1) 
-46.508859766829303

>  <r_i_glide_erotb>  (1) 
0.46353657378789748

>  <r_i_glide_esite>  (1) 
-0.1607751457841293

>  <r_i_glide_evdw>  (1) 
-46.993180871198248

>  <r_i_glide_gscore>  (1) 
-6.9982126184144029

>  <r_i_glide_gscore_strain>  (1) 
0

>  <r_i_glide_hbond>  (1) 
0

>  <r_i_glide_ligand_efficiency>  (1) 
-0.21688978036915063

>  <r_i_glide_ligand_efficiency_ln>  (1) 
-1.4402055357731165

>  <r_i_glide_ligand_efficiency_sa>  (1) 
-0.66635412154744955

>  <r_i_glide_lipo>  (1) 
-3.4405817012554434

>  <r_i_glide_metal>  (1) 
-0

>  <r_i_glide_rewards>  (1) 
-1.5833814672581576

>  <r_lp_Energy>  (1) 
27.758326

>  <r_lp_tautomer_probability>  (1) 
0.99999990127737282

>  <s_epik_cmdline>  (1) 
J2VwaWtfcHl0aG9uJywgJy1waHQnLCAnMS4wJywgJy1waCcsICc3LjQnLCAnLXRuJywgJzgnLCAnLW1hJywgJzUwMCcsICctaW1hZScsICc8aW5maWxlLm1hZT4nLCAnLW9tYWUnLCAnPG91dGZpbGUubWFlPic=

>  <s_epik_input>  (1) 
W05IMl1jMW5jKFtDSDNdKWMoRiluYzFbQ0gyXVtDSDJdYyhuMiljKFtDSDNdKW4oYzIzKXNjKGMzW0NIM10pLWMoW2NIXWM0W0NIM10pYyhbT0hdKVtjSF1bY0hdNA==

>  <s_glide_docking_method>  (1) 
confgen

>  <s_i_glide_gridfile>  (1) 
gpcr_5ht2c_6bqh_protein_autoprepared_prepared

>  <s_lp_Force_Field>  (1) 
S-OPLS

>  <s_lp_Variant>  (1) 
DiffSBDD_32_num_sample_50-2

>  <s_m_source_file>  (1) 
generated__ligand_DiffSBDD_2026-05-06_prepared.sdf

>  <GenAI_Model>  (1) 
DiffSBDD

>  <Protein>  (1) 
GPCR_5HT2C

$$$$
DiffSBDD_34_num_sample_50
     RDKit          3D

  0  0  0  0  0  0  0  0  0  0999 V3000
M  V30 BEGIN CTAB
M  V30 COUNTS 50 51 0 0 1
M  V30 BEGIN ATOM
M  V30 1 C 38.967705 28.434614 55.628413 0 CFG=1
M  V30 2 C 39.702531 33.898002 62.232993 0
M  V30 3 C 38.058897 27.061658 53.689500 0
M  V30 4 C 38.197169 33.261897 55.791091 0
M  V30 5 C 38.795171 30.987357 60.072770 0
M  V30 6 C 41.337777 35.474986 63.439261 0
M  V30 7 C 38.652975 28.300920 54.212455 0
M  V30 8 C 39.177365 29.974366 55.351124 0
M  V30 9 C 38.950372 29.315213 53.460293 0
M  V30 10 C 38.347143 30.485747 57.648857 0
M  V30 11 C 38.111268 28.174615 56.820364 0
M  V30 12 C 41.529906 34.698577 64.757214 0
M  V30 13 C 41.781759 35.586553 65.985820 0
M  V30 14 C 37.864079 29.100715 57.752062 0
M  V30 15 C 41.089577 34.559398 62.225124 0
M  V30 16 O 40.674293 36.420634 66.252479 0
M  V30 17 O 39.609455 32.958810 61.171621 0
M  V30 18 O 37.867804 31.828461 62.139221 0
M  V30 19 O 37.786683 26.091119 54.395339 0
M  V30 20 C 38.978771 30.917927 56.502485 0
M  V30 21 N 39.467575 30.392221 54.141334 0
M  V30 22 C 39.362845 32.382407 56.250323 0
M  V30 23 C 38.060434 31.452720 58.797841 0 CFG=1
M  V30 24 O 36.667393 31.444985 59.053467 0
M  V30 25 C 38.699979 31.966903 61.240784 0
M  V30 26 H 39.935305 27.963847 55.806330 0
M  V30 27 H 39.544584 33.391138 63.185111 0
M  V30 28 H 38.917442 34.648087 62.130598 0
M  V30 29 H 37.873262 27.060533 52.615327 0
M  V30 30 H 38.534952 34.273486 55.565650 0
M  V30 31 H 37.723734 32.862364 54.893483 0
M  V30 32 H 37.437837 33.338627 56.566436 0
M  V30 33 H 39.850196 30.823116 59.856379 0
M  V30 34 H 38.403688 30.024097 60.399981 0
M  V30 35 H 40.513457 36.182734 63.533421 0
M  V30 36 H 42.230073 36.075106 63.255439 0
M  V30 37 H 38.797931 29.381769 52.392164 0
M  V30 38 H 37.722582 27.173118 56.936765 0
M  V30 39 H 42.375830 34.019541 64.644049 0
M  V30 40 H 40.667428 34.065444 64.956524 0
M  V30 41 H 42.667674 36.205917 65.848950 0
M  V30 42 H 41.956646 34.956918 66.858287 0
M  V30 43 H 37.264423 28.825328 58.606835 0
M  V30 44 H 41.196228 35.141781 61.309212 0
M  V30 45 H 41.862591 33.790654 62.187454 0
M  V30 46 H 40.757535 37.178085 65.687045 0
M  V30 47 H 39.834485 32.820972 57.126474 0
M  V30 48 H 40.148833 32.421336 55.499670 0
M  V30 49 H 38.323234 32.483071 58.576851 0
M  V30 50 H 36.203293 31.621430 58.220395 0
M  V30 END ATOM
M  V30 BEGIN BOND
M  V30 1 1 7 1
M  V30 2 1 7 3
M  V30 3 1 8 1
M  V30 4 2 9 7
M  V30 5 1 11 1
M  V30 6 1 12 6
M  V30 7 1 13 12
M  V30 8 1 14 10
M  V30 9 2 14 11
M  V30 10 1 15 2
M  V30 11 1 15 6
M  V30 12 1 16 13
M  V30 13 1 17 2
M  V30 14 2 19 3
M  V30 15 1 20 8
M  V30 16 2 20 10
M  V30 17 2 21 8
M  V30 18 1 21 9
M  V30 19 1 22 4
M  V30 20 1 22 20
M  V30 21 1 23 5
M  V30 22 1 23 10
M  V30 23 1 24 23
M  V30 24 1 25 5
M  V30 25 1 25 17
M  V30 26 2 25 18
M  V30 27 1 1 26 CFG=1
M  V30 28 1 27 2
M  V30 29 1 28 2
M  V30 30 1 29 3
M  V30 31 1 30 4
M  V30 32 1 31 4
M  V30 33 1 32 4
M  V30 34 1 33 5
M  V30 35 1 34 5
M  V30 36 1 35 6
M  V30 37 1 36 6
M  V30 38 1 37 9
M  V30 39 1 38 11
M  V30 40 1 39 12
M  V30 41 1 40 12
M  V30 42 1 41 13
M  V30 43 1 42 13
M  V30 44 1 43 14
M  V30 45 1 44 15
M  V30 46 1 45 15
M  V30 47 1 46 16
M  V30 48 1 47 22
M  V30 49 1 48 22
M  V30 50 1 23 49 CFG=3
M  V30 51 1 50 24
M  V30 END BOND
M  V30 END CTAB
M  END
>  <i_epik_Tot_Q>  (1) 
0

>  <i_epik_Tot_abs_Q>  (1) 
0

>  <i_i_glide_confnum>  (1) 
171

>  <i_i_glide_lignum>  (1) 
87

>  <i_i_glide_posenum>  (1) 
88

>  <i_i_glide_rotatable_bonds>  (1) 
13

>  <i_lp_mmshare_version>  (1) 
72125

>  <i_m_source_file_index>  (1) 
35

>  <i_f3d_flags>  (1) 
0

>  <num_sample>  (1) 
50

>  <b_lp_Chiralities_Consistent>  (1) 
1

>  <r_epik_Charging_Adjusted_Penalty>  (1) 
0.012701380709717016

>  <r_epik_Ionization_Penalty>  (1) 
0.012701608846652416

>  <r_epik_Ionization_Penalty_Charging>  (1) 
0

>  <r_epik_Ionization_Penalty_Neutral>  (1) 
0.012701608846652416

>  <r_epik_State_Penalty>  (1) 
0.012701380709717016

>  <r_glide_ring_energy>  (1) 
0

>  <r_i_docking_score>  (1) 
-6.2823005875377556

>  <r_i_glide_ecoul>  (1) 
-9.4510628664535119

>  <r_i_glide_eff_state_penalty>  (1) 
0.012701380709717016

>  <r_i_glide_einternal>  (1) 
4.4199424976737678

>  <r_i_glide_emodel>  (1) 
-63.682305076849602

>  <r_i_glide_emodel_strain>  (1) 
0.34585608537645385

>  <r_i_glide_energy>  (1) 
-47.396008482348073

>  <r_i_glide_erotb>  (1) 
1.4185672597553849

>  <r_i_glide_esite>  (1) 
0

>  <r_i_glide_evdw>  (1) 
-37.944945615894561

>  <r_i_glide_gscore>  (1) 
-6.2950019682474725

>  <r_i_glide_gscore_strain>  (1) 
0

>  <r_i_glide_hbond>  (1) 
-0.52866469307174002

>  <r_i_glide_ligand_efficiency>  (1) 
-0.2512920235015102

>  <r_i_glide_ligand_efficiency_ln>  (1) 
-1.4890935046029747

>  <r_i_glide_ligand_efficiency_sa>  (1) 
-0.73478233418982031

>  <r_i_glide_lipo>  (1) 
-1.4227021342864004

>  <r_i_glide_metal>  (1) 
-0

>  <r_i_glide_rewards>  (1) 
-2.4472956898819609

>  <r_lp_Energy>  (1) 
19.135596

>  <s_epik_Chemistry_Notes>  (1) 
This compound has an ester and may undergo hydrolysis at high or low pH. This compound has an imine and may undergo hydrolysis.

>  <s_epik_cmdline>  (1) 
J2VwaWtfcHl0aG9uJywgJy1waHQnLCAnMS4wJywgJy1waCcsICc3LjQnLCAnLXRuJywgJzgnLCAnLW1hJywgJzUwMCcsICctaW1hZScsICc8aW5maWxlLm1hZT4nLCAnLW9tYWUnLCAnPG91dGZpbGUubWFlPic=

>  <s_epik_input>  (1) 
Tz1bQ0hdQzE9W0NIXU49QyhbQ0BIXTEyKUMoW0NIMl1bQ0gzXSk9QyhbQ0hdPVtDSF0yKVtDQEBIXShbT0hdKVtDSDJdQyg9TylPW0NIMl1bQ0gyXVtDSDJdW0NIMl1bQ0gyXVtPSF0=

>  <s_glide_docking_method>  (1) 
confgen

>  <s_i_glide_gridfile>  (1) 
gpcr_5ht2c_6bqh_protein_autoprepared_prepared

>  <s_lp_Force_Field>  (1) 
S-OPLS

>  <s_lp_Variant>  (1) 
DiffSBDD_34_num_sample_50-1

>  <s_m_source_file>  (1) 
generated__ligand_DiffSBDD_2026-05-06_prepared.sdf

>  <GenAI_Model>  (1) 
DiffSBDD

>  <Protein>  (1) 
GPCR_5HT2C

$$$$
DiffSBDD_2_num_sample_50
     RDKit          3D

  0  0  0  0  0  0  0  0  0  0999 V3000
M  V30 BEGIN CTAB
M  V30 COUNTS 69 73 0 0 1
M  V30 BEGIN ATOM
M  V30 1 C 39.173974 29.322613 61.527062 0
M  V30 2 C 39.151596 29.719465 53.679337 0
M  V30 3 C 41.450167 27.902479 59.832324 0
M  V30 4 C 36.981367 26.156798 57.763814 0
M  V30 5 F 38.665372 31.998159 53.750459 0
M  V30 6 C 39.558176 31.103514 53.337985 0
M  V30 7 C 38.926268 29.242380 60.244671 0
M  V30 8 C 38.952260 31.239953 60.675016 0
M  V30 9 C 36.981501 29.450625 57.439396 0
M  V30 10 C 40.275285 27.396551 58.964905 0 CFG=1
M  V30 11 C 39.949045 31.425750 63.035822 0
M  V30 12 C 37.781761 32.989314 58.294765 0 CFG=2
M  V30 13 C 39.700004 24.972922 54.788346 0
M  V30 14 C 39.029617 27.954685 55.333840 0
M  V30 15 C 40.396085 30.711091 64.294100 0
M  V30 16 C 41.214018 28.801254 57.256158 0
M  V30 17 C 39.256219 27.470155 56.782838 0 CFG=2
M  V30 18 C 40.273553 32.703438 62.767126 0
M  V30 19 O 38.038747 33.220896 56.926912 0
M  V30 20 O 35.940947 29.645626 58.372426 0
M  V30 21 C 38.399075 27.520423 53.002236 0
M  V30 22 F 40.672942 31.221424 54.047400 0
M  V30 23 O 37.805775 34.132797 59.148833 0
M  V30 24 C 38.691179 28.844652 52.679602 0
M  V30 25 C 38.975531 33.296845 59.176043 0 CFG=1
M  V30 26 C 39.284118 29.283029 55.002228 0
M  V30 27 P 37.873487 27.836040 57.861794 0 CFG=2 CHG=1
M  V30 28 C 39.854500 33.361423 61.527979 0
M  V30 29 C 38.899372 27.934028 59.431554 0 CFG=2
M  V30 30 C 38.341806 25.632230 54.630667 0
M  V30 31 C 39.049586 30.651746 62.115061 0 CFG=2
M  V30 32 N 38.665998 30.462277 59.670944 0
M  V30 33 N 40.518032 27.586044 57.516958 0
M  V30 34 C 38.582403 27.063135 54.320571 0
M  V30 35 F 39.867364 31.221428 52.045613 0
M  V30 36 C 39.234164 32.695246 60.518147 0
M  V30 37 H 39.392813 28.466645 62.150360 0
M  V30 38 H 41.340041 27.621412 60.877941 0
M  V30 39 H 42.376341 27.470382 59.453497 0
M  V30 40 H 41.539123 28.987833 59.821267 0
M  V30 41 H 37.705466 25.371450 57.566545 0
M  V30 42 H 36.570556 25.714122 58.652315 0
M  V30 43 H 36.267288 26.102678 56.954924 0
M  V30 44 H 36.624854 29.608025 56.420796 0
M  V30 45 H 37.678407 30.277248 57.494881 0
M  V30 46 H 40.222236 26.313017 59.053537 0
M  V30 47 H 37.062678 32.214861 58.537366 0
M  V30 48 H 39.467600 24.021437 55.213083 0
M  V30 49 H 40.267365 24.905334 53.854150 0
M  V30 50 H 40.386043 25.453191 55.481094 0
M  V30 51 H 40.950165 29.806786 64.038644 0
M  V30 52 H 41.031159 31.342861 64.916505 0
M  V30 53 H 39.528300 30.417063 64.883696 0
M  V30 54 H 42.199070 28.821286 57.718544 0
M  V30 55 H 41.433886 28.821412 56.188626 0
M  V30 56 H 40.634677 29.658452 57.590120 0
M  V30 57 H 39.227007 26.399247 56.763590 0
M  V30 58 H 40.886136 33.250715 63.468310 0
M  V30 59 H 37.201968 33.220390 56.473698 0
M  V30 60 H 35.489664 30.447503 58.096077 0
M  V30 61 H 38.059945 26.840153 52.231834 0
M  V30 62 H 38.583705 29.187469 51.660811 0
M  V30 63 H 39.854450 33.753303 58.728751 0
M  V30 64 H 39.624140 29.972821 55.754907 0
M  V30 65 H 40.115822 34.400427 61.380593 0
M  V30 66 H 38.457923 27.221574 60.119274 0
M  V30 67 H 37.720295 25.502159 55.494205 0
M  V30 68 H 37.752111 25.166781 53.853417 0
M  V30 69 H 38.062304 30.691972 62.574442 0
M  V30 END ATOM
M  V30 BEGIN BOND
M  V30 1 1 6 2
M  V30 2 1 6 5
M  V30 3 2 7 1
M  V30 4 1 10 3
M  V30 5 1 15 11
M  V30 6 1 17 14
M  V30 7 2 18 11
M  V30 8 1 19 12
M  V30 9 1 20 9
M  V30 10 1 22 6
M  V30 11 1 23 12
M  V30 12 1 24 2
M  V30 13 2 24 21
M  V30 14 1 25 12
M  V30 15 1 25 23
M  V30 16 2 26 2
M  V30 17 1 26 14
M  V30 18 1 27 4 CFG=1
M  V30 19 1 27 9
M  V30 20 1 27 17
M  V30 21 1 28 18
M  V30 22 1 29 7
M  V30 23 1 29 10
M  V30 24 1 29 27
M  V30 25 1 30 13
M  V30 26 1 31 1
M  V30 27 1 31 8
M  V30 28 1 31 11
M  V30 29 1 32 7
M  V30 30 2 32 8
M  V30 31 1 33 10
M  V30 32 1 33 16
M  V30 33 1 33 17
M  V30 34 2 34 14
M  V30 35 1 34 21
M  V30 36 1 34 30
M  V30 37 1 35 6
M  V30 38 1 36 8
M  V30 39 1 36 25
M  V30 40 2 36 28
M  V30 41 1 37 1
M  V30 42 1 38 3
M  V30 43 1 39 3
M  V30 44 1 40 3
M  V30 45 1 41 4
M  V30 46 1 42 4
M  V30 47 1 43 4
M  V30 48 1 44 9
M  V30 49 1 45 9
M  V30 50 1 10 46 CFG=3
M  V30 51 1 12 47 CFG=3
M  V30 52 1 48 13
M  V30 53 1 49 13
M  V30 54 1 50 13
M  V30 55 1 51 15
M  V30 56 1 52 15
M  V30 57 1 53 15
M  V30 58 1 54 16
M  V30 59 1 55 16
M  V30 60 1 56 16
M  V30 61 1 17 57 CFG=3
M  V30 62 1 58 18
M  V30 63 1 59 19
M  V30 64 1 60 20
M  V30 65 1 61 21
M  V30 66 1 62 24
M  V30 67 1 25 63 CFG=3
M  V30 68 1 64 26
M  V30 69 1 65 28
M  V30 70 1 29 66 CFG=1
M  V30 71 1 67 30
M  V30 72 1 68 30
M  V30 73 1 31 69 CFG=1
M  V30 END BOND
M  V30 END CTAB
M  END
>  <i_epik_Tot_Q>  (1) 
1

>  <i_epik_Tot_abs_Q>  (1) 
1

>  <i_i_glide_confnum>  (1) 
23

>  <i_i_glide_lignum>  (1) 
8

>  <i_i_glide_posenum>  (1) 
51

>  <i_i_glide_rotatable_bonds>  (1) 
8

>  <i_lp_mmshare_version>  (1) 
72125

>  <i_m_source_file_index>  (1) 
3

>  <i_f3d_flags>  (1) 
0

>  <num_sample>  (1) 
50

>  <b_lp_Chiralities_Consistent>  (1) 
1

>  <r_epik_Charging_Adjusted_Penalty>  (1) 
0.0033292626678827373

>  <r_epik_Ionization_Penalty>  (1) 
0.0034349233012131116

>  <r_epik_Ionization_Penalty_Charging>  (1) 
0

>  <r_epik_Ionization_Penalty_Neutral>  (1) 
0.0034349233012131116

>  <r_epik_State_Penalty>  (1) 
0.0033292626678827373

>  <r_glide_ring_energy>  (1) 
0

>  <r_i_docking_score>  (1) 
-6.2717356559663155

>  <r_i_glide_ecoul>  (1) 
-4.6738878314508865

>  <r_i_glide_eff_state_penalty>  (1) 
0.0033292626678827373

>  <r_i_glide_einternal>  (1) 
3.3298320794403384

>  <r_i_glide_emodel>  (1) 
-14.018206241556317

>  <r_i_glide_emodel_strain>  (1) 
2.3608922991962515

>  <r_i_glide_energy>  (1) 
-12.438185602888687

>  <r_i_glide_erotb>  (1) 
0.30231676593683265

>  <r_i_glide_esite>  (1) 
-0.080147181268045903

>  <r_i_glide_evdw>  (1) 
-7.7642977714378008

>  <r_i_glide_gscore>  (1) 
-6.2750649186341985

>  <r_i_glide_gscore_strain>  (1) 
0

>  <r_i_glide_hbond>  (1) 
-0.26333801782944277

>  <r_i_glide_ligand_efficiency>  (1) 
-0.17421487933239765

>  <r_i_glide_ligand_efficiency_ln>  (1) 
-1.3683232774159446

>  <r_i_glide_ligand_efficiency_sa>  (1) 
-0.5752448572305332

>  <r_i_glide_lipo>  (1) 
-3.9547552669620858

>  <r_i_glide_metal>  (1) 
-0

>  <r_i_glide_rewards>  (1) 
-1.1898431552219333

>  <r_lp_Energy>  (1) 
42.025849000000001

>  <s_epik_Chemistry_Notes>  (1) 
This compound has an imine and may undergo hydrolysis. This compound contains an acetal/aminal-like group ( X-CH(R)-Y where X, Y are N, S, or O) that may be acid/base labile, releasing an aldehyde.

>  <s_epik_cmdline>  (1) 
J2VwaWtfcHl0aG9uJywgJy1waHQnLCAnMS4wJywgJy1waCcsICc3LjQnLCAnLXRuJywgJzgnLCAnLW1hJywgJzUwMCcsICctaW1hZScsICc8aW5maWxlLm1hZT4nLCAnLW9tYWUnLCAnPG91dGZpbGUubWFlPic=

>  <s_epik_input>  (1) 
W09IXVtDSF0xT1tDQEhdMUMyPVtDSF1bQ0hdPUMoW0NIM10pW0NAQEhdKEMyPTMpW0NIXT1DKE4zKVtDQEBIXTRbQ0BIXShbQ0gzXSlOKFtDSDNdKVtDQEBIXShbUEArXTQoW0NIM10pW0NIMl1bT0hdKWMoW2NIXTUpYyhbQ0gyXVtDSDNdKVtjSF1bY0hdYzVDKEYpKEYpRg==

>  <s_glide_docking_method>  (1) 
confgen

>  <s_i_glide_gridfile>  (1) 
gpcr_5ht2c_6bqh_protein_autoprepared_prepared

>  <s_lp_Force_Field>  (1) 
S-OPLS

>  <s_lp_Variant>  (1) 
DiffSBDD_2_num_sample_50-1

>  <s_m_source_file>  (1) 
generated__ligand_DiffSBDD_2026-05-06_prepared.sdf

>  <GenAI_Model>  (1) 
DiffSBDD

>  <Protein>  (1) 
GPCR_5HT2C

$$$$
DiffSBDD_10_num_sample_50
     RDKit          3D

  0  0  0  0  0  0  0  0  0  0999 V3000
M  V30 BEGIN CTAB
M  V30 COUNTS 64 66 0 0 1
M  V30 BEGIN ATOM
M  V30 1 C 37.253563 29.328289 58.136628 0
M  V30 2 C 37.847747 27.964226 57.771982 0
M  V30 3 C 39.562654 29.345938 51.499788 0
M  V30 4 N 38.434404 29.175633 55.647143 0
M  V30 5 O 39.465994 34.471373 62.653239 0 CHG=-1
M  V30 6 O 37.980814 31.513340 60.505913 0
M  V30 7 C 36.550286 39.089662 61.696575 0
M  V30 8 C 38.861797 28.226379 51.970353 0
M  V30 9 C 36.363134 36.492777 62.731460 0
M  V30 10 O 40.266243 34.859450 60.317479 0 CHG=-1
M  V30 11 N 37.866893 38.272820 59.850804 0
M  V30 12 C 38.467283 28.141963 53.322451 0
M  V30 13 C 36.990284 34.178782 60.794665 0
M  V30 14 C 37.162338 38.025467 61.019986 0
M  V30 15 C 38.311776 27.850863 56.298934 0 CFG=1
M  V30 16 C 39.361672 25.526055 56.619302 0
M  V30 17 C 38.797464 29.214118 54.239721 0
M  V30 18 O 39.929775 36.808761 61.853809 0
M  V30 19 C 38.889004 30.328116 56.458411 0
M  V30 20 N 37.867710 31.731167 58.242881 0
M  V30 21 C 39.601667 26.988517 56.211941 0
M  V30 22 P 39.471565 35.414766 61.470938 0
M  V30 23 C 35.041131 37.322278 64.722486 0
M  V30 24 C 35.868520 38.859957 62.899597 0
M  V30 25 C 37.718248 32.181934 59.504449 0
M  V30 26 N 37.243050 33.441600 59.544126 0
M  V30 27 C 39.872200 30.400767 52.369839 0
M  V30 28 O 37.765010 27.043149 53.724847 0
M  V30 29 F 39.935782 29.412069 50.199257 0
M  V30 30 C 39.497277 30.344526 53.724379 0
M  V30 31 C 37.069764 36.713630 61.534987 0
M  V30 32 C 38.348509 30.380763 57.918566 0 CFG=1
M  V30 33 C 37.742488 35.539089 60.797239 0 CFG=2
M  V30 34 C 35.773379 37.565535 63.420069 0
M  V30 35 H 36.926348 29.322028 59.176743 0
M  V30 36 H 36.377325 29.557104 57.526483 0
M  V30 37 H 38.684008 27.783145 58.449001 0
M  V30 38 H 37.129574 27.169315 57.966534 0
M  V30 39 H 36.628919 40.094892 61.305771 0
M  V30 40 H 38.618561 27.423648 51.288467 0
M  V30 41 H 36.267135 35.515277 63.109029 0
M  V30 42 H 38.100140 39.219998 59.603149 0
M  V30 43 H 38.491185 37.559864 59.498011 0
M  V30 44 H 35.915182 34.364418 60.814783 0
M  V30 45 H 37.223295 33.601905 61.689640 0
M  V30 46 H 37.467503 27.325081 55.876537 0
M  V30 47 H 40.266415 24.930692 56.512235 0
M  V30 48 H 39.042293 25.447759 57.658356 0
M  V30 49 H 38.595433 25.070520 55.991387 0
M  V30 50 H 39.978522 30.367803 56.466358 0
M  V30 51 H 38.532835 31.236786 55.973946 0
M  V30 52 H 37.609473 32.332589 57.473488 0
M  V30 53 H 40.006792 26.975160 55.201765 0
M  V30 54 H 40.386343 27.423784 56.832355 0
M  V30 55 H 34.824235 38.263964 65.230729 0
M  V30 56 H 34.087164 36.839364 64.519059 0
M  V30 57 H 35.648868 36.731745 65.407362 0
M  V30 58 H 35.467425 39.682980 63.437297 0
M  V30 59 H 37.050637 33.917133 58.676728 0
M  V30 60 H 40.406661 31.262165 51.998205 0
M  V30 61 H 37.497690 26.481446 53.011322 0
M  V30 62 H 39.759710 31.167269 54.365516 0
M  V30 63 H 39.180864 30.143837 58.584241 0
M  V30 64 H 37.813844 35.823578 59.751460 0
M  V30 END ATOM
M  V30 BEGIN BOND
M  V30 1 1 2 1
M  V30 2 2 8 3
M  V30 3 1 12 8
M  V30 4 1 14 7
M  V30 5 1 14 11
M  V30 6 1 15 2
M  V30 7 1 15 4
M  V30 8 1 17 4
M  V30 9 2 17 12
M  V30 10 1 19 4
M  V30 11 1 21 15
M  V30 12 1 21 16
M  V30 13 1 22 5
M  V30 14 1 22 10
M  V30 15 2 22 18
M  V30 16 2 24 7
M  V30 17 2 25 6
M  V30 18 1 25 20
M  V30 19 1 26 13
M  V30 20 1 26 25
M  V30 21 1 27 3
M  V30 22 1 28 12
M  V30 23 1 29 3
M  V30 24 1 30 17
M  V30 25 2 30 27
M  V30 26 1 31 9
M  V30 27 2 31 14
M  V30 28 1 32 1
M  V30 29 1 32 19
M  V30 30 1 32 20
M  V30 31 1 33 13
M  V30 32 1 33 22
M  V30 33 1 33 31
M  V30 34 2 34 9
M  V30 35 1 34 23
M  V30 36 1 34 24
M  V30 37 1 35 1
M  V30 38 1 36 1
M  V30 39 1 37 2
M  V30 40 1 38 2
M  V30 41 1 39 7
M  V30 42 1 40 8
M  V30 43 1 41 9
M  V30 44 1 42 11
M  V30 45 1 43 11
M  V30 46 1 44 13
M  V30 47 1 45 13
M  V30 48 1 15 46 CFG=3
M  V30 49 1 47 16
M  V30 50 1 48 16
M  V30 51 1 49 16
M  V30 52 1 50 19
M  V30 53 1 51 19
M  V30 54 1 52 20
M  V30 55 1 53 21
M  V30 56 1 54 21
M  V30 57 1 55 23
M  V30 58 1 56 23
M  V30 59 1 57 23
M  V30 60 1 58 24
M  V30 61 1 59 26
M  V30 62 1 60 27
M  V30 63 1 61 28
M  V30 64 1 62 30
M  V30 65 1 32 63 CFG=1
M  V30 66 1 33 64 CFG=3
M  V30 END BOND
M  V30 END CTAB
M  END
>  <i_epik_Tot_Q>  (1) 
-2

>  <i_epik_Tot_abs_Q>  (1) 
2

>  <i_i_glide_confnum>  (1) 
25

>  <i_i_glide_lignum>  (1) 
33

>  <i_i_glide_posenum>  (1) 
301

>  <i_i_glide_rotatable_bonds>  (1) 
10

>  <i_lp_mmshare_version>  (1) 
72125

>  <i_m_source_file_index>  (1) 
11

>  <i_f3d_flags>  (1) 
0

>  <num_sample>  (1) 
50

>  <b_lp_Chiralities_Consistent>  (1) 
1

>  <r_epik_Charging_Adjusted_Penalty>  (1) 
1.1617678045882596

>  <r_epik_Ionization_Penalty>  (1) 
0.4473271138811577

>  <r_epik_Ionization_Penalty_Charging>  (1) 
0.41559672628269745

>  <r_epik_Ionization_Penalty_Neutral>  (1) 
0.031730387598460232

>  <r_epik_State_Penalty>  (1) 
0.74617107830556217

>  <r_glide_ring_energy>  (1) 
0

>  <r_i_docking_score>  (1) 
-6.2700352972311837

>  <r_i_glide_ecoul>  (1) 
-4.5261479557952802

>  <r_i_glide_eff_state_penalty>  (1) 
0.74617107830556217

>  <r_i_glide_einternal>  (1) 
6.2338868603171136

>  <r_i_glide_emodel>  (1) 
-53.561213648898587

>  <r_i_glide_emodel_strain>  (1) 
0.89700710287524998

>  <r_i_glide_energy>  (1) 
-35.405966809820796

>  <r_i_glide_erotb>  (1) 
0.58773720055558498

>  <r_i_glide_esite>  (1) 
-0.18024589870883143

>  <r_i_glide_evdw>  (1) 
-30.879818854025515

>  <r_i_glide_gscore>  (1) 
-7.0162063755367461

>  <r_i_glide_gscore_strain>  (1) 
0

>  <r_i_glide_hbond>  (1) 
-0.0029467568784925435

>  <r_i_glide_ligand_efficiency>  (1) 
-0.18441280285974071

>  <r_i_glide_ligand_efficiency_ln>  (1) 
-1.3852266656913916

>  <r_i_glide_ligand_efficiency_sa>  (1) 
-0.59742589245107403

>  <r_i_glide_lipo>  (1) 
-4.035757917601547

>  <r_i_glide_metal>  (1) 
-0

>  <r_i_glide_rewards>  (1) 
-1.1620798668328913

>  <r_lp_Energy>  (1) 
49.585073000000001

>  <r_lp_tautomer_probability>  (1) 
0.99999999999736477

>  <s_epik_cmdline>  (1) 
J2VwaWtfcHl0aG9uJywgJy1waHQnLCAnMS4wJywgJy1waCcsICc3LjQnLCAnLXRuJywgJzgnLCAnLW1hJywgJzUwMCcsICctaW1hZScsICc8aW5maWxlLm1hZT4nLCAnLW9tYWUnLCAnPG91dGZpbGUubWFlPic=

>  <s_epik_input>  (1) 
RmMxW2NIXWMoW09IXSljKFtjSF1bY0hdMSlOMltDQEBIXShbQ0gyXVtDSDNdKVtDSDJdW0NIMl1bQ0BASF0oW0NIMl0yKVtOSF1DKD1PKVtOSF1bQ0gyXVtDQEhdKFAoPU8pKFtPSF0pW09IXSljM1tjSF1jKFtDSDNdKVtjSF1bY0hdYzNbTkgyXQ==

>  <s_glide_docking_method>  (1) 
confgen

>  <s_i_glide_gridfile>  (1) 
gpcr_5ht2c_6bqh_protein_autoprepared_prepared

>  <s_lp_Force_Field>  (1) 
S-OPLS

>  <s_lp_Variant>  (1) 
DiffSBDD_10_num_sample_50-2

>  <s_m_source_file>  (1) 
generated__ligand_DiffSBDD_2026-05-06_prepared.sdf

>  <GenAI_Model>  (1) 
DiffSBDD

>  <Protein>  (1) 
GPCR_5HT2C

$$$$
DiffSBDD_6_num_sample_50
     RDKit          3D

  0  0  0  0  0  0  0  0  0  0999 V3000
M  V30 BEGIN CTAB
M  V30 COUNTS 65 68 0 0 1
M  V30 BEGIN ATOM
M  V30 1 N 37.353884 34.955272 61.445632 0
M  V30 2 N 36.016254 32.643858 61.041901 0
M  V30 3 C 35.464875 31.498822 61.053412 0
M  V30 4 C 39.502965 37.621477 63.102024 0
M  V30 5 C 38.504070 27.626542 52.365997 0
M  V30 6 N 38.055499 30.309358 59.207296 0
M  V30 7 N 35.867484 30.558598 60.189237 0
M  V30 8 N 38.354832 31.339250 56.992776 0
M  V30 9 C 39.610794 34.835578 60.570794 0
M  V30 10 C 40.032023 29.753000 51.327980 0
M  V30 11 N 37.985428 33.089035 59.906283 0 CHG=1
M  V30 12 O 38.113051 28.851502 54.386427 0
M  V30 13 C 38.689862 28.082481 59.052147 0
M  V30 14 C 38.135882 25.114636 56.499888 0
M  V30 15 F 40.768164 30.771053 50.825703 0
M  V30 16 C 36.799289 31.027941 59.273332 0 CFG=1
M  V30 17 C 38.688488 28.788688 53.134987 0
M  V30 18 C 36.689446 36.623635 63.099144 0
M  V30 19 C 37.754541 26.252685 57.456936 0
M  V30 20 F 37.776900 26.601161 52.863869 0
M  V30 21 C 39.070732 27.528529 51.083977 0
M  V30 22 C 39.067348 32.558968 59.009799 0
M  V30 23 C 37.754310 36.006723 62.207915 0
M  V30 24 C 39.833456 28.591045 50.566554 0
M  V30 25 C 40.007803 35.913523 61.355896 0
M  V30 26 C 38.988396 26.962338 58.038107 0
M  V30 27 C 38.890259 31.151575 58.339324 0 CFG=1
M  V30 28 C 39.079306 36.498200 62.206571 0
M  V30 29 O 37.815042 29.067360 58.503133 0
M  V30 30 F 39.673085 30.983625 53.336441 0
M  V30 31 C 38.869655 30.366994 56.047723 0
M  V30 32 C 39.467335 29.860714 52.611823 0
M  V30 33 C 36.938894 32.330083 60.079490 0
M  V30 34 C 37.783662 30.077413 55.009395 0
M  V30 35 C 38.296188 34.351688 60.666583 0
M  V30 36 H 34.667415 31.216386 61.738958 0
M  V30 37 H 35.455463 29.648144 60.051311 0
M  V30 38 H 40.509338 37.404272 63.453268 0
M  V30 39 H 38.889511 37.738373 63.991451 0
M  V30 40 H 39.565923 38.523836 62.504386 0
M  V30 41 H 38.471755 32.275542 56.629063 0
M  V30 42 H 40.300594 34.372502 59.931819 0
M  V30 43 H 39.651091 28.519095 59.332705 0
M  V30 44 H 38.267446 27.678175 59.970567 0
M  V30 45 H 37.245390 24.624408 56.103093 0
M  V30 46 H 38.730913 24.357063 57.013825 0
M  V30 47 H 38.717644 25.486006 55.654363 0
M  V30 48 H 36.997907 36.634297 64.143559 0
M  V30 49 H 35.769302 36.042515 63.054275 0
M  V30 50 H 36.468859 37.644646 62.785990 0
M  V30 51 H 37.131414 26.975359 56.931288 0
M  V30 52 H 37.140689 25.842115 58.253530 0
M  V30 53 H 38.921411 26.635875 50.496250 0
M  V30 54 H 39.867179 32.421612 59.729146 0
M  V30 55 H 39.345439 33.331461 58.290145 0
M  V30 56 H 40.266569 28.513920 49.582521 0
M  V30 57 H 41.024498 36.278412 61.315937 0
M  V30 58 H 39.624136 26.221427 58.524160 0
M  V30 59 H 39.583566 27.361600 57.216977 0
M  V30 60 H 39.826394 30.601599 58.223535 0
M  V30 61 H 39.803944 30.725285 55.614208 0
M  V30 62 H 39.109509 29.430282 56.547060 0
M  V30 63 H 37.597493 30.900714 54.319868 0
M  V30 64 H 36.833833 29.910959 55.517576 0
M  V30 65 H 36.320559 31.120761 58.319607 0
M  V30 END ATOM
M  V30 BEGIN BOND
M  V30 1 2 3 2
M  V30 2 1 7 3
M  V30 3 1 15 10
M  V30 4 1 16 6
M  V30 5 1 16 7
M  V30 6 2 17 5
M  V30 7 1 17 12
M  V30 8 1 19 14
M  V30 9 1 20 5
M  V30 10 1 21 5
M  V30 11 1 22 11
M  V30 12 1 23 1
M  V30 13 1 23 18
M  V30 14 1 24 10
M  V30 15 2 24 21
M  V30 16 2 25 9
M  V30 17 1 26 13
M  V30 18 1 26 19
M  V30 19 1 27 6
M  V30 20 1 27 8
M  V30 21 1 27 22
M  V30 22 1 28 4
M  V30 23 2 28 23
M  V30 24 1 28 25
M  V30 25 1 29 6
M  V30 26 1 29 13
M  V30 27 1 31 8
M  V30 28 2 32 10
M  V30 29 1 32 17
M  V30 30 1 32 30
M  V30 31 1 33 2
M  V30 32 2 33 11
M  V30 33 1 33 16
M  V30 34 1 34 12
M  V30 35 1 34 31
M  V30 36 2 35 1
M  V30 37 1 35 9
M  V30 38 1 35 11
M  V30 39 1 36 3
M  V30 40 1 37 7
M  V30 41 1 38 4
M  V30 42 1 39 4
M  V30 43 1 40 4
M  V30 44 1 41 8
M  V30 45 1 42 9
M  V30 46 1 43 13
M  V30 47 1 44 13
M  V30 48 1 45 14
M  V30 49 1 46 14
M  V30 50 1 47 14
M  V30 51 1 48 18
M  V30 52 1 49 18
M  V30 53 1 50 18
M  V30 54 1 51 19
M  V30 55 1 52 19
M  V30 56 1 53 21
M  V30 57 1 54 22
M  V30 58 1 55 22
M  V30 59 1 56 24
M  V30 60 1 57 25
M  V30 61 1 58 26
M  V30 62 1 59 26
M  V30 63 1 27 60 CFG=3
M  V30 64 1 61 31
M  V30 65 1 62 31
M  V30 66 1 63 34
M  V30 67 1 64 34
M  V30 68 1 16 65 CFG=3
M  V30 END BOND
M  V30 END CTAB
M  END
>  <i_epik_Tot_Q>  (1) 
1

>  <i_epik_Tot_abs_Q>  (1) 
1

>  <i_i_glide_confnum>  (1) 
78

>  <i_i_glide_lignum>  (1) 
21

>  <i_i_glide_posenum>  (1) 
350

>  <i_i_glide_rotatable_bonds>  (1) 
10

>  <i_lp_mmshare_version>  (1) 
72125

>  <i_m_source_file_index>  (1) 
7

>  <i_f3d_flags>  (1) 
0

>  <num_sample>  (1) 
50

>  <b_lp_Chiralities_Consistent>  (1) 
1

>  <r_epik_Charging_Adjusted_Penalty>  (1) 
0.81638474559902796

>  <r_epik_Ionization_Penalty>  (1) 
6.3086919552564762

>  <r_epik_Ionization_Penalty_Charging>  (1) 
0

>  <r_epik_Ionization_Penalty_Neutral>  (1) 
6.3086919552564762

>  <r_epik_State_Penalty>  (1) 
0.81638474559902796

>  <r_glide_ring_energy>  (1) 
0

>  <r_i_docking_score>  (1) 
-6.2559857833051806

>  <r_i_glide_ecoul>  (1) 
0.520140098819176

>  <r_i_glide_eff_state_penalty>  (1) 
0.81638474559902796

>  <r_i_glide_einternal>  (1) 
9.9870862934578639

>  <r_i_glide_emodel>  (1) 
-48.338720248370478

>  <r_i_glide_emodel_strain>  (1) 
0.99682969766134022

>  <r_i_glide_energy>  (1) 
-33.83809877065007

>  <r_i_glide_erotb>  (1) 
0.67408029721787976

>  <r_i_glide_esite>  (1) 
-0.31028971208644385

>  <r_i_glide_evdw>  (1) 
-34.358238869469247

>  <r_i_glide_gscore>  (1) 
-7.0723705289042087

>  <r_i_glide_gscore_strain>  (1) 
0

>  <r_i_glide_hbond>  (1) 
0

>  <r_i_glide_ligand_efficiency>  (1) 
-0.17874245095157659

>  <r_i_glide_ligand_efficiency_ln>  (1) 
-1.3733277235592243

>  <r_i_glide_ligand_efficiency_sa>  (1) 
-0.58467840950823868

>  <r_i_glide_lipo>  (1) 
-4.1078431207146151

>  <r_i_glide_metal>  (1) 
-0

>  <r_i_glide_rewards>  (1) 
-1.6884270646704433

>  <r_lp_Energy>  (1) 
46.442794999999997

>  <r_lp_tautomer_probability>  (1) 
0.23620936778007409

>  <s_epik_Chemistry_Notes>  (1) 
This compound has an imine and may undergo hydrolysis. This compound contains an acetal/aminal-like group ( X-CH(R)-Y where X, Y are N, S, or O) that may be acid/base labile, releasing an aldehyde. This compound has a N-S or N-O group and may undergo hydrolysis at high or low pH.

>  <s_epik_cmdline>  (1) 
J2VwaWtfcHl0aG9uJywgJy1waHQnLCAnMS4wJywgJy1waCcsICc3LjQnLCAnLXRuJywgJzgnLCAnLW1hJywgJzUwMCcsICctaW1hZScsICc8aW5maWxlLm1hZT4nLCAnLW9tYWUnLCAnPG91dGZpbGUubWFlPic=

>  <s_epik_input>  (1) 
W0NIM11jMVtjSF1bY0hdYyhuYzFbQ0gzXSlOKEMoQzIzKT1OW0NIMl1OPTMpW0NIMl1bQ0BASF0oTjJPW0NIMl1bQ0gyXVtDSDJdW0NIM10pW05IXVtDSDJdW0NIMl1PYyhjNEYpYyhGKWMoRilbY0hdW2NIXTQ=

>  <s_glide_docking_method>  (1) 
confgen

>  <s_i_glide_gridfile>  (1) 
gpcr_5ht2c_6bqh_protein_autoprepared_prepared

>  <s_lp_Force_Field>  (1) 
S-OPLS

>  <s_lp_Variant>  (1) 
DiffSBDD_6_num_sample_50-2

>  <s_m_source_file>  (1) 
generated__ligand_DiffSBDD_2026-05-06_prepared.sdf

>  <GenAI_Model>  (1) 
DiffSBDD

>  <Protein>  (1) 
GPCR_5HT2C

$$$$
DiffSBDD_0_num_sample_50
     RDKit          3D

  0  0  0  0  0  0  0  0  0  0999 V3000
M  V30 BEGIN CTAB
M  V30 COUNTS 65 69 0 0 1
M  V30 BEGIN ATOM
M  V30 1 C 39.439164 29.533928 53.158164 0
M  V30 2 C 39.467357 29.068808 54.481844 0
M  V30 3 C 38.864289 27.342477 56.250072 0
M  V30 4 S 37.067552 37.196001 59.431558 0
M  V30 5 O 37.467387 34.420785 58.370953 0
M  V30 6 C 38.626207 28.765922 59.884113 0
M  V30 7 C 41.204227 33.416629 62.462873 0
M  V30 8 C 38.036709 27.196495 53.862024 0
M  V30 9 C 38.818840 27.721277 58.756771 0
M  V30 10 C 36.173327 39.175580 61.860699 0
M  V30 11 C 36.758475 37.048268 62.045564 0
M  V30 12 F 38.738189 29.234868 50.909511 0
M  V30 13 C 38.016422 27.663888 52.538554 0
M  V30 14 C 36.073594 37.379049 63.118050 0
M  V30 15 C 37.105759 38.206760 61.045016 0 CFG=1
M  V30 16 C 36.698819 31.354974 61.036677 0
M  V30 17 C 38.879273 33.338850 61.496557 0
M  V30 18 O 37.469908 30.821571 61.853501 0
M  V30 19 C 37.551094 34.503781 59.595608 0
M  V30 20 C 40.189481 35.608836 61.800038 0
M  V30 21 C 37.321330 32.165723 59.907429 0 CFG=2
M  V30 22 C 38.176793 28.130957 57.384847 0 CFG=1
M  V30 23 C 40.226938 34.105991 61.487389 0
M  V30 24 N 37.802400 30.265378 58.450037 0 CFG=2 CHG=1
M  V30 25 C 37.050456 35.763457 61.640475 0
M  V30 26 C 38.332241 31.454626 59.000193 0 CFG=2
M  V30 27 C 37.268709 35.706656 60.372709 0
M  V30 28 N 37.885165 33.439119 60.372023 0
M  V30 29 C 38.988219 30.107695 59.311237 0 CFG=1
M  V30 30 C 38.776438 27.888788 54.835897 0
M  V30 31 O 35.464016 31.229727 61.050703 0 CHG=-1
M  V30 32 C 38.114979 29.673208 57.158850 0
M  V30 33 C 38.727723 28.820471 52.185623 0
M  V30 34 C 35.706826 38.686353 63.005617 0
M  V30 35 H 39.985646 30.425637 52.886478 0
M  V30 36 H 40.051636 29.597729 55.212386 0
M  V30 37 H 39.934427 27.269724 56.450232 0
M  V30 38 H 38.511657 26.310735 56.265237 0
M  V30 39 H 39.274141 28.543290 60.731514 0
M  V30 40 H 37.610307 28.786405 60.253499 0
M  V30 41 H 40.844636 33.463294 63.491305 0
M  V30 42 H 41.352019 32.365358 62.209604 0
M  V30 43 H 42.188919 33.876460 62.444223 0
M  V30 44 H 37.501075 26.294550 54.125577 0
M  V30 45 H 39.894732 27.593439 58.631961 0
M  V30 46 H 38.448225 26.742794 59.063896 0
M  V30 47 H 35.991305 40.183017 61.520119 0
M  V30 48 H 37.468121 27.128718 51.788725 0
M  V30 49 H 35.711160 36.689927 63.868686 0
M  V30 50 H 38.139452 38.515543 61.211698 0
M  V30 51 H 38.405526 33.401616 62.472834 0
M  V30 52 H 39.236725 32.312817 61.458819 0
M  V30 53 H 39.664568 35.812468 62.733539 0
M  V30 54 H 41.197250 36.013438 61.895762 0
M  V30 55 H 39.722128 36.177273 61.002739 0
M  V30 56 H 36.458145 32.362550 59.259846 0
M  V30 57 H 37.135655 27.807159 57.427980 0
M  V30 58 H 40.654408 33.983335 60.510117 0
M  V30 59 H 37.033040 34.914995 62.253587 0
M  V30 60 H 38.784305 32.065259 58.221034 0
M  V30 61 H 39.952195 30.021572 58.811081 0
M  V30 62 H 39.054357 30.112254 56.841337 0
M  V30 63 H 37.350399 29.942936 56.426465 0
M  V30 64 H 35.078256 39.217783 63.703437 0
M  V30 65 H 36.949750 29.957775 58.897468 0
M  V30 END ATOM
M  V30 BEGIN BOND
M  V30 1 2 2 1
M  V30 2 1 9 6
M  V30 3 1 13 8
M  V30 4 2 14 11
M  V30 5 1 15 4
M  V30 6 1 15 10
M  V30 7 1 15 11
M  V30 8 2 18 16
M  V30 9 2 19 5
M  V30 10 1 21 16
M  V30 11 1 22 3
M  V30 12 1 22 9
M  V30 13 1 23 7
M  V30 14 1 23 17
M  V30 15 1 23 20
M  V30 16 1 25 11
M  V30 17 1 26 21
M  V30 18 1 26 24
M  V30 19 1 27 4
M  V30 20 1 27 19
M  V30 21 2 27 25
M  V30 22 1 28 17
M  V30 23 1 28 19
M  V30 24 1 28 21
M  V30 25 1 29 6
M  V30 26 1 29 24
M  V30 27 1 29 26
M  V30 28 1 30 2
M  V30 29 1 30 3
M  V30 30 2 30 8
M  V30 31 1 31 16
M  V30 32 1 32 22
M  V30 33 1 32 24
M  V30 34 1 33 1
M  V30 35 1 33 12
M  V30 36 2 33 13
M  V30 37 2 34 10
M  V30 38 1 34 14
M  V30 39 1 35 1
M  V30 40 1 36 2
M  V30 41 1 37 3
M  V30 42 1 38 3
M  V30 43 1 39 6
M  V30 44 1 40 6
M  V30 45 1 41 7
M  V30 46 1 42 7
M  V30 47 1 43 7
M  V30 48 1 44 8
M  V30 49 1 45 9
M  V30 50 1 46 9
M  V30 51 1 47 10
M  V30 52 1 48 13
M  V30 53 1 49 14
M  V30 54 1 15 50 CFG=1
M  V30 55 1 51 17
M  V30 56 1 52 17
M  V30 57 1 53 20
M  V30 58 1 54 20
M  V30 59 1 55 20
M  V30 60 1 21 56 CFG=3
M  V30 61 1 22 57 CFG=1
M  V30 62 1 58 23
M  V30 63 1 59 25
M  V30 64 1 26 60 CFG=3
M  V30 65 1 29 61 CFG=3
M  V30 66 1 62 32
M  V30 67 1 63 32
M  V30 68 1 64 34
M  V30 69 1 24 65 CFG=1
M  V30 END BOND
M  V30 END CTAB
M  END
>  <i_epik_Tot_Q>  (1) 
0

>  <i_epik_Tot_abs_Q>  (1) 
2

>  <i_i_glide_confnum>  (1) 
140

>  <i_i_glide_lignum>  (1) 
2

>  <i_i_glide_posenum>  (1) 
117

>  <i_i_glide_rotatable_bonds>  (1) 
9

>  <i_lp_mmshare_version>  (1) 
72125

>  <i_m_source_file_index>  (1) 
1

>  <i_f3d_flags>  (1) 
0

>  <num_sample>  (1) 
50

>  <b_lp_Chiralities_Consistent>  (1) 
1

>  <r_epik_Charging_Adjusted_Penalty>  (1) 
0.0020295482604282666

>  <r_epik_Ionization_Penalty>  (1) 
0.0020295482639142975

>  <r_epik_Ionization_Penalty_Charging>  (1) 
0.0020295482604282666

>  <r_epik_Ionization_Penalty_Neutral>  (1) 
3.4860309872641501e-12

>  <r_epik_State_Penalty>  (1) 
-0

>  <r_glide_ring_energy>  (1) 
0

>  <r_i_docking_score>  (1) 
-6.2552924302445083

>  <r_i_glide_ecoul>  (1) 
-4.3058151985791033

>  <r_i_glide_eff_state_penalty>  (1) 
-0

>  <r_i_glide_einternal>  (1) 
17.73677628063048

>  <r_i_glide_emodel>  (1) 
-39.451281896156182

>  <r_i_glide_emodel_strain>  (1) 
2.4336405343541685

>  <r_i_glide_energy>  (1) 
-28.006624117043117

>  <r_i_glide_erotb>  (1) 
0.52278502944784222

>  <r_i_glide_esite>  (1) 
-0.11289060128911071

>  <r_i_glide_evdw>  (1) 
-23.700808918464013

>  <r_i_glide_gscore>  (1) 
-6.2552924302445083

>  <r_i_glide_gscore_strain>  (1) 
0

>  <r_i_glide_hbond>  (1) 
-0.26761837022960722

>  <r_i_glide_ligand_efficiency>  (1) 
-0.18397918912483849

>  <r_i_glide_ligand_efficiency_ln>  (1) 
-1.3819695528506231

>  <r_i_glide_ligand_efficiency_sa>  (1) 
-0.59602115227828889

>  <r_i_glide_lipo>  (1) 
-4.6162826881936292

>  <r_i_glide_metal>  (1) 
-0

>  <r_i_glide_rewards>  (1) 
0.049626925730063665

>  <r_lp_Energy>  (1) 
65.474028000000004

>  <r_lp_tautomer_probability>  (1) 
1

>  <s_epik_cmdline>  (1) 
J2VwaWtfcHl0aG9uJywgJy1waHQnLCAnMS4wJywgJy1waCcsICc3LjQnLCAnLXRuJywgJzgnLCAnLW1hJywgJzUwMCcsICctaW1hZScsICc8aW5maWxlLm1hZT4nLCAnLW9tYWUnLCAnPG91dGZpbGUubWFlPic=

>  <s_epik_input>  (1) 
W2NIXTFbY0hdYyhGKVtjSF1bY0hdYzFbQ0gyXVtDQEhdKFtDSDJdMilbQ0gyXVtDSDJdW0NIXShOMjMpW0NAQEhdM1tDQEBIXShDKD1PKVtPSF0pTihbQ0gyXVtDSF0oW0NIM10pW0NIM10pQyg9TylDKD1bQ0hdNClTW0NASF0oQzQ9NSlbQ0hdPVtDSF1bQ0hdNQ==

>  <s_glide_docking_method>  (1) 
confgen

>  <s_i_glide_gridfile>  (1) 
gpcr_5ht2c_6bqh_protein_autoprepared_prepared

>  <s_lp_Force_Field>  (1) 
S-OPLS

>  <s_lp_Variant>  (1) 
DiffSBDD_0_num_sample_50-2

>  <s_m_source_file>  (1) 
generated__ligand_DiffSBDD_2026-05-06_prepared.sdf

>  <GenAI_Model>  (1) 
DiffSBDD

>  <Protein>  (1) 
GPCR_5HT2C

$$$$
DiffSBDD_3_num_sample_50
     RDKit          3D

  0  0  0  0  0  0  0  0  0  0999 V3000
M  V30 BEGIN CTAB
M  V30 COUNTS 73 76 0 0 1
M  V30 BEGIN ATOM
M  V30 1 C 39.782459 30.632856 56.666138 0
M  V30 2 N 37.867481 23.963747 57.853422 0
M  V30 3 C 40.249731 28.076635 56.512902 0
M  V30 4 C 38.207850 32.351432 61.537081 0 CFG=2
M  V30 5 C 35.236187 32.561968 60.134663 0
M  V30 6 S 39.067352 29.221478 52.012002 0
M  V30 7 C 38.589235 27.934448 58.273514 0
M  V30 8 C 37.464847 24.903896 57.331459 0
M  V30 9 C 40.741793 30.169069 63.719624 0
M  V30 10 C 40.104740 27.859501 51.540792 0 CFG=1
M  V30 11 C 39.432685 32.002137 62.377953 0 CFG=2
M  V30 12 C 40.023622 29.422375 55.784543 0
M  V30 13 C 37.834649 30.465352 58.300476 0 CFG=2
M  V30 14 C 36.420460 31.668091 59.914371 0
M  V30 15 C 37.298660 31.240019 61.056041 0
M  V30 16 C 39.724390 26.628478 52.390620 0
M  V30 17 N 39.036688 27.401347 56.977934 0
M  V30 18 C 36.945285 26.102524 56.685638 0
M  V30 19 O 39.487553 32.430143 60.983382 0
M  V30 20 C 38.531480 26.233213 54.729003 0
M  V30 21 C 38.038471 28.196566 53.066634 0
M  V30 22 C 38.005239 26.981839 55.995720 0 CFG=2
M  V30 23 C 41.360506 33.569652 62.277777 0
M  V30 24 C 35.470247 33.933580 59.475979 0
M  V30 25 N 36.668070 31.269359 58.707066 0 CHG=1
M  V30 26 C 40.646972 31.210387 62.616328 0 CFG=1
M  V30 27 C 38.344159 31.038785 56.967583 0 CFG=2
M  V30 28 C 37.446607 28.980685 58.251898 0
M  V30 29 C 39.034707 27.180511 53.623300 0 CFG=2
M  V30 30 O 37.467414 30.820724 55.876657 0
M  V30 31 N 40.527905 32.654389 63.059401 0
M  V30 32 F 39.923321 27.620435 50.253917 0
M  V30 33 O 39.867682 30.421291 64.803213 0
M  V30 34 H 40.267482 30.421030 57.607365 0
M  V30 35 H 40.267290 31.493575 56.204709 0
M  V30 36 H 40.945122 28.212336 57.342206 0
M  V30 37 H 40.782262 27.384567 55.862855 0
M  V30 38 H 37.734364 33.305918 61.756831 0
M  V30 39 H 34.356746 32.094578 59.689885 0
M  V30 40 H 39.434656 28.309950 58.852617 0
M  V30 41 H 38.250122 27.070477 58.844536 0
M  V30 42 H 41.769658 30.119913 64.080641 0
M  V30 43 H 40.499476 29.194590 63.291623 0
M  V30 44 H 41.134373 28.176591 51.684236 0
M  V30 45 H 40.938775 29.621963 55.229862 0
M  V30 46 H 39.252960 29.397188 55.031679 0
M  V30 47 H 38.626445 30.624000 59.030806 0
M  V30 48 H 35.033242 32.672811 61.200123 0
M  V30 49 H 37.871102 30.333138 60.873324 0
M  V30 50 H 40.562622 25.998001 52.679770 0
M  V30 51 H 39.067619 26.021430 51.788621 0
M  V30 52 H 36.414877 26.636144 57.467015 0
M  V30 53 H 36.196793 25.779013 55.964575 0
M  V30 54 H 39.310697 25.521489 55.010709 0
M  V30 55 H 37.727592 25.637274 54.294891 0
M  V30 56 H 37.274566 27.702207 52.466088 0
M  V30 57 H 37.531116 28.815710 53.803283 0
M  V30 58 H 37.485449 27.877234 55.665064 0
M  V30 59 H 40.776216 34.418236 61.920413 0
M  V30 60 H 42.159001 33.961990 62.907838 0
M  V30 61 H 41.829770 33.087420 61.422037 0
M  V30 62 H 34.552739 34.518232 59.486806 0
M  V30 63 H 36.235906 34.503824 60.002136 0
M  V30 64 H 35.775080 33.854266 58.431390 0
M  V30 65 H 36.625759 30.973508 61.853524 0
M  V30 66 H 41.347808 31.090367 61.793694 0
M  V30 67 H 38.371654 32.123367 57.090845 0
M  V30 68 H 36.871881 28.821517 59.157509 0
M  V30 69 H 36.727549 28.822403 57.455552 0
M  V30 70 H 39.864589 27.696247 54.055985 0
M  V30 71 H 36.614694 31.216258 56.088784 0
M  V30 72 H 39.273912 29.683609 64.883151 0
M  V30 73 H 36.014685 31.587883 57.929054 0
M  V30 END ATOM
M  V30 BEGIN BOND
M  V30 1 3 8 2
M  V30 2 1 10 6
M  V30 3 1 11 4
M  V30 4 1 12 1
M  V30 5 1 12 3
M  V30 6 1 14 5
M  V30 7 1 15 4
M  V30 8 1 15 14
M  V30 9 1 16 10
M  V30 10 1 17 3
M  V30 11 1 17 7
M  V30 12 1 18 8
M  V30 13 1 19 4
M  V30 14 1 11 19 CFG=3
M  V30 15 1 21 6
M  V30 16 1 22 17
M  V30 17 1 22 18
M  V30 18 1 22 20
M  V30 19 1 24 5
M  V30 20 1 25 13
M  V30 21 2 25 14
M  V30 22 1 26 9
M  V30 23 1 26 11
M  V30 24 1 27 1
M  V30 25 1 27 13
M  V30 26 1 28 7
M  V30 27 1 28 13
M  V30 28 1 29 16
M  V30 29 1 29 20
M  V30 30 1 29 21
M  V30 31 1 30 27
M  V30 32 1 31 11
M  V30 33 1 31 23
M  V30 34 1 31 26
M  V30 35 1 32 10
M  V30 36 1 33 9
M  V30 37 1 34 1
M  V30 38 1 35 1
M  V30 39 1 36 3
M  V30 40 1 37 3
M  V30 41 1 4 38 CFG=1
M  V30 42 1 39 5
M  V30 43 1 40 7
M  V30 44 1 41 7
M  V30 45 1 42 9
M  V30 46 1 43 9
M  V30 47 1 10 44 CFG=3
M  V30 48 1 45 12
M  V30 49 1 46 12
M  V30 50 1 13 47 CFG=1
M  V30 51 1 48 5
M  V30 52 1 49 15
M  V30 53 1 50 16
M  V30 54 1 51 16
M  V30 55 1 52 18
M  V30 56 1 53 18
M  V30 57 1 54 20
M  V30 58 1 55 20
M  V30 59 1 56 21
M  V30 60 1 57 21
M  V30 61 1 22 58 CFG=3
M  V30 62 1 59 23
M  V30 63 1 60 23
M  V30 64 1 61 23
M  V30 65 1 62 24
M  V30 66 1 63 24
M  V30 67 1 64 24
M  V30 68 1 65 15
M  V30 69 1 26 66 CFG=3
M  V30 70 1 27 67 CFG=1
M  V30 71 1 68 28
M  V30 72 1 69 28
M  V30 73 1 29 70 CFG=1
M  V30 74 1 71 30
M  V30 75 1 72 33
M  V30 76 1 73 25
M  V30 END BOND
M  V30 END CTAB
M  END
>  <i_epik_Tot_Q>  (1) 
1

>  <i_epik_Tot_abs_Q>  (1) 
1

>  <i_i_glide_confnum>  (1) 
322

>  <i_i_glide_lignum>  (1) 
10

>  <i_i_glide_posenum>  (1) 
393

>  <i_i_glide_rotatable_bonds>  (1) 
11

>  <i_lp_mmshare_version>  (1) 
72125

>  <i_m_source_file_index>  (1) 
4

>  <i_f3d_flags>  (1) 
0

>  <num_sample>  (1) 
50

>  <b_lp_Chiralities_Consistent>  (1) 
1

>  <r_epik_Charging_Adjusted_Penalty>  (1) 
0.69158801815778781

>  <r_epik_Ionization_Penalty>  (1) 
0.18004840766126984

>  <r_epik_Ionization_Penalty_Charging>  (1) 
0.063917621844604325

>  <r_epik_Ionization_Penalty_Neutral>  (1) 
0.11613078581666553

>  <r_epik_State_Penalty>  (1) 
0.62767039631318344

>  <r_glide_ring_energy>  (1) 
0

>  <r_i_docking_score>  (1) 
-6.2538432129569417

>  <r_i_glide_ecoul>  (1) 
-16.546185425811828

>  <r_i_glide_eff_state_penalty>  (1) 
0.62767039631318344

>  <r_i_glide_einternal>  (1) 
18.576731339984093

>  <r_i_glide_emodel>  (1) 
-28.572537625822861

>  <r_i_glide_emodel_strain>  (1) 
7.631457643974386

>  <r_i_glide_energy>  (1) 
-36.506432620995554

>  <r_i_glide_erotb>  (1) 
0.69427784923131142

>  <r_i_glide_esite>  (1) 
-0.17472743125282908

>  <r_i_glide_evdw>  (1) 
-19.960247195183722

>  <r_i_glide_gscore>  (1) 
-6.881513609270125

>  <r_i_glide_gscore_strain>  (1) 
0.90786441099359649

>  <r_i_glide_hbond>  (1) 
-0.5101759664466945

>  <r_i_glide_ligand_efficiency>  (1) 
-0.18951040039263459

>  <r_i_glide_ligand_efficiency_ln>  (1) 
-1.3908223498944432

>  <r_i_glide_ligand_efficiency_sa>  (1) 
-0.60786111515063002

>  <r_i_glide_lipo>  (1) 
-3.0423213389734975

>  <r_i_glide_metal>  (1) 
-0

>  <r_i_glide_rewards>  (1) 
-1.2764909591910516

>  <r_lp_Energy>  (1) 
28.262066999999998

>  <s_epik_Chemistry_Notes>  (1) 
This compound has an imine and may undergo hydrolysis.

>  <s_epik_cmdline>  (1) 
J2VwaWtfcHl0aG9uJywgJy1waHQnLCAnMS4wJywgJy1waCcsICc3LjQnLCAnLXRuJywgJzgnLCAnLW1hJywgJzUwMCcsICctaW1hZScsICc8aW5maWxlLm1hZT4nLCAnLW9tYWUnLCAnPG91dGZpbGUubWFlPic=

>  <s_epik_input>  (1) 
RltDQEhdMVNbQ0gyXVtDQEhdKFtDSDJdMSlbQ0gyXVtDQEBIXShbQ0gyXUMjTilOKFtDSDJdW0NIMl0yKVtDSDJdW0NIMl1bQ0gyXVtDQEBIXShbT0hdKVtDQEhdMltOSF1DKD1bQ0hdXFtDSDNdKVxbQ0gyXVtDQEhdKE8zKVtDQF0zNFtDQEhdKFtDSDJdW09IXSlONFtDSDNd

>  <s_glide_docking_method>  (1) 
confgen

>  <s_i_glide_gridfile>  (1) 
gpcr_5ht2c_6bqh_protein_autoprepared_prepared

>  <s_lp_Force_Field>  (1) 
S-OPLS

>  <s_lp_Variant>  (1) 
DiffSBDD_3_num_sample_50-1

>  <s_m_source_file>  (1) 
generated__ligand_DiffSBDD_2026-05-06_prepared.sdf

>  <GenAI_Model>  (1) 
DiffSBDD

>  <Protein>  (1) 
GPCR_5HT2C

$$$$
DiffSBDD_40_num_sample_50
     RDKit          3D

  0  0  0  0  0  0  0  0  0  0999 V3000
M  V30 BEGIN CTAB
M  V30 COUNTS 66 69 0 0 1
M  V30 BEGIN ATOM
M  V30 1 C 37.818930 28.814721 53.075729 0
M  V30 2 C 36.894645 30.389297 58.857527 0
M  V30 3 O 39.638978 32.559343 63.058652 0 CHG=-1
M  V30 4 C 39.232846 28.931777 59.887035 0
M  V30 5 O 39.483065 30.284327 60.227109 0
M  V30 6 C 38.879567 26.688927 56.632338 0 CFG=2
M  V30 7 C 37.660004 29.497909 57.842854 0 CFG=2
M  V30 8 O 40.256711 29.959669 62.482807 0
M  V30 9 C 38.930930 28.764119 58.377098 0 CFG=2
M  V30 10 C 37.964681 29.917540 54.144986 0 CFG=1
M  V30 11 C 39.279739 30.526327 61.614939 0 CFG=1
M  V30 12 C 40.003896 26.361052 58.411016 0
M  V30 13 C 38.828433 27.266920 58.068412 0 CFG=2
M  V30 14 C 37.626897 26.100670 55.983596 0
M  V30 15 O 38.157805 29.334145 55.432689 0
M  V30 16 O 39.069296 27.221573 51.726013 0
M  V30 17 C 39.680073 25.524739 57.188600 0 CFG=1
M  V30 18 C 39.098692 30.916468 53.779950 0
M  V30 19 P 40.559017 31.638690 62.364851 0
M  V30 20 C 40.062974 29.806813 49.857705 0
M  V30 21 O 39.467970 30.056609 51.117571 0
M  V30 22 N 37.428627 31.770944 58.916427 0 CHG=1
M  V30 23 O 40.265976 30.284758 53.261186 0
M  V30 24 C 37.931561 30.237908 56.512766 0
M  V30 25 C 39.182608 28.252215 52.685023 0 CFG=1
M  V30 26 C 38.743243 24.343472 57.271562 0
M  V30 27 O 41.397174 32.038352 61.212835 0
M  V30 28 C 40.077419 29.411238 52.185721 0 CFG=1
M  V30 29 C 37.753452 24.569065 56.117497 0
M  V30 30 C 36.705833 32.677452 59.831725 0
M  V30 31 H 37.367246 29.221102 52.174262 0
M  V30 32 H 37.155798 28.022784 53.426244 0
M  V30 33 H 35.844165 30.421261 58.566483 0
M  V30 34 H 36.876648 29.959122 59.856226 0
M  V30 35 H 38.412302 28.513930 60.469383 0
M  V30 36 H 40.118381 28.358581 60.165463 0
M  V30 37 H 39.498821 27.290344 55.961899 0
M  V30 38 H 36.925924 28.726542 57.605647 0
M  V30 39 H 39.801396 29.163429 57.854071 0
M  V30 40 H 37.016232 30.458208 54.181955 0
M  V30 41 H 38.263236 30.417610 62.000119 0
M  V30 42 H 40.972288 26.858639 58.332801 0
M  V30 43 H 39.867462 25.839272 59.352827 0
M  V30 44 H 37.947028 26.856112 58.568530 0
M  V30 45 H 37.515625 26.404969 54.942026 0
M  V30 46 H 36.730781 26.415816 56.519788 0
M  V30 47 H 39.939056 26.915790 51.518787 0
M  V30 48 H 40.549152 25.337632 56.561391 0
M  V30 49 H 38.746731 31.644508 53.058922 0
M  V30 50 H 39.404415 31.519778 54.630720 0
M  V30 51 H 39.473997 30.293101 49.082908 0
M  V30 52 H 41.074216 30.214739 49.813650 0
M  V30 53 H 40.098961 28.736585 49.644099 0
M  V30 54 H 38.411278 31.739535 59.165374 0
M  V30 55 H 38.777478 30.920294 56.639512 0
M  V30 56 H 37.067411 30.853558 56.275705 0
M  V30 57 H 39.638484 27.808747 53.569652 0
M  V30 58 H 39.278701 23.398249 57.236740 0
M  V30 59 H 38.187375 24.362193 58.211409 0
M  V30 60 H 41.059405 29.049898 51.864766 0
M  V30 61 H 38.170291 24.161752 55.195530 0
M  V30 62 H 36.789284 24.084608 56.286845 0
M  V30 63 H 37.089268 33.691786 59.722523 0
M  V30 64 H 35.642314 32.699966 59.589108 0
M  V30 65 H 36.819808 32.373363 60.874151 0
M  V30 66 H 37.313478 32.142953 57.982453 0
M  V30 END ATOM
M  V30 BEGIN BOND
M  V30 1 1 5 4
M  V30 2 1 7 2
M  V30 3 1 9 4
M  V30 4 1 9 7
M  V30 5 1 10 1
M  V30 6 1 11 5
M  V30 7 1 11 8
M  V30 8 1 13 6
M  V30 9 1 13 9
M  V30 10 1 13 12
M  V30 11 1 14 6
M  V30 12 1 15 10
M  V30 13 1 17 6
M  V30 14 1 17 12
M  V30 15 1 18 10
M  V30 16 1 19 3
M  V30 17 1 19 8
M  V30 18 1 19 11
M  V30 19 1 21 20
M  V30 20 1 22 2
M  V30 21 1 23 18
M  V30 22 1 24 7
M  V30 23 1 24 15
M  V30 24 1 25 1
M  V30 25 1 25 16
M  V30 26 1 26 17
M  V30 27 2 27 19
M  V30 28 1 28 21
M  V30 29 1 28 23
M  V30 30 1 28 25
M  V30 31 1 29 14
M  V30 32 1 29 26
M  V30 33 1 30 22
M  V30 34 1 31 1
M  V30 35 1 32 1
M  V30 36 1 33 2
M  V30 37 1 34 2
M  V30 38 1 35 4
M  V30 39 1 36 4
M  V30 40 1 6 37 CFG=3
M  V30 41 1 7 38 CFG=3
M  V30 42 1 9 39 CFG=3
M  V30 43 1 10 40 CFG=1
M  V30 44 1 11 41 CFG=1
M  V30 45 1 42 12
M  V30 46 1 43 12
M  V30 47 1 13 44 CFG=1
M  V30 48 1 45 14
M  V30 49 1 46 14
M  V30 50 1 47 16
M  V30 51 1 17 48 CFG=3
M  V30 52 1 49 18
M  V30 53 1 50 18
M  V30 54 1 51 20
M  V30 55 1 52 20
M  V30 56 1 53 20
M  V30 57 1 54 22
M  V30 58 1 55 24
M  V30 59 1 56 24
M  V30 60 1 25 57 CFG=1
M  V30 61 1 58 26
M  V30 62 1 59 26
M  V30 63 1 28 60 CFG=3
M  V30 64 1 61 29
M  V30 65 1 62 29
M  V30 66 1 63 30
M  V30 67 1 64 30
M  V30 68 1 65 30
M  V30 69 1 66 22
M  V30 END BOND
M  V30 END CTAB
M  END
>  <i_epik_Tot_Q>  (1) 
0

>  <i_epik_Tot_abs_Q>  (1) 
2

>  <i_i_glide_confnum>  (1) 
1056

>  <i_i_glide_lignum>  (1) 
95

>  <i_i_glide_posenum>  (1) 
303

>  <i_i_glide_rotatable_bonds>  (1) 
12

>  <i_lp_mmshare_version>  (1) 
72125

>  <i_m_source_file_index>  (1) 
41

>  <i_f3d_flags>  (1) 
0

>  <num_sample>  (1) 
50

>  <b_lp_Chiralities_Consistent>  (1) 
1

>  <r_epik_Charging_Adjusted_Penalty>  (1) 
0.001220089536417487

>  <r_epik_Ionization_Penalty>  (1) 
0.0012207097255128069

>  <r_epik_Ionization_Penalty_Charging>  (1) 
0.001220089536417487

>  <r_epik_Ionization_Penalty_Neutral>  (1) 
6.2018909532001439e-07

>  <r_epik_State_Penalty>  (1) 
-0

>  <r_glide_ring_energy>  (1) 
0.75368377756619043

>  <r_i_docking_score>  (1) 
-6.2431720944818743

>  <r_i_glide_ecoul>  (1) 
-1.9993748052620681

>  <r_i_glide_eff_state_penalty>  (1) 
-0

>  <r_i_glide_einternal>  (1) 
16.589628414298687

>  <r_i_glide_emodel>  (1) 
-46.221697561669046

>  <r_i_glide_emodel_strain>  (1) 
1.6098432640660718

>  <r_i_glide_energy>  (1) 
-35.992811086609734

>  <r_i_glide_erotb>  (1) 
0.69437166535620165

>  <r_i_glide_esite>  (1) 
-0.098108733394521599

>  <r_i_glide_evdw>  (1) 
-33.993436281347662

>  <r_i_glide_gscore>  (1) 
-6.2431720944818743

>  <r_i_glide_gscore_strain>  (1) 
0

>  <r_i_glide_hbond>  (1) 
-0.040657843339361809

>  <r_i_glide_ligand_efficiency>  (1) 
-0.20810573648272915

>  <r_i_glide_ligand_efficiency_ln>  (1) 
-1.4185167246746109

>  <r_i_glide_ligand_efficiency_sa>  (1) 
-0.64663290907460391

>  <r_i_glide_lipo>  (1) 
-3.515139672500259

>  <r_i_glide_metal>  (1) 
-0

>  <r_i_glide_rewards>  (1) 
-1.2840594757472386

>  <r_lp_Energy>  (1) 
50.841352000000001

>  <r_lp_tautomer_probability>  (1) 
1

>  <s_epik_Chemistry_Notes>  (1) 
This compound contains an acetal/aminal-like group ( X-CH(R)-Y where X, Y are N, S, or O) that may be acid/base labile, releasing an aldehyde.

>  <s_epik_cmdline>  (1) 
J2VwaWtfcHl0aG9uJywgJy1waHQnLCAnMS4wJywgJy1waCcsICc3LjQnLCAnLXRuJywgJzgnLCAnLW1hJywgJzUwMCcsICctaW1hZScsICc8aW5maWxlLm1hZT4nLCAnLW9tYWUnLCAnPG91dGZpbGUubWFlPic=

>  <s_epik_input>  (1) 
W0NIMl0xT1tDQEhdKE9bQ0gzXSlbQ0BIXShbT0hdKVtDSDJdW0NASF0xT1tDSDJdW0NASF0oW0NIMl1bTkhdW0NIM10pW0NAQEhdKFtDSDJdT1tDQEhdMk9bUEBdMig9TylbT0hdKVtDQEBIXTNbQ0gyXVtDQEhdKFtDQEhdMzQpW0NIMl1bQ0gyXVtDSDJdNA==

>  <s_glide_docking_method>  (1) 
confgen

>  <s_i_glide_gridfile>  (1) 
gpcr_5ht2c_6bqh_protein_autoprepared_prepared

>  <s_lp_Force_Field>  (1) 
S-OPLS

>  <s_lp_Variant>  (1) 
DiffSBDD_40_num_sample_50-2

>  <s_m_source_file>  (1) 
generated__ligand_DiffSBDD_2026-05-06_prepared.sdf

>  <GenAI_Model>  (1) 
DiffSBDD

>  <Protein>  (1) 
GPCR_5HT2C

$$$$
DiffSBDD_41_num_sample_50
     RDKit          3D

  0  0  0  0  0  0  0  0  0  0999 V3000
M  V30 BEGIN CTAB
M  V30 COUNTS 83 87 0 0 1
M  V30 BEGIN ATOM
M  V30 1 C 42.531050 29.746278 65.355456 0
M  V30 2 C 41.336059 29.213618 64.528955 0 CFG=1
M  V30 3 C 37.919940 31.520858 57.976515 0
M  V30 4 C 40.426262 36.628489 62.645163 0
M  V30 5 C 42.345633 26.909755 64.670406 0 CFG=1
M  V30 6 O 42.045273 25.543545 64.895890 0
M  V30 7 O 44.299467 26.591061 66.019503 0
M  V30 8 C 40.108926 28.739473 50.747321 0
M  V30 9 C 41.726694 30.889373 62.653525 0
M  V30 10 C 38.633186 30.734111 55.791811 0
M  V30 11 C 35.464376 32.259830 60.052444 0
M  V30 12 C 38.882890 30.732086 61.264879 0
M  V30 13 C 41.478887 29.466444 62.981024 0 CFG=2
M  V30 14 C 38.883507 29.253215 52.917617 0
M  V30 15 F 40.267477 29.221428 49.516123 0
M  V30 16 O 37.202182 29.905450 59.638701 0
M  V30 17 C 37.634404 32.674735 58.910208 0 CFG=2
M  V30 18 C 39.759762 29.510028 60.891683 0
M  V30 19 C 38.370524 29.397221 56.192434 0
M  V30 20 C 41.078834 27.734393 64.882603 0 CFG=1
M  V30 21 O 40.667398 27.634373 66.237311 0
M  V30 22 F 41.216562 28.821430 51.453499 0
M  V30 23 C 38.516101 34.486007 60.304176 0 CFG=1
M  V30 24 C 37.446248 30.845422 60.671606 0 CFG=2
M  V30 25 C 39.824956 30.006374 53.864749 0
M  V30 26 N 34.717071 33.221432 60.382257 0
M  V30 27 F 39.669582 27.484414 50.690331 0
M  V30 28 O 39.330632 36.016933 61.988705 0
M  V30 29 C 43.551444 28.865635 65.828919 0
M  V30 30 C 37.673823 30.184909 58.382031 0
M  V30 31 C 38.878410 33.523051 59.178574 0
M  V30 32 C 43.688319 31.626458 66.414066 0
M  V30 33 C 38.401722 31.784401 56.685488 0
M  V30 34 O 39.109013 31.020911 54.533666 0
M  V30 35 C 36.983021 32.265285 60.243149 0 CFG=2
M  V30 36 S 37.520675 33.513225 61.453496 0
M  V30 37 C 44.695655 30.758659 66.871843 0
M  V30 38 C 41.985288 32.055000 62.394995 0
M  V30 39 C 43.494550 27.394958 65.559807 0
M  V30 40 C 39.742729 35.100405 60.988607 0
M  V30 41 C 40.353210 28.791851 62.119520 0
M  V30 42 C 39.140106 29.621454 51.456449 0
M  V30 43 C 37.897645 29.131201 57.485110 0
M  V30 44 C 42.608895 31.124475 65.663489 0
M  V30 45 C 44.627583 29.383224 66.584463 0
M  V30 46 H 40.453228 29.768677 64.854687 0
M  V30 47 H 40.057349 37.295562 63.424722 0
M  V30 48 H 41.070808 35.885603 63.117677 0
M  V30 49 H 41.018672 37.219202 61.946083 0
M  V30 50 H 42.677178 26.997810 63.637207 0
M  V30 51 H 41.662591 25.488005 65.759508 0
M  V30 52 H 35.061785 31.351854 59.596734 0
M  V30 53 H 38.783114 30.792542 62.350489 0
M  V30 54 H 39.472122 31.606266 61.023944 0
M  V30 55 H 42.410027 28.995128 62.665680 0
M  V30 56 H 38.985765 28.177851 53.062900 0
M  V30 57 H 37.850475 29.490775 53.170833 0
M  V30 58 H 36.952649 33.332535 58.365640 0
M  V30 59 H 40.547932 29.803621 60.198266 0
M  V30 60 H 39.166974 28.768764 60.357896 0
M  V30 61 H 38.531253 28.578756 55.510534 0
M  V30 62 H 40.268498 27.308635 64.292063 0
M  V30 63 H 41.207721 28.195380 66.774691 0
M  V30 64 H 37.880870 35.278391 59.903478 0
M  V30 65 H 36.779850 30.519131 61.467123 0
M  V30 66 H 40.660283 30.468467 53.338949 0
M  V30 67 H 40.267399 29.326571 54.586247 0
M  V30 68 H 33.742420 33.060080 60.173471 0
M  V30 69 H 39.727404 32.910352 59.460065 0
M  V30 70 H 39.187265 34.021423 58.269060 0
M  V30 71 H 43.742507 32.681695 66.638412 0
M  V30 72 H 38.585646 32.802192 56.375867 0
M  V30 73 H 45.522756 31.147600 67.448895 0
M  V30 74 H 42.224348 33.074541 62.195259 0
M  V30 75 H 40.350155 34.312878 61.435565 0
M  V30 76 H 40.359719 35.616335 60.253471 0
M  V30 77 H 40.716568 27.814004 61.800765 0
M  V30 78 H 39.476781 28.571729 62.711805 0
M  V30 79 H 38.267151 29.512157 50.864114 0
M  V30 80 H 39.467413 30.660417 51.368720 0
M  V30 81 H 37.701976 28.113325 57.790353 0
M  V30 82 H 41.838809 31.797982 65.319405 0
M  V30 83 H 45.402850 28.721386 66.945596 0
M  V30 END ATOM
M  V30 BEGIN BOND
M  V30 1 1 2 1
M  V30 2 1 6 5
M  V30 3 1 13 2
M  V30 4 1 13 9
M  V30 5 1 15 8
M  V30 6 1 17 3
M  V30 7 1 18 12
M  V30 8 1 19 10
M  V30 9 1 20 2
M  V30 10 1 20 5
M  V30 11 1 21 20
M  V30 12 1 22 8
M  V30 13 1 24 12
M  V30 14 1 24 16
M  V30 15 1 25 14
M  V30 16 2 26 11
M  V30 17 1 27 8
M  V30 18 1 28 4
M  V30 19 1 29 1
M  V30 20 2 30 3
M  V30 21 1 30 16
M  V30 22 1 31 17
M  V30 23 1 31 23
M  V30 24 1 33 3
M  V30 25 2 33 10
M  V30 26 1 34 10
M  V30 27 1 34 25
M  V30 28 1 35 11 CFG=3
M  V30 29 1 35 17
M  V30 30 1 35 24
M  V30 31 1 36 23
M  V30 32 1 36 35
M  V30 33 2 37 32
M  V30 34 3 38 9
M  V30 35 1 39 5
M  V30 36 2 39 7
M  V30 37 1 39 29
M  V30 38 1 40 23
M  V30 39 1 40 28
M  V30 40 1 41 13
M  V30 41 1 41 18
M  V30 42 1 42 8
M  V30 43 1 42 14
M  V30 44 2 43 19
M  V30 45 1 43 30
M  V30 46 2 44 1
M  V30 47 1 44 32
M  V30 48 2 45 29
M  V30 49 1 45 37
M  V30 50 1 2 46 CFG=1
M  V30 51 1 47 4
M  V30 52 1 48 4
M  V30 53 1 49 4
M  V30 54 1 5 50 CFG=3
M  V30 55 1 51 6
M  V30 56 1 52 11
M  V30 57 1 53 12
M  V30 58 1 54 12
M  V30 59 1 13 55 CFG=3
M  V30 60 1 56 14
M  V30 61 1 57 14
M  V30 62 1 17 58 CFG=3
M  V30 63 1 59 18
M  V30 64 1 60 18
M  V30 65 1 61 19
M  V30 66 1 20 62 CFG=3
M  V30 67 1 63 21
M  V30 68 1 23 64 CFG=3
M  V30 69 1 24 65 CFG=1
M  V30 70 1 66 25
M  V30 71 1 67 25
M  V30 72 1 68 26
M  V30 73 1 69 31
M  V30 74 1 70 31
M  V30 75 1 71 32
M  V30 76 1 72 33
M  V30 77 1 73 37
M  V30 78 1 74 38
M  V30 79 1 75 40
M  V30 80 1 76 40
M  V30 81 1 77 41
M  V30 82 1 78 41
M  V30 83 1 79 42
M  V30 84 1 80 42
M  V30 85 1 81 43
M  V30 86 1 82 44
M  V30 87 1 83 45
M  V30 END BOND
M  V30 END CTAB
M  END
>  <i_epik_Tot_Q>  (1) 
0

>  <i_epik_Tot_abs_Q>  (1) 
0

>  <i_i_glide_confnum>  (1) 
2605

>  <i_i_glide_lignum>  (1) 
98

>  <i_i_glide_posenum>  (1) 
307

>  <i_i_glide_rotatable_bonds>  (1) 
16

>  <i_lp_mmshare_version>  (1) 
72125

>  <i_m_source_file_index>  (1) 
42

>  <i_f3d_flags>  (1) 
0

>  <num_sample>  (1) 
50

>  <b_lp_Chiralities_Consistent>  (1) 
1

>  <r_epik_Charging_Adjusted_Penalty>  (1) 
0.41067983895260396

>  <r_epik_Ionization_Penalty>  (1) 
0.0048607436090088536

>  <r_epik_Ionization_Penalty_Charging>  (1) 
0

>  <r_epik_Ionization_Penalty_Neutral>  (1) 
0.0048607436090088536

>  <r_epik_State_Penalty>  (1) 
0.41067983895260396

>  <r_glide_ring_energy>  (1) 
1.8793194922327006

>  <r_i_docking_score>  (1) 
-6.2394465432020461

>  <r_i_glide_ecoul>  (1) 
-0.89025222741714938

>  <r_i_glide_eff_state_penalty>  (1) 
0.41067983895260396

>  <r_i_glide_einternal>  (1) 
12.63679739796499

>  <r_i_glide_emodel>  (1) 
-56.567314289439224

>  <r_i_glide_emodel_strain>  (1) 
4.6056922598329777

>  <r_i_glide_energy>  (1) 
-49.105508676658808

>  <r_i_glide_erotb>  (1) 
0.41134081239429626

>  <r_i_glide_esite>  (1) 
-0.076022897258261016

>  <r_i_glide_evdw>  (1) 
-48.215256449241657

>  <r_i_glide_gscore>  (1) 
-6.6501263821546504

>  <r_i_glide_gscore_strain>  (1) 
0.15142306495824442

>  <r_i_glide_hbond>  (1) 
0

>  <r_i_glide_ligand_efficiency>  (1) 
-0.13865436762671213

>  <r_i_glide_ligand_efficiency_ln>  (1) 
-1.2980829331123247

>  <r_i_glide_ligand_efficiency_sa>  (1) 
-0.49317879184975616

>  <r_i_glide_lipo>  (1) 
-2.9341312358022744

>  <r_i_glide_metal>  (1) 
-0

>  <r_i_glide_rewards>  (1) 
-1.6584354698719999

>  <r_lp_Energy>  (1) 
42.813420999999998

>  <r_lp_tautomer_probability>  (1) 
0.5

>  <s_epik_Chemistry_Notes>  (1) 
This compound has an imine and may undergo hydrolysis.

>  <s_epik_cmdline>  (1) 
J2VwaWtfcHl0aG9uJywgJy1waHQnLCAnMS4wJywgJy1waCcsICc3LjQnLCAnLXRuJywgJzgnLCAnLW1hJywgJzUwMCcsICctaW1hZScsICc8aW5maWxlLm1hZT4nLCAnLW9tYWUnLCAnPG91dGZpbGUubWFlPic=

>  <s_epik_input>  (1) 
W2NIXTFbY0hdW2NIXVtjSF1jKGMxMilDKD1PKVtDQEBIXShbT0hdKVtDQEBIXShbT0hdKVtDQEBIXTJbQ0BASF0oQyNbQ0hdKVtDSDJdW0NIMl1bQ0gyXVtDQEBIXTNPYyhjNFtDQEBIXShbQ0BAXTM1L1tDSF09Ti9bSF0pW0NIMl1bQ0BASF0oUzUpW0NIMl1PW0NIM10pW2NIXVtjSF1jKFtjSF00KU9bQ0gyXVtDSDJdW0NIMl1DKEYpKEYpRg==

>  <s_glide_docking_method>  (1) 
confgen

>  <s_i_glide_gridfile>  (1) 
gpcr_5ht2c_6bqh_protein_autoprepared_prepared

>  <s_lp_Force_Field>  (1) 
S-OPLS

>  <s_lp_Variant>  (1) 
DiffSBDD_41_num_sample_50-3

>  <s_m_source_file>  (1) 
generated__ligand_DiffSBDD_2026-05-06_prepared.sdf

>  <GenAI_Model>  (1) 
DiffSBDD

>  <Protein>  (1) 
GPCR_5HT2C

$$$$
DiffSBDD_32_num_sample_50
     RDKit          3D

  0  0  0  0  0  0  0  0  0  0999 V3000
M  V30 BEGIN CTAB
M  V30 COUNTS 52 55 0 0 1
M  V30 BEGIN ATOM
M  V30 1 C 39.348158 34.472952 61.405037 0
M  V30 2 O 38.504691 26.880719 54.464171 0
M  V30 3 C 38.422436 31.003585 57.110119 0
M  V30 4 C 38.799337 29.687370 55.275297 0
M  V30 5 C 39.727961 29.621083 51.552693 0
M  V30 6 C 39.467393 37.221115 64.553155 0
M  V30 7 N 38.475598 36.475137 62.462387 0
M  V30 8 C 39.174130 27.359762 52.222205 0
M  V30 9 C 38.421374 31.071353 55.713594 0
M  V30 10 C 39.429030 36.248591 63.398148 0
M  V30 11 C 39.053349 29.177492 53.881450 0
M  V30 12 C 38.940964 29.029569 60.061332 0
M  V30 13 C 39.467419 30.075379 52.859559 0
M  V30 14 N 38.201227 31.973392 57.904344 0 CHG=1
M  V30 15 N 40.308088 34.257725 62.332660 0
M  V30 16 N 38.686203 29.912488 57.658069 0
M  V30 17 C 38.446182 35.566617 61.465721 0
M  V30 18 C 39.578444 28.267366 51.237774 0
M  V30 19 C 38.147477 32.183256 54.731777 0
M  V30 20 C 38.910397 27.794575 53.536432 0
M  V30 21 C 40.338706 35.163401 63.336893 0
M  V30 22 F 41.261542 35.015662 64.316906 0
M  V30 23 C 38.226363 32.363362 60.398340 0
M  V30 24 C 40.174903 30.601292 50.485821 0
M  V30 25 C 38.668968 30.080397 59.037269 0
M  V30 26 C 38.353257 31.486463 59.196878 0
M  V30 27 C 39.290728 33.473389 60.267093 0
M  V30 28 S 39.005203 28.561181 56.744721 0
M  V30 29 N 37.477814 35.745714 60.478889 0
M  V30 30 H 38.392800 26.011778 54.109993 0
M  V30 31 H 39.867408 38.173808 64.211973 0
M  V30 32 H 38.463188 37.380080 64.944603 0
M  V30 33 H 40.088658 36.859222 65.372710 0
M  V30 34 H 39.067403 26.322615 51.970138 0
M  V30 35 H 38.770015 29.414784 61.066128 0
M  V30 36 H 38.286214 28.172802 59.901209 0
M  V30 37 H 39.975668 28.693237 59.989688 0
M  V30 38 H 39.603741 31.116485 53.081983 0
M  V30 39 H 39.778679 27.919595 50.236086 0
M  V30 40 H 37.489237 32.919138 55.192857 0
M  V30 41 H 39.067418 32.691182 54.464425 0
M  V30 42 H 37.630082 31.811333 53.853504 0
M  V30 43 H 37.219488 32.779186 60.443194 0
M  V30 44 H 38.386051 31.779676 61.304795 0
M  V30 45 H 39.621617 31.537166 50.564659 0
M  V30 46 H 41.238059 30.820456 50.592474 0
M  V30 47 H 40.006540 30.198905 49.486190 0
M  V30 48 H 40.267400 32.994696 60.206619 0
M  V30 49 H 39.175136 34.021186 59.332503 0
M  V30 50 H 37.394396 35.116252 59.695817 0
M  V30 51 H 36.836707 36.525332 60.509639 0
M  V30 52 H 37.969900 32.923016 57.643778 0
M  V30 END ATOM
M  V30 BEGIN BOND
M  V30 1 1 9 3
M  V30 2 2 9 4
M  V30 3 1 10 6
M  V30 4 2 10 7
M  V30 5 1 11 4
M  V30 6 2 13 5
M  V30 7 1 13 11
M  V30 8 2 14 3
M  V30 9 1 15 1
M  V30 10 1 16 3
M  V30 11 2 17 1
M  V30 12 1 17 7
M  V30 13 1 18 5
M  V30 14 2 18 8
M  V30 15 1 19 9
M  V30 16 1 20 2
M  V30 17 1 20 8
M  V30 18 2 20 11
M  V30 19 1 21 10
M  V30 20 2 21 15
M  V30 21 1 22 21
M  V30 22 1 24 5
M  V30 23 1 25 12
M  V30 24 1 25 16
M  V30 25 1 26 14
M  V30 26 1 26 23
M  V30 27 2 26 25
M  V30 28 1 27 1
M  V30 29 1 27 23
M  V30 30 1 28 4
M  V30 31 1 28 16
M  V30 32 1 29 17
M  V30 33 1 30 2
M  V30 34 1 31 6
M  V30 35 1 32 6
M  V30 36 1 33 6
M  V30 37 1 34 8
M  V30 38 1 35 12
M  V30 39 1 36 12
M  V30 40 1 37 12
M  V30 41 1 38 13
M  V30 42 1 39 18
M  V30 43 1 40 19
M  V30 44 1 41 19
M  V30 45 1 42 19
M  V30 46 1 43 23
M  V30 47 1 44 23
M  V30 48 1 45 24
M  V30 49 1 46 24
M  V30 50 1 47 24
M  V30 51 1 48 27
M  V30 52 1 49 27
M  V30 53 1 50 29
M  V30 54 1 51 29
M  V30 55 1 52 14
M  V30 END BOND
M  V30 END CTAB
M  END
>  <i_epik_Tot_Q>  (1) 
1

>  <i_epik_Tot_abs_Q>  (1) 
1

>  <i_i_glide_confnum>  (1) 
88

>  <i_i_glide_lignum>  (1) 
85

>  <i_i_glide_posenum>  (1) 
52

>  <i_i_glide_rotatable_bonds>  (1) 
5

>  <i_lp_mmshare_version>  (1) 
72125

>  <i_m_source_file_index>  (1) 
33

>  <i_f3d_flags>  (1) 
0

>  <num_sample>  (1) 
50

>  <b_lp_Chiralities_Consistent>  (1) 
1

>  <r_epik_Charging_Adjusted_Penalty>  (1) 
0.70840898770903482

>  <r_epik_Ionization_Penalty>  (1) 
0.71036238548422381

>  <r_epik_Ionization_Penalty_Charging>  (1) 
0

>  <r_epik_Ionization_Penalty_Neutral>  (1) 
0.71036238548422381

>  <r_epik_State_Penalty>  (1) 
0.70840898770903482

>  <r_glide_ring_energy>  (1) 
0

>  <r_i_docking_score>  (1) 
-6.2235342676448839

>  <r_i_glide_ecoul>  (1) 
-2.1442113010163277

>  <r_i_glide_eff_state_penalty>  (1) 
0.70840898770903482

>  <r_i_glide_einternal>  (1) 
1.3453340497205435

>  <r_i_glide_emodel>  (1) 
-68.333077843427631

>  <r_i_glide_emodel_strain>  (1) 
0

>  <r_i_glide_energy>  (1) 
-46.222842977556859

>  <r_i_glide_erotb>  (1) 
0.46353657378789748

>  <r_i_glide_esite>  (1) 
-0.19666542484272151

>  <r_i_glide_evdw>  (1) 
-44.078631676540532

>  <r_i_glide_gscore>  (1) 
-6.9319432553539189

>  <r_i_glide_gscore_strain>  (1) 
0

>  <r_i_glide_hbond>  (1) 
0

>  <r_i_glide_ligand_efficiency>  (1) 
-0.21460462991878909

>  <r_i_glide_ligand_efficiency_ln>  (1) 
-1.42503153207832

>  <r_i_glide_ligand_efficiency_sa>  (1) 
-0.65933341536958023

>  <r_i_glide_lipo>  (1) 
-3.2985480464003798

>  <r_i_glide_metal>  (1) 
-0

>  <r_i_glide_rewards>  (1) 
-1.3747030789192398

>  <r_lp_Energy>  (1) 
27.758326

>  <r_lp_tautomer_probability>  (1) 
0.99999990127737282

>  <s_epik_cmdline>  (1) 
J2VwaWtfcHl0aG9uJywgJy1waHQnLCAnMS4wJywgJy1waCcsICc3LjQnLCAnLXRuJywgJzgnLCAnLW1hJywgJzUwMCcsICctaW1hZScsICc8aW5maWxlLm1hZT4nLCAnLW9tYWUnLCAnPG91dGZpbGUubWFlPic=

>  <s_epik_input>  (1) 
W05IMl1jMW5jKFtDSDNdKWMoRiluYzFbQ0gyXVtDSDJdYyhuMiljKFtDSDNdKW4oYzIzKXNjKGMzW0NIM10pLWMoW2NIXWM0W0NIM10pYyhbT0hdKVtjSF1bY0hdNA==

>  <s_glide_docking_method>  (1) 
confgen

>  <s_i_glide_gridfile>  (1) 
gpcr_5ht2c_6bqh_protein_autoprepared_prepared

>  <s_lp_Force_Field>  (1) 
S-OPLS

>  <s_lp_Variant>  (1) 
DiffSBDD_32_num_sample_50-2

>  <s_m_source_file>  (1) 
generated__ligand_DiffSBDD_2026-05-06_prepared.sdf

>  <GenAI_Model>  (1) 
DiffSBDD

>  <Protein>  (1) 
GPCR_5HT2C

$$$$
DiffSBDD_30_num_sample_50
     RDKit          3D

  0  0  0  0  0  0  0  0  0  0999 V3000
M  V30 BEGIN CTAB
M  V30 COUNTS 68 67 0 0 1
M  V30 BEGIN ATOM
M  V30 1 C 39.235234 30.106205 53.854056 0
M  V30 2 C 37.095839 33.535180 60.359363 0 CFG=2
M  V30 3 C 36.702384 34.847844 59.642651 0
M  V30 4 O 39.467415 38.380367 61.853500 0
M  V30 5 C 39.593904 36.976275 63.801131 0
M  V30 6 C 38.717235 32.293222 61.929956 0
M  V30 7 C 39.463529 27.173467 54.512483 0
M  V30 8 C 39.450447 27.937721 50.505590 0
M  V30 9 C 37.934535 32.463827 58.142839 0
M  V30 10 C 38.465268 33.586143 61.103807 0 CFG=2
M  V30 11 C 38.913325 28.994008 52.807308 0 CFG=1
M  V30 12 C 38.598812 34.852463 61.990572 0
M  V30 13 C 39.856888 28.989415 51.553347 0 CFG=2
M  V30 14 C 38.610536 31.361724 56.004096 0
M  V30 15 C 40.083103 32.198173 62.629978 0
M  V30 16 C 36.989559 32.355553 59.367673 0
M  V30 17 C 39.477620 37.236585 62.302693 0
M  V30 18 C 39.388725 36.021977 61.376758 0 CFG=1
M  V30 19 C 38.289066 30.174933 55.072684 0
M  V30 20 C 39.993065 30.362897 50.855800 0
M  V30 21 O 38.304666 30.125600 58.010453 0 CHG=-1
M  V30 22 C 41.160855 30.425849 49.869793 0
M  V30 23 N 37.867405 31.201949 57.315571 0 CFG=1 CHG=1
M  V30 24 C 40.785172 35.624859 60.893346 0
M  V30 25 C 38.805582 27.587821 53.413573 0
M  V30 26 H 40.266862 30.015823 54.194042 0
M  V30 27 H 39.163639 31.085839 53.385585 0
M  V30 28 H 36.329473 33.369518 61.117741 0
M  V30 29 H 37.466752 35.173517 58.939036 0
M  V30 30 H 35.777113 34.723342 59.078073 0
M  V30 31 H 36.526588 35.667259 60.337912 0
M  V30 32 H 38.643290 36.620589 64.199669 0
M  V30 33 H 40.364715 36.230629 63.995931 0
M  V30 34 H 39.866515 37.891276 64.326940 0
M  V30 35 H 37.916106 32.152083 62.653466 0
M  V30 36 H 38.682460 31.426671 61.274982 0
M  V30 37 H 40.129013 27.831597 55.053484 0
M  V30 38 H 39.340726 26.166433 54.883587 0
M  V30 39 H 38.667399 28.318007 49.860495 0
M  V30 40 H 40.285613 27.715572 49.853768 0
M  V30 41 H 39.135349 26.980375 50.916077 0
M  V30 42 H 38.980989 32.591374 58.416142 0
M  V30 43 H 37.629439 33.282888 57.492374 0
M  V30 44 H 39.244798 33.610750 60.348687 0
M  V30 45 H 37.907594 29.211942 52.445735 0
M  V30 46 H 37.607693 35.220300 62.253507 0
M  V30 47 H 39.067440 34.593179 62.934803 0
M  V30 48 H 40.861064 28.702663 51.853527 0
M  V30 49 H 39.671155 31.424413 56.252846 0
M  V30 50 H 38.293392 32.303527 55.553459 0
M  V30 51 H 40.257651 31.178843 62.974347 0
M  V30 52 H 40.896627 32.459169 61.953335 0
M  V30 53 H 40.151023 32.837381 63.509269 0
M  V30 54 H 35.949533 32.296717 59.052981 0
M  V30 55 H 37.138519 31.406296 59.875536 0
M  V30 56 H 38.834856 36.374210 60.507209 0
M  V30 57 H 37.254737 30.258730 54.734912 0
M  V30 58 H 38.343826 29.250122 55.643647 0
M  V30 59 H 39.068046 30.620081 50.336947 0
M  V30 60 H 40.179974 31.158536 51.571726 0
M  V30 61 H 41.213261 31.420410 49.437493 0
M  V30 62 H 42.108259 30.248268 50.376121 0
M  V30 63 H 41.059251 29.712705 49.053328 0
M  V30 64 H 41.463543 36.474753 60.817220 0
M  V30 65 H 41.254241 34.876353 61.530849 0
M  V30 66 H 40.667484 35.221421 59.891612 0
M  V30 67 H 38.147650 26.897337 52.904374 0
M  V30 68 H 36.852426 31.131573 57.053501 0
M  V30 END ATOM
M  V30 BEGIN BOND
M  V30 1 1 3 2
M  V30 2 1 10 2
M  V30 3 1 10 6
M  V30 4 1 11 1
M  V30 5 1 12 10
M  V30 6 1 13 8
M  V30 7 1 13 11
M  V30 8 1 15 6
M  V30 9 1 16 2
M  V30 10 1 16 9
M  V30 11 2 17 4
M  V30 12 1 17 5
M  V30 13 1 18 12
M  V30 14 1 18 17
M  V30 15 1 19 1
M  V30 16 1 19 14
M  V30 17 1 20 13
M  V30 18 1 22 20
M  V30 19 1 23 9
M  V30 20 1 23 14
M  V30 21 1 23 21
M  V30 22 1 24 18
M  V30 23 2 25 7
M  V30 24 1 25 11
M  V30 25 1 26 1
M  V30 26 1 27 1
M  V30 27 1 2 28 CFG=1
M  V30 28 1 29 3
M  V30 29 1 30 3
M  V30 30 1 31 3
M  V30 31 1 32 5
M  V30 32 1 33 5
M  V30 33 1 34 5
M  V30 34 1 35 6
M  V30 35 1 36 6
M  V30 36 1 37 7
M  V30 37 1 38 7
M  V30 38 1 39 8
M  V30 39 1 40 8
M  V30 40 1 41 8
M  V30 41 1 42 9
M  V30 42 1 43 9
M  V30 43 1 10 44 CFG=3
M  V30 44 1 11 45 CFG=3
M  V30 45 1 46 12
M  V30 46 1 47 12
M  V30 47 1 13 48 CFG=1
M  V30 48 1 49 14
M  V30 49 1 50 14
M  V30 50 1 51 15
M  V30 51 1 52 15
M  V30 52 1 53 15
M  V30 53 1 54 16
M  V30 54 1 55 16
M  V30 55 1 18 56 CFG=3
M  V30 56 1 57 19
M  V30 57 1 58 19
M  V30 58 1 59 20
M  V30 59 1 60 20
M  V30 60 1 61 22
M  V30 61 1 62 22
M  V30 62 1 63 22
M  V30 63 1 64 24
M  V30 64 1 65 24
M  V30 65 1 66 24
M  V30 66 1 67 25
M  V30 67 1 23 68 CFG=3
M  V30 END BOND
M  V30 END CTAB
M  END
>  <i_epik_Tot_Q>  (1) 
0

>  <i_epik_Tot_abs_Q>  (1) 
2

>  <i_i_glide_confnum>  (1) 
3424

>  <i_i_glide_lignum>  (1) 
80

>  <i_i_glide_posenum>  (1) 
43

>  <i_i_glide_rotatable_bonds>  (1) 
15

>  <i_lp_mmshare_version>  (1) 
72125

>  <i_m_source_file_index>  (1) 
31

>  <i_f3d_flags>  (1) 
0

>  <num_sample>  (1) 
50

>  <b_lp_Chiralities_Consistent>  (1) 
1

>  <r_epik_Charging_Adjusted_Penalty>  (1) 
0.52251968911758562

>  <r_epik_Ionization_Penalty>  (1) 
0.019979657236955634

>  <r_epik_Ionization_Penalty_Charging>  (1) 
0.019979657236557934

>  <r_epik_Ionization_Penalty_Neutral>  (1) 
3.9770064437045143e-13

>  <r_epik_State_Penalty>  (1) 
0.50254003188102769

>  <r_glide_ring_energy>  (1) 
0

>  <r_i_docking_score>  (1) 
-6.202133888719688

>  <r_i_glide_ecoul>  (1) 
-6.4439501598424789

>  <r_i_glide_eff_state_penalty>  (1) 
0.50254003188102769

>  <r_i_glide_einternal>  (1) 
6.7678255509961538

>  <r_i_glide_emodel>  (1) 
-53.042491664810704

>  <r_i_glide_emodel_strain>  (1) 
1.4383347248982119

>  <r_i_glide_energy>  (1) 
-40.643355736614879

>  <r_i_glide_erotb>  (1) 
1.833058027080513

>  <r_i_glide_esite>  (1) 
-0.10000000000000001

>  <r_i_glide_evdw>  (1) 
-34.199405576772399

>  <r_i_glide_gscore>  (1) 
-6.7046739206007153

>  <r_i_glide_gscore_strain>  (1) 
0

>  <r_i_glide_hbond>  (1) 
-0.16

>  <r_i_glide_ligand_efficiency>  (1) 
-0.24808535554878752

>  <r_i_glide_ligand_efficiency_ln>  (1) 
-1.4700915945809911

>  <r_i_glide_ligand_efficiency_sa>  (1) 
-0.7254059802155004

>  <r_i_glide_lipo>  (1) 
-3.6016489374680218

>  <r_i_glide_metal>  (1) 
-0

>  <r_i_glide_rewards>  (1) 
-1.9995202073982141

>  <r_lp_Energy>  (1) 
19.406434000000001

>  <s_epik_cmdline>  (1) 
J2VwaWtfcHl0aG9uJywgJy1waHQnLCAnMS4wJywgJy1waCcsICc3LjQnLCAnLXRuJywgJzgnLCAnLW1hJywgJzUwMCcsICctaW1hZScsICc8aW5maWxlLm1hZT4nLCAnLW9tYWUnLCAnPG91dGZpbGUubWFlPic=

>  <s_epik_input>  (1) 
W0NIM11bQ0gyXVtDQEhdKFtDSDNdKVtDQEBIXShbQ0hdPVtDSDJdKVtDSDJdW0NIMl1bQ0gyXU4oW09IXSlbQ0gyXVtDSDJdW0NASF0oW0NIM10pW0NASF0oW0NIMl1bQ0gzXSlbQ0gyXVtDQEhdKFtDSDNdKUMoPU8pW0NIM10=

>  <s_glide_docking_method>  (1) 
confgen

>  <s_i_glide_gridfile>  (1) 
gpcr_5ht2c_6bqh_protein_autoprepared_prepared

>  <s_lp_Force_Field>  (1) 
S-OPLS

>  <s_lp_Variant>  (1) 
DiffSBDD_30_num_sample_50-4

>  <s_m_source_file>  (1) 
generated__ligand_DiffSBDD_2026-05-06_prepared.sdf

>  <GenAI_Model>  (1) 
DiffSBDD

>  <Protein>  (1) 
GPCR_5HT2C

$$$$
DiffSBDD_30_num_sample_50
     RDKit          3D

  0  0  0  0  0  0  0  0  0  0999 V3000
M  V30 BEGIN CTAB
M  V30 COUNTS 68 67 0 0 1
M  V30 BEGIN ATOM
M  V30 1 C 39.186947 30.066768 53.784769 0
M  V30 2 C 37.358807 33.310161 60.374790 0 CFG=2
M  V30 3 C 36.801439 34.602195 59.732510 0
M  V30 4 O 38.345420 38.018124 61.453509 0
M  V30 5 C 39.214689 37.239284 63.561283 0
M  V30 6 C 39.373313 32.161015 61.545102 0
M  V30 7 C 37.694035 26.866563 53.471329 0
M  V30 8 C 39.467392 27.912899 50.489910 0
M  V30 9 C 38.028840 32.226515 58.141152 0
M  V30 10 C 38.823861 33.464842 60.905678 0 CFG=2
M  V30 11 C 38.866914 28.983149 52.726944 0 CFG=1
M  V30 12 C 38.909511 34.637839 61.906849 0
M  V30 13 C 39.849747 28.984785 51.518468 0 CFG=2
M  V30 14 C 38.618473 31.164959 55.998966 0
M  V30 15 C 40.866933 32.197113 61.915457 0
M  V30 16 C 37.156443 32.128479 59.403426 0
M  V30 17 C 38.969804 37.146751 62.057426 0
M  V30 18 C 39.529811 35.925071 61.332181 0 CFG=1
M  V30 19 C 38.323015 29.993317 55.055160 0
M  V30 20 C 39.984184 30.360078 50.825092 0
M  V30 21 O 38.252050 29.875431 57.958861 0 CHG=-1
M  V30 22 C 41.163077 30.430412 49.856985 0
M  V30 23 N 37.867401 30.992269 57.297642 0 CFG=1 CHG=1
M  V30 24 C 41.067331 35.933463 61.364441 0
M  V30 25 C 38.809489 27.607428 53.381329 0
M  V30 26 H 40.240920 30.020507 54.062269 0
M  V30 27 H 39.032652 31.055828 53.356128 0
M  V30 28 H 36.724172 33.095778 61.236114 0
M  V30 29 H 37.441001 34.960612 58.926586 0
M  V30 30 H 35.809448 34.435533 59.310169 0
M  V30 31 H 36.696135 35.414268 60.450864 0
M  V30 32 H 39.693558 36.338939 63.943759 0
M  V30 33 H 39.867269 38.083421 63.782726 0
M  V30 34 H 38.271823 37.375582 64.090268 0
M  V30 35 H 38.784378 31.904574 62.426532 0
M  V30 36 H 39.261688 31.327940 60.853802 0
M  V30 37 H 36.755791 27.221632 53.071509 0
M  V30 38 H 37.707233 25.896568 53.945916 0
M  V30 39 H 38.667389 28.269784 49.853437 0
M  V30 40 H 40.312458 27.690827 49.853511 0
M  V30 41 H 39.163173 26.961487 50.923842 0
M  V30 42 H 39.086565 32.300386 58.371533 0
M  V30 43 H 37.733671 33.076231 57.524839 0
M  V30 44 H 39.471394 33.700680 60.061511 0
M  V30 45 H 37.868684 29.196000 52.340781 0
M  V30 46 H 37.902029 34.856947 62.253506 0
M  V30 47 H 39.444194 34.353462 62.811299 0
M  V30 48 H 40.846849 28.713185 51.853519 0
M  V30 49 H 39.677856 31.226439 56.251979 0
M  V30 50 H 38.299789 32.110349 55.557772 0
M  V30 51 H 41.189733 31.223471 62.284432 0
M  V30 52 H 41.485213 32.439210 61.052626 0
M  V30 53 H 41.089725 32.922175 62.696808 0
M  V30 54 H 36.108509 32.081748 59.105531 0
M  V30 55 H 37.331720 31.187008 59.921280 0
M  V30 56 H 39.209549 36.021358 60.294899 0
M  V30 57 H 37.264276 29.996746 54.790987 0
M  V30 58 H 38.512615 29.054748 55.575907 0
M  V30 59 H 39.067407 30.608884 50.290353 0
M  V30 60 H 40.145857 31.155817 51.549030 0
M  V30 61 H 41.211060 31.419656 49.412755 0
M  V30 62 H 42.106597 30.262516 50.374920 0
M  V30 63 H 41.067450 29.705263 49.051977 0
M  V30 64 H 41.467153 36.910147 61.091762 0
M  V30 65 H 41.456319 35.681904 62.351587 0
M  V30 66 H 41.476946 35.221369 60.653560 0
M  V30 67 H 39.734128 27.226571 53.790176 0
M  V30 68 H 36.848279 30.983845 57.045810 0
M  V30 END ATOM
M  V30 BEGIN BOND
M  V30 1 1 3 2
M  V30 2 1 10 2
M  V30 3 1 10 6
M  V30 4 1 11 1
M  V30 5 1 12 10
M  V30 6 1 13 8
M  V30 7 1 13 11
M  V30 8 1 15 6
M  V30 9 1 16 2
M  V30 10 1 16 9
M  V30 11 2 17 4
M  V30 12 1 17 5
M  V30 13 1 18 12
M  V30 14 1 18 17
M  V30 15 1 19 1
M  V30 16 1 19 14
M  V30 17 1 20 13
M  V30 18 1 22 20
M  V30 19 1 23 9
M  V30 20 1 23 14
M  V30 21 1 23 21
M  V30 22 1 24 18
M  V30 23 2 25 7
M  V30 24 1 25 11
M  V30 25 1 26 1
M  V30 26 1 27 1
M  V30 27 1 2 28 CFG=1
M  V30 28 1 29 3
M  V30 29 1 30 3
M  V30 30 1 31 3
M  V30 31 1 32 5
M  V30 32 1 33 5
M  V30 33 1 34 5
M  V30 34 1 35 6
M  V30 35 1 36 6
M  V30 36 1 37 7
M  V30 37 1 38 7
M  V30 38 1 39 8
M  V30 39 1 40 8
M  V30 40 1 41 8
M  V30 41 1 42 9
M  V30 42 1 43 9
M  V30 43 1 10 44 CFG=3
M  V30 44 1 11 45 CFG=3
M  V30 45 1 46 12
M  V30 46 1 47 12
M  V30 47 1 13 48 CFG=1
M  V30 48 1 49 14
M  V30 49 1 50 14
M  V30 50 1 51 15
M  V30 51 1 52 15
M  V30 52 1 53 15
M  V30 53 1 54 16
M  V30 54 1 55 16
M  V30 55 1 18 56 CFG=3
M  V30 56 1 57 19
M  V30 57 1 58 19
M  V30 58 1 59 20
M  V30 59 1 60 20
M  V30 60 1 61 22
M  V30 61 1 62 22
M  V30 62 1 63 22
M  V30 63 1 64 24
M  V30 64 1 65 24
M  V30 65 1 66 24
M  V30 66 1 67 25
M  V30 67 1 23 68 CFG=3
M  V30 END BOND
M  V30 END CTAB
M  END
>  <i_epik_Tot_Q>  (1) 
0

>  <i_epik_Tot_abs_Q>  (1) 
2

>  <i_i_glide_confnum>  (1) 
382

>  <i_i_glide_lignum>  (1) 
80

>  <i_i_glide_posenum>  (1) 
103

>  <i_i_glide_rotatable_bonds>  (1) 
15

>  <i_lp_mmshare_version>  (1) 
72125

>  <i_m_source_file_index>  (1) 
31

>  <i_f3d_flags>  (1) 
0

>  <num_sample>  (1) 
50

>  <b_lp_Chiralities_Consistent>  (1) 
1

>  <r_epik_Charging_Adjusted_Penalty>  (1) 
0.52251968911758562

>  <r_epik_Ionization_Penalty>  (1) 
0.019979657236955634

>  <r_epik_Ionization_Penalty_Charging>  (1) 
0.019979657236557934

>  <r_epik_Ionization_Penalty_Neutral>  (1) 
3.9770064437045143e-13

>  <r_epik_State_Penalty>  (1) 
0.50254003188102769

>  <r_glide_ring_energy>  (1) 
0

>  <r_i_docking_score>  (1) 
-6.199924109529233

>  <r_i_glide_ecoul>  (1) 
-4.5835953724001426

>  <r_i_glide_eff_state_penalty>  (1) 
0.50254003188102769

>  <r_i_glide_einternal>  (1) 
6.257359821404723

>  <r_i_glide_emodel>  (1) 
-55.573696425493949

>  <r_i_glide_emodel_strain>  (1) 
0.087433880117895768

>  <r_i_glide_energy>  (1) 
-41.574102746789158

>  <r_i_glide_erotb>  (1) 
1.833058027080513

>  <r_i_glide_esite>  (1) 
-0.10000000000000001

>  <r_i_glide_evdw>  (1) 
-36.990507374389018

>  <r_i_glide_gscore>  (1) 
-6.7024641414102604

>  <r_i_glide_gscore_strain>  (1) 
0

>  <r_i_glide_hbond>  (1) 
-0.15947001783772238

>  <r_i_glide_ligand_efficiency>  (1) 
-0.24799696438116933

>  <r_i_glide_ligand_efficiency_ln>  (1) 
-1.4695678106911148

>  <r_i_glide_ligand_efficiency_sa>  (1) 
-0.7251475228734835

>  <r_i_glide_lipo>  (1) 
-3.8111806734187512

>  <r_i_glide_metal>  (1) 
-0

>  <r_i_glide_rewards>  (1) 
-1.927806802654827

>  <r_lp_Energy>  (1) 
19.406434000000001

>  <s_epik_cmdline>  (1) 
J2VwaWtfcHl0aG9uJywgJy1waHQnLCAnMS4wJywgJy1waCcsICc3LjQnLCAnLXRuJywgJzgnLCAnLW1hJywgJzUwMCcsICctaW1hZScsICc8aW5maWxlLm1hZT4nLCAnLW9tYWUnLCAnPG91dGZpbGUubWFlPic=

>  <s_epik_input>  (1) 
W0NIM11bQ0gyXVtDQEhdKFtDSDNdKVtDQEBIXShbQ0hdPVtDSDJdKVtDSDJdW0NIMl1bQ0gyXU4oW09IXSlbQ0gyXVtDSDJdW0NASF0oW0NIM10pW0NASF0oW0NIMl1bQ0gzXSlbQ0gyXVtDQEhdKFtDSDNdKUMoPU8pW0NIM10=

>  <s_glide_docking_method>  (1) 
confgen

>  <s_i_glide_gridfile>  (1) 
gpcr_5ht2c_6bqh_protein_autoprepared_prepared

>  <s_lp_Force_Field>  (1) 
S-OPLS

>  <s_lp_Variant>  (1) 
DiffSBDD_30_num_sample_50-4

>  <s_m_source_file>  (1) 
generated__ligand_DiffSBDD_2026-05-06_prepared.sdf

>  <GenAI_Model>  (1) 
DiffSBDD

>  <Protein>  (1) 
GPCR_5HT2C

$$$$
DiffSBDD_7_num_sample_50
     RDKit          3D

  0  0  0  0  0  0  0  0  0  0999 V3000
M  V30 BEGIN CTAB
M  V30 COUNTS 93 96 0 0 1
M  V30 BEGIN ATOM
M  V30 1 C 39.147248 26.003071 55.973138 0 CFG=1
M  V30 2 O 40.639955 30.297884 61.401398 0
M  V30 3 C 38.700694 29.471281 54.994442 0 CFG=1
M  V30 4 C 38.900743 33.307620 60.649130 0
M  V30 5 O 37.130750 25.559981 57.175768 0 CHG=-1
M  V30 6 N 41.562380 34.977586 64.637024 0
M  V30 7 S 40.823064 29.257896 65.622408 0
M  V30 8 N 41.988807 26.335110 67.077375 0
M  V30 9 N 38.621274 31.853122 60.572584 0 CFG=1 CHG=1
M  V30 10 S 43.218995 27.347201 65.022597 0
M  V30 11 C 41.316916 35.703086 63.530154 0
M  V30 12 C 39.598420 29.200798 52.461764 0
M  V30 13 C 40.845117 28.902205 61.194661 0
M  V30 14 C 39.747009 30.601812 62.475489 0 CFG=1
M  V30 15 C 42.423517 28.505322 66.196303 0 CFG=2
M  V30 16 N 41.067411 36.412698 62.650238 0
M  V30 17 O 40.102414 33.525027 62.676713 0
M  V30 18 C 38.792841 30.640669 55.951735 0
M  V30 19 O 43.640668 27.882520 70.942243 0
M  V30 20 C 37.049718 27.886549 53.584571 0
M  V30 21 C 40.466360 31.357468 63.642204 0 CFG=2
M  V30 22 C 42.722036 27.367488 70.000982 0 CFG=1
M  V30 23 O 37.321685 24.707709 55.126691 0
M  V30 24 C 42.067753 27.720105 67.497237 0 CFG=2
M  V30 25 O 42.543837 24.821418 65.410934 0
M  V30 26 C 41.087046 32.776885 63.372043 0 CFG=2
M  V30 27 C 39.225323 27.484517 56.340585 0
M  V30 28 C 37.743976 25.370666 56.100914 0
M  V30 29 C 39.229869 29.392048 58.023678 0
M  V30 30 C 38.257677 30.352663 57.348500 0 CFG=1
M  V30 31 C 38.118953 31.675612 58.128676 0
M  V30 32 C 38.434504 31.225055 61.912403 0
M  V30 33 C 39.087197 27.952026 57.601628 0
M  V30 34 C 43.123725 27.907533 68.609886 0
M  V30 35 C 39.859152 25.641808 54.660285 0
M  V30 36 C 37.501812 29.238043 54.091490 0 CFG=2
M  V30 37 C 40.267565 33.554763 61.268088 0
M  V30 38 C 41.467380 33.530217 64.688572 0
M  V30 39 C 37.565826 31.545082 59.568947 0
M  V30 40 O 40.328413 30.204569 66.718223 0
M  V30 41 C 41.444088 30.377831 64.309552 0
M  V30 42 C 42.751983 25.836833 70.133181 0
M  V30 43 C 38.749389 29.877479 53.524886 0 CFG=1
M  V30 44 C 42.522794 25.954124 65.878844 0
M  V30 45 O 42.624230 30.351498 63.960553 0
M  V30 46 O 41.690829 32.944529 65.744666 0
M  V30 47 O 39.513534 28.314713 55.263837 0
M  V30 48 H 39.725496 25.501933 56.750190 0
M  V30 49 H 38.115259 33.830378 61.197961 0
M  V30 50 H 38.904198 33.744491 59.650938 0
M  V30 51 H 41.813185 35.485251 65.472938 0
M  V30 52 H 41.556564 25.632245 67.658765 0
M  V30 53 H 39.852204 28.175375 52.723535 0
M  V30 54 H 39.063688 29.188659 51.511960 0
M  V30 55 H 40.523776 29.756547 52.316099 0
M  V30 56 H 41.467385 28.745843 60.313331 0
M  V30 57 H 41.352115 28.445251 62.045670 0
M  V30 58 H 39.903260 28.376062 61.033507 0
M  V30 59 H 39.412529 29.661471 62.919276 0
M  V30 60 H 43.112859 29.323476 66.406861 0
M  V30 61 H 38.215974 31.464850 55.528483 0
M  V30 62 H 39.826423 30.986667 55.988032 0
M  V30 63 H 43.369440 27.615765 71.807656 0
M  V30 64 H 37.843649 27.331332 53.100975 0
M  V30 65 H 36.667392 27.287981 54.405345 0
M  V30 66 H 36.267386 28.021306 52.842240 0
M  V30 67 H 39.707053 31.509318 64.403433 0
M  V30 68 H 41.731856 27.740336 70.268410 0
M  V30 69 H 41.096316 28.022681 67.889710 0
M  V30 70 H 42.009276 32.696671 62.792244 0
M  V30 71 H 40.267382 29.699137 57.890515 0
M  V30 72 H 39.057781 29.388997 59.096466 0
M  V30 73 H 37.267793 29.897276 57.274706 0
M  V30 74 H 37.467433 32.344599 57.569824 0
M  V30 75 H 39.078804 32.184370 58.118480 0
M  V30 76 H 37.980776 31.917065 62.623121 0
M  V30 77 H 37.709078 30.421431 61.814559 0
M  V30 78 H 38.885081 27.247868 58.396196 0
M  V30 79 H 43.297363 28.980154 68.715423 0
M  V30 80 H 44.081613 27.484686 68.302152 0
M  V30 81 H 39.365370 26.055339 53.789249 0
M  V30 82 H 40.887493 26.002601 54.659907 0
M  V30 83 H 39.867403 24.560928 54.541205 0
M  V30 84 H 36.667404 29.904638 54.298370 0
M  V30 85 H 40.640797 34.529729 60.965337 0
M  V30 86 H 40.983278 32.821274 60.895681 0
M  V30 87 H 37.160106 30.542243 59.709558 0
M  V30 88 H 36.722062 32.221677 59.712070 0
M  V30 89 H 41.979270 25.362715 69.529964 0
M  V30 90 H 43.716496 25.430298 69.826628 0
M  V30 91 H 42.576042 25.528458 71.164466 0
M  V30 92 H 38.667576 30.946837 53.340692 0
M  V30 93 H 39.453870 31.404424 60.211728 0
M  V30 END ATOM
M  V30 BEGIN BOND
M  V30 1 1 9 4
M  V30 2 1 11 6
M  V30 3 1 13 2
M  V30 4 1 14 2
M  V30 5 1 15 7
M  V30 6 1 15 10
M  V30 7 3 16 11
M  V30 8 1 18 3
M  V30 9 1 21 14
M  V30 10 1 22 19
M  V30 11 1 24 8
M  V30 12 1 24 15
M  V30 13 1 26 17
M  V30 14 1 26 21
M  V30 15 1 27 1
M  V30 16 1 28 1
M  V30 17 1 28 5
M  V30 18 2 28 23
M  V30 19 1 30 18
M  V30 20 1 30 29
M  V30 21 1 31 30
M  V30 22 1 32 9
M  V30 23 1 32 14
M  V30 24 2 33 27
M  V30 25 1 33 29
M  V30 26 1 34 22
M  V30 27 1 34 24
M  V30 28 1 35 1
M  V30 29 1 36 3
M  V30 30 1 36 20
M  V30 31 1 37 4
M  V30 32 1 37 17
M  V30 33 1 38 6
M  V30 34 1 38 26
M  V30 35 1 39 9
M  V30 36 1 39 31
M  V30 37 2 40 7
M  V30 38 1 7 41 CFG=3
M  V30 39 1 41 21
M  V30 40 1 42 22
M  V30 41 1 43 3
M  V30 42 1 43 12
M  V30 43 1 43 36
M  V30 44 1 44 8
M  V30 45 1 44 10
M  V30 46 2 44 25
M  V30 47 2 45 41
M  V30 48 2 46 38
M  V30 49 1 3 47 CFG=1
M  V30 50 1 47 27
M  V30 51 1 1 48 CFG=1
M  V30 52 1 49 4
M  V30 53 1 50 4
M  V30 54 1 51 6
M  V30 55 1 52 8
M  V30 56 1 53 12
M  V30 57 1 54 12
M  V30 58 1 55 12
M  V30 59 1 56 13
M  V30 60 1 57 13
M  V30 61 1 58 13
M  V30 62 1 14 59 CFG=1
M  V30 63 1 15 60 CFG=1
M  V30 64 1 61 18
M  V30 65 1 62 18
M  V30 66 1 63 19
M  V30 67 1 64 20
M  V30 68 1 65 20
M  V30 69 1 66 20
M  V30 70 1 21 67 CFG=1
M  V30 71 1 22 68 CFG=1
M  V30 72 1 24 69 CFG=1
M  V30 73 1 26 70 CFG=3
M  V30 74 1 71 29
M  V30 75 1 72 29
M  V30 76 1 30 73 CFG=3
M  V30 77 1 74 31
M  V30 78 1 75 31
M  V30 79 1 76 32
M  V30 80 1 77 32
M  V30 81 1 78 33
M  V30 82 1 79 34
M  V30 83 1 80 34
M  V30 84 1 81 35
M  V30 85 1 82 35
M  V30 86 1 83 35
M  V30 87 1 36 84 CFG=1
M  V30 88 1 85 37
M  V30 89 1 86 37
M  V30 90 1 87 39
M  V30 91 1 88 39
M  V30 92 1 89 42
M  V30 93 1 90 42
M  V30 94 1 91 42
M  V30 95 1 43 92 CFG=1
M  V30 96 1 9 93 CFG=3
M  V30 END BOND
M  V30 END CTAB
M  END
>  <i_epik_Tot_Q>  (1) 
0

>  <i_epik_Tot_abs_Q>  (1) 
2

>  <i_i_glide_confnum>  (1) 
3155

>  <i_i_glide_lignum>  (1) 
25

>  <i_i_glide_posenum>  (1) 
168

>  <i_i_glide_rotatable_bonds>  (1) 
14

>  <i_lp_mmshare_version>  (1) 
72125

>  <i_m_source_file_index>  (1) 
8

>  <i_f3d_flags>  (1) 
0

>  <num_sample>  (1) 
50

>  <b_lp_Chiralities_Consistent>  (1) 
1

>  <r_epik_Charging_Adjusted_Penalty>  (1) 
2.2678334573304797

>  <r_epik_Ionization_Penalty>  (1) 
1.1498882506810455

>  <r_epik_Ionization_Penalty_Charging>  (1) 
1.1031410554290029

>  <r_epik_Ionization_Penalty_Neutral>  (1) 
0.046747195252042517

>  <r_epik_State_Penalty>  (1) 
1.164692401901477

>  <r_glide_ring_energy>  (1) 
0

>  <r_i_docking_score>  (1) 
-6.1986137481801986

>  <r_i_glide_ecoul>  (1) 
-4.922225430017364

>  <r_i_glide_eff_state_penalty>  (1) 
1.164692401901477

>  <r_i_glide_einternal>  (1) 
16.924906095758942

>  <r_i_glide_emodel>  (1) 
-85.902166860770848

>  <r_i_glide_emodel_strain>  (1) 
2.6353777915604724

>  <r_i_glide_energy>  (1) 
-66.919272185756824

>  <r_i_glide_erotb>  (1) 
0.2643022598508753

>  <r_i_glide_esite>  (1) 
0

>  <r_i_glide_evdw>  (1) 
-61.997046755739461

>  <r_i_glide_gscore>  (1) 
-7.3633061500816757

>  <r_i_glide_gscore_strain>  (1) 
0

>  <r_i_glide_hbond>  (1) 
-0.29032667153225028

>  <r_i_glide_ligand_efficiency>  (1) 
-0.13188539889745104

>  <r_i_glide_ligand_efficiency_ln>  (1) 
-1.2780257957499479

>  <r_i_glide_ligand_efficiency_sa>  (1) 
-0.47595146713061642

>  <r_i_glide_lipo>  (1) 
-3.0526280953854101

>  <r_i_glide_metal>  (1) 
-0

>  <r_i_glide_rewards>  (1) 
-0.44646749072531189

>  <r_lp_Energy>  (1) 
33.837415

>  <s_epik_Chemistry_Notes>  (1) 
This compound contains an acetal/aminal-like group ( X-CH(R)-Y where X, Y are N, S, or O) that may be acid/base labile, releasing an aldehyde.

>  <s_epik_cmdline>  (1) 
J2VwaWtfcHl0aG9uJywgJy1waHQnLCAnMS4wJywgJy1waCcsICc3LjQnLCAnLXRuJywgJzgnLCAnLW1hJywgJzUwMCcsICctaW1hZScsICc8aW5maWxlLm1hZT4nLCAnLW9tYWUnLCAnPG91dGZpbGUubWFlPic=

>  <s_epik_input>  (1) 
W09IXUMoPU8pW0NAQEhdKFtDSDNdKUMoTzEpPVtDSF1bQ0gyXVtDQEhdKFtDSDJdW0NAXTEyW0NASF0oW0NIM10pW0NAQEhdMltDSDNdKVtDSDJdW0NIMl1OM1tDSDJdW0NIMl1PW0NAQEhdKEMoPU8pW05IXUMjTilbQ0BASF0oW0NAQEhdKFtDSDJdMylPW0NIM10pQyg9TylTKD1PKVtDQEBIXTRTQyg9TylbTkhdW0NASF00W0NIMl1bQ0BIXShbT0hdKVtDSDNd

>  <s_glide_docking_method>  (1) 
confgen

>  <s_i_glide_gridfile>  (1) 
gpcr_5ht2c_6bqh_protein_autoprepared_prepared

>  <s_lp_Force_Field>  (1) 
S-OPLS

>  <s_lp_Variant>  (1) 
DiffSBDD_7_num_sample_50-3

>  <s_m_source_file>  (1) 
generated__ligand_DiffSBDD_2026-05-06_prepared.sdf

>  <GenAI_Model>  (1) 
DiffSBDD

>  <Protein>  (1) 
GPCR_5HT2C

$$$$
DiffSBDD_34_num_sample_50
     RDKit          3D

  0  0  0  0  0  0  0  0  0  0999 V3000
M  V30 BEGIN CTAB
M  V30 COUNTS 50 51 0 0 1
M  V30 BEGIN ATOM
M  V30 1 C 38.866250 34.322641 61.535953 0 CFG=2
M  V30 2 C 38.474570 28.441576 54.756638 0
M  V30 3 C 39.907060 36.572608 62.095691 0
M  V30 4 C 39.714324 29.730672 62.068984 0
M  V30 5 C 38.292989 30.802571 57.640433 0
M  V30 6 C 38.015368 27.818141 52.307536 0
M  V30 7 C 40.006370 35.111189 61.959752 0
M  V30 8 C 39.795701 33.062526 61.498205 0
M  V30 9 C 41.067422 34.446858 62.278507 0
M  V30 10 C 38.228756 31.993655 59.876122 0
M  V30 11 C 37.924832 34.391422 60.382049 0
M  V30 12 C 39.471104 27.547271 51.892707 0
M  V30 13 C 40.267221 28.791034 51.453303 0
M  V30 14 C 37.601114 33.311081 59.658890 0
M  V30 15 C 37.834269 28.851872 53.428466 0
M  V30 16 O 39.867480 29.219374 50.167678 0
M  V30 17 O 38.477513 29.577996 55.600890 0
M  V30 18 O 37.867941 28.424191 57.471929 0
M  V30 19 O 38.882436 37.208277 61.853485 0
M  V30 20 C 39.295824 31.868517 60.740562 0
M  V30 21 N 40.961115 33.085082 62.104169 0
M  V30 22 C 40.129924 30.586653 60.867460 0
M  V30 23 C 37.737171 30.787935 59.074290 0 CFG=1
M  V30 24 O 36.319120 30.750671 59.053549 0
M  V30 25 C 38.185278 29.469437 56.900338 0
M  V30 26 H 38.267404 34.224772 62.416800 0
M  V30 27 H 37.930089 27.597731 55.182595 0
M  V30 28 H 39.507553 28.126916 54.616637 0
M  V30 29 H 40.818974 37.062550 62.437839 0
M  V30 30 H 40.305716 28.816322 62.121778 0
M  V30 31 H 39.851980 30.269178 63.007181 0
M  V30 32 H 38.667438 29.444879 62.005479 0
M  V30 33 H 39.352060 31.056731 57.666561 0
M  V30 34 H 37.804356 31.580985 57.052646 0
M  V30 35 H 37.467254 28.151722 51.431798 0
M  V30 36 H 37.552491 26.880108 52.617749 0
M  V30 37 H 41.984950 34.866606 62.653431 0
M  V30 38 H 37.453952 35.343091 60.181519 0
M  V30 39 H 39.477586 26.809218 51.088695 0
M  V30 40 H 39.989038 27.069410 52.723002 0
M  V30 41 H 41.328995 28.549908 51.431012 0
M  V30 42 H 40.178313 29.614370 52.160274 0
M  V30 43 H 36.872773 33.415848 58.866371 0
M  V30 44 H 38.229930 29.816895 53.114883 0
M  V30 45 H 36.769881 29.013460 53.593377 0
M  V30 46 H 38.940293 29.409416 50.162252 0
M  V30 47 H 40.100291 29.995896 59.953187 0
M  V30 48 H 41.183512 30.838362 60.964611 0
M  V30 49 H 38.008845 29.868521 59.589662 0
M  V30 50 H 35.984364 31.221565 58.285700 0
M  V30 END ATOM
M  V30 BEGIN BOND
M  V30 1 1 7 1
M  V30 2 1 7 3
M  V30 3 1 8 1
M  V30 4 2 9 7
M  V30 5 1 11 1
M  V30 6 1 12 6
M  V30 7 1 13 12
M  V30 8 1 14 10
M  V30 9 2 14 11
M  V30 10 1 15 2
M  V30 11 1 15 6
M  V30 12 1 16 13
M  V30 13 1 17 2
M  V30 14 2 19 3
M  V30 15 1 20 8
M  V30 16 2 20 10
M  V30 17 2 21 8
M  V30 18 1 21 9
M  V30 19 1 22 4
M  V30 20 1 22 20
M  V30 21 1 23 5
M  V30 22 1 23 10
M  V30 23 1 24 23
M  V30 24 1 25 5
M  V30 25 1 25 17
M  V30 26 2 25 18
M  V30 27 1 1 26 CFG=1
M  V30 28 1 27 2
M  V30 29 1 28 2
M  V30 30 1 29 3
M  V30 31 1 30 4
M  V30 32 1 31 4
M  V30 33 1 32 4
M  V30 34 1 33 5
M  V30 35 1 34 5
M  V30 36 1 35 6
M  V30 37 1 36 6
M  V30 38 1 37 9
M  V30 39 1 38 11
M  V30 40 1 39 12
M  V30 41 1 40 12
M  V30 42 1 41 13
M  V30 43 1 42 13
M  V30 44 1 43 14
M  V30 45 1 44 15
M  V30 46 1 45 15
M  V30 47 1 46 16
M  V30 48 1 47 22
M  V30 49 1 48 22
M  V30 50 1 23 49 CFG=1
M  V30 51 1 50 24
M  V30 END BOND
M  V30 END CTAB
M  END
>  <i_epik_Tot_Q>  (1) 
0

>  <i_epik_Tot_abs_Q>  (1) 
0

>  <i_i_glide_confnum>  (1) 
1092

>  <i_i_glide_lignum>  (1) 
88

>  <i_i_glide_posenum>  (1) 
357

>  <i_i_glide_rotatable_bonds>  (1) 
13

>  <i_lp_mmshare_version>  (1) 
72125

>  <i_m_source_file_index>  (1) 
35

>  <i_f3d_flags>  (1) 
0

>  <num_sample>  (1) 
50

>  <b_lp_Chiralities_Consistent>  (1) 
1

>  <r_epik_Charging_Adjusted_Penalty>  (1) 
0.012701380709717016

>  <r_epik_Ionization_Penalty>  (1) 
0.012701608846652416

>  <r_epik_Ionization_Penalty_Charging>  (1) 
0

>  <r_epik_Ionization_Penalty_Neutral>  (1) 
0.012701608846652416

>  <r_epik_State_Penalty>  (1) 
0.012701380709717016

>  <r_glide_ring_energy>  (1) 
0

>  <r_i_docking_score>  (1) 
-6.1781480155862658

>  <r_i_glide_ecoul>  (1) 
-6.9341050525261219

>  <r_i_glide_eff_state_penalty>  (1) 
0.012701380709717016

>  <r_i_glide_einternal>  (1) 
4.3461595493997294

>  <r_i_glide_emodel>  (1) 
-59.067181585370122

>  <r_i_glide_emodel_strain>  (1) 
0.23387291737961391

>  <r_i_glide_energy>  (1) 
-43.574067149767259

>  <r_i_glide_erotb>  (1) 
1.4185672597553849

>  <r_i_glide_esite>  (1) 
-0.030562775131405536

>  <r_i_glide_evdw>  (1) 
-36.639962097241138

>  <r_i_glide_gscore>  (1) 
-6.1908493962959827

>  <r_i_glide_gscore_strain>  (1) 
0

>  <r_i_glide_hbond>  (1) 
-0.31618424559260888

>  <r_i_glide_ligand_efficiency>  (1) 
-0.24712592062345062

>  <r_i_glide_ligand_efficiency_ln>  (1) 
-1.4644062238497557

>  <r_i_glide_ligand_efficiency_sa>  (1) 
-0.72260057547515444

>  <r_i_glide_lipo>  (1) 
-2.4038679279312585

>  <r_i_glide_metal>  (1) 
-0

>  <r_i_glide_rewards>  (1) 
-1.9866878446551191

>  <r_lp_Energy>  (1) 
18.317083999999998

>  <s_epik_Chemistry_Notes>  (1) 
This compound has an ester and may undergo hydrolysis at high or low pH. This compound has an imine and may undergo hydrolysis.

>  <s_epik_cmdline>  (1) 
J2VwaWtfcHl0aG9uJywgJy1waHQnLCAnMS4wJywgJy1waCcsICc3LjQnLCAnLXRuJywgJzgnLCAnLW1hJywgJzUwMCcsICctaW1hZScsICc8aW5maWxlLm1hZT4nLCAnLW9tYWUnLCAnPG91dGZpbGUubWFlPic=

>  <s_epik_input>  (1) 
Tz1bQ0hdQzE9W0NIXU49QyhbQ0BIXTEyKUMoW0NIMl1bQ0gzXSk9QyhbQ0hdPVtDSF0yKVtDQEBIXShbT0hdKVtDSDJdQyg9TylPW0NIMl1bQ0gyXVtDSDJdW0NIMl1bQ0gyXVtPSF0=

>  <s_glide_docking_method>  (1) 
confgen

>  <s_i_glide_gridfile>  (1) 
gpcr_5ht2c_6bqh_protein_autoprepared_prepared

>  <s_lp_Force_Field>  (1) 
S-OPLS

>  <s_lp_Variant>  (1) 
DiffSBDD_34_num_sample_50-2

>  <s_m_source_file>  (1) 
generated__ligand_DiffSBDD_2026-05-06_prepared.sdf

>  <GenAI_Model>  (1) 
DiffSBDD

>  <Protein>  (1) 
GPCR_5HT2C

$$$$
DiffSBDD_23_num_sample_50
     RDKit          3D

  0  0  0  0  0  0  0  0  0  0999 V3000
M  V30 BEGIN CTAB
M  V30 COUNTS 60 64 0 0 1
M  V30 BEGIN ATOM
M  V30 1 C 42.221091 34.263017 65.013683 0
M  V30 2 C 39.327481 27.710824 52.011406 0 CFG=1
M  V30 3 C 40.041697 31.174602 61.949681 0
M  V30 4 C 39.742141 28.113435 59.070768 0 CFG=1
M  V30 5 S 37.782751 29.944606 55.173801 0
M  V30 6 C 40.592814 31.482550 63.197625 0
M  V30 7 C 41.289462 33.086666 64.987262 0
M  V30 8 N 39.067404 31.621432 53.727777 0
M  V30 9 C 38.672718 29.354656 53.787949 0
M  V30 10 C 40.036730 30.280601 51.837481 0
M  V30 11 S 39.663757 26.523822 56.824348 0
M  V30 12 O 41.067403 26.820775 56.528386 0
M  V30 13 C 39.667468 33.538834 61.515920 0
M  V30 14 C 38.693589 27.915097 53.417690 0 CFG=2
M  V30 15 N 39.090711 27.877403 57.759674 0
M  V30 16 C 39.574319 32.198580 61.110785 0
M  V30 17 C 40.691156 32.821263 63.629176 0
M  V30 18 C 37.205339 29.297979 58.574489 0
M  V30 19 C 41.346932 35.452855 65.296987 0
M  V30 20 O 41.298796 35.923475 66.431312 0
M  V30 21 Cl 41.467614 28.421118 58.779489 0
M  V30 22 C 40.267868 35.368535 63.120345 0
M  V30 23 S 39.947820 29.485577 61.439966 0
M  V30 24 N 38.760722 26.679332 55.494050 0 CHG=-1
M  V30 25 O 39.334111 25.322792 57.605875 0
M  V30 26 N 40.667394 35.934340 64.201690 0
M  V30 27 C 37.638148 28.012653 57.853078 0
M  V30 28 C 39.273449 30.384430 53.113472 0
M  V30 29 C 38.300584 31.543217 54.800179 0
M  V30 30 O 37.792604 29.353041 59.853432 0
M  V30 31 C 40.223229 33.885658 62.771118 0
M  V30 32 N 39.457144 27.073635 54.319579 0
M  V30 33 N 38.267517 27.468755 51.053530 0 CHG=1
M  V30 34 C 39.201822 29.358375 59.792424 0 CFG=2
M  V30 35 C 40.289756 28.807657 51.453559 0
M  V30 36 H 42.807646 34.370475 64.102168 0
M  V30 37 H 42.926703 34.155471 65.838447 0
M  V30 38 H 39.866838 26.761696 51.995016 0
M  V30 39 H 39.654528 27.221542 59.690168 0
M  V30 40 H 40.945148 30.685057 63.836341 0
M  V30 41 H 41.863460 32.207916 65.285134 0
M  V30 42 H 40.484289 33.154760 65.722836 0
M  V30 43 H 39.467416 30.753102 51.038623 0
M  V30 44 H 40.968405 30.844499 51.871880 0
M  V30 45 H 39.303897 34.316374 60.858846 0
M  V30 46 H 37.670590 27.533258 53.414719 0
M  V30 47 H 39.142230 31.966360 60.154249 0
M  V30 48 H 36.120273 29.319400 58.678451 0
M  V30 49 H 37.482723 30.187642 58.009069 0
M  V30 50 H 39.888583 36.017671 62.327166 0
M  V30 51 H 37.227525 27.092872 58.253475 0
M  V30 52 H 37.222232 28.055586 56.870403 0
M  V30 53 H 38.035687 32.429627 55.359689 0
M  V30 54 H 40.288701 27.565104 54.620430 0
M  V30 55 H 37.769986 28.326188 50.862751 0
M  V30 56 H 38.666329 27.106891 50.199077 0
M  V30 57 H 39.517904 30.207957 59.191987 0
M  V30 58 H 40.411079 28.722980 50.373454 0
M  V30 59 H 41.269581 28.562076 51.853498 0
M  V30 60 H 37.608383 26.790970 51.422993 0
M  V30 END ATOM
M  V30 BEGIN BOND
M  V30 1 2 6 3
M  V30 2 1 7 1
M  V30 3 1 9 5
M  V30 4 2 12 11
M  V30 5 1 14 2
M  V30 6 1 14 9
M  V30 7 1 15 4
M  V30 8 1 15 11
M  V30 9 1 16 3
M  V30 10 2 16 13
M  V30 11 1 17 6
M  V30 12 1 17 7
M  V30 13 1 19 1
M  V30 14 2 20 19
M  V30 15 1 21 4
M  V30 16 1 23 3
M  V30 17 1 24 11
M  V30 18 2 25 11
M  V30 19 1 26 19
M  V30 20 2 26 22
M  V30 21 1 27 15
M  V30 22 1 27 18
M  V30 23 1 28 8
M  V30 24 2 28 9
M  V30 25 1 28 10
M  V30 26 1 29 5
M  V30 27 2 29 8
M  V30 28 1 30 18
M  V30 29 1 31 13
M  V30 30 2 31 17
M  V30 31 1 31 22
M  V30 32 1 32 14
M  V30 33 1 32 24
M  V30 34 1 33 2
M  V30 35 1 34 4
M  V30 36 1 34 23
M  V30 37 1 34 30
M  V30 38 1 35 2
M  V30 39 1 35 10
M  V30 40 1 36 1
M  V30 41 1 37 1
M  V30 42 1 2 38 CFG=1
M  V30 43 1 4 39 CFG=1
M  V30 44 1 40 6
M  V30 45 1 41 7
M  V30 46 1 42 7
M  V30 47 1 43 10
M  V30 48 1 44 10
M  V30 49 1 45 13
M  V30 50 1 14 46 CFG=3
M  V30 51 1 47 16
M  V30 52 1 48 18
M  V30 53 1 49 18
M  V30 54 1 50 22
M  V30 55 1 51 27
M  V30 56 1 52 27
M  V30 57 1 53 29
M  V30 58 1 54 32
M  V30 59 1 55 33
M  V30 60 1 56 33
M  V30 61 1 34 57 CFG=3
M  V30 62 1 58 35
M  V30 63 1 59 35
M  V30 64 1 60 33
M  V30 END BOND
M  V30 END CTAB
M  END
>  <i_epik_Tot_Q>  (1) 
0

>  <i_epik_Tot_abs_Q>  (1) 
2

>  <i_i_glide_confnum>  (1) 
682

>  <i_i_glide_lignum>  (1) 
64

>  <i_i_glide_posenum>  (1) 
38

>  <i_i_glide_rotatable_bonds>  (1) 
6

>  <i_lp_mmshare_version>  (1) 
72125

>  <i_m_source_file_index>  (1) 
24

>  <i_f3d_flags>  (1) 
0

>  <num_sample>  (1) 
50

>  <b_lp_Chiralities_Consistent>  (1) 
1

>  <r_epik_Charging_Adjusted_Penalty>  (1) 
2.2272092532468064

>  <r_epik_Ionization_Penalty>  (1) 
1.0462412004884125

>  <r_epik_Ionization_Penalty_Charging>  (1) 
1.0439143913358477

>  <r_epik_Ionization_Penalty_Neutral>  (1) 
0.002326809152564684

>  <r_epik_State_Penalty>  (1) 
1.1832948619109587

>  <r_glide_ring_energy>  (1) 
2.0047208920200128

>  <r_i_docking_score>  (1) 
-6.1764947161981993

>  <r_i_glide_ecoul>  (1) 
-1.1045532642114102

>  <r_i_glide_eff_state_penalty>  (1) 
1.1832948619109587

>  <r_i_glide_einternal>  (1) 
7.1715353702924398

>  <r_i_glide_emodel>  (1) 
-66.526097478121827

>  <r_i_glide_emodel_strain>  (1) 
3.442625697314071

>  <r_i_glide_energy>  (1) 
-48.90035865209429

>  <r_i_glide_erotb>  (1) 
0.32509228849270932

>  <r_i_glide_esite>  (1) 
-0.0034258284584764501

>  <r_i_glide_evdw>  (1) 
-47.795805387882879

>  <r_i_glide_gscore>  (1) 
-7.359789578109158

>  <r_i_glide_gscore_strain>  (1) 
0

>  <r_i_glide_hbond>  (1) 
0

>  <r_i_glide_ligand_efficiency>  (1) 
-0.17647127760566284

>  <r_i_glide_ligand_efficiency_ln>  (1) 
-1.3558776701200606

>  <r_i_glide_ligand_efficiency_sa>  (1) 
-0.57724925089182189

>  <r_i_glide_lipo>  (1) 
-3.9072012542530317

>  <r_i_glide_metal>  (1) 
-0

>  <r_i_glide_rewards>  (1) 
-1.2187815248645033

>  <r_lp_Energy>  (1) 
43.619828999999996

>  <s_epik_Chemistry_Notes>  (1) 
This compound has an imine and may undergo hydrolysis. This compound contains an acetal/aminal-like group ( X-CH(R)-Y where X, Y are N, S, or O) that may be acid/base labile, releasing an aldehyde.

>  <s_epik_cmdline>  (1) 
J2VwaWtfcHl0aG9uJywgJy1waHQnLCAnMS4wJywgJy1waCcsICc3LjQnLCAnLXRuJywgJzgnLCAnLW1hJywgJzUwMCcsICctaW1hZScsICc8aW5maWxlLm1hZT4nLCAnLW9tYWUnLCAnPG91dGZpbGUubWFlPic=

>  <s_epik_input>  (1) 
W0NIMl0xW0NIMl1DKD1PKU49W0NIXWMoYzEyKVtjSF1bY0hdYyhbY0hdMilTW0NAQEhdM09bQ0gyXVtDSDJdTihbQ0BIXTNDbClTKD1PKSg9TylbTkhdW05IXVtDQEBIXTRbQ0BASF0oW05IMl0pW0NIMl1bQ0gyXWMoYzQ1KW5bY0hdczU=

>  <s_glide_docking_method>  (1) 
confgen

>  <s_i_glide_gridfile>  (1) 
gpcr_5ht2c_6bqh_protein_autoprepared_prepared

>  <s_lp_Force_Field>  (1) 
S-OPLS

>  <s_lp_Variant>  (1) 
DiffSBDD_23_num_sample_50-3

>  <s_m_source_file>  (1) 
generated__ligand_DiffSBDD_2026-05-06_prepared.sdf

>  <GenAI_Model>  (1) 
DiffSBDD

>  <Protein>  (1) 
GPCR_5HT2C

$$$$
DiffSBDD_20_num_sample_50
     RDKit          3D

  0  0  0  0  0  0  0  0  0  0999 V3000
M  V30 BEGIN CTAB
M  V30 COUNTS 77 81 0 0 1
M  V30 BEGIN ATOM
M  V30 1 C 36.823426 36.895453 62.501674 0
M  V30 2 C 38.478410 36.821446 64.265241 0
M  V30 3 C 36.313544 34.606959 60.131894 0 CFG=2
M  V30 4 C 37.589367 30.519732 56.041648 0
M  V30 5 C 39.360435 36.136720 63.415671 0
M  V30 6 C 37.685247 30.971745 60.385645 0
M  V30 7 C 41.106687 34.698035 61.759414 0
M  V30 8 C 38.747548 30.876488 59.237515 0 CFG=1
M  V30 9 C 38.634894 28.286546 58.817591 0
M  V30 10 C 38.561795 29.708945 58.166425 0 CFG=2
M  V30 11 C 39.017117 32.330420 58.705648 0
M  V30 12 F 39.460739 28.232265 52.842858 0
M  V30 13 C 37.799385 33.249379 58.619152 0
M  V30 14 C 40.615750 35.740111 63.896834 0
M  V30 15 O 35.906325 32.179123 61.453546 0
M  V30 16 C 39.627757 29.721624 57.041780 0
M  V30 17 C 36.514040 37.167296 59.602883 0
M  V30 18 C 36.563245 32.036686 60.219559 0 CFG=1
M  V30 19 C 37.195808 35.914089 60.189849 0 CFG=1
M  V30 20 C 39.860315 35.101935 61.257154 0
M  V30 21 C 38.247730 24.599074 57.411835 0
M  V30 22 F 37.414281 28.820954 53.106390 0
M  V30 23 C 38.701195 25.713281 58.361786 0
M  V30 24 O 38.753610 28.716202 54.968743 0
M  V30 25 C 37.202601 37.163767 63.810744 0
M  V30 26 C 37.682740 36.220321 61.622554 0
M  V30 27 C 38.266561 27.098563 57.877685 0
M  V30 28 C 39.049132 30.471983 53.430966 0
M  V30 29 C 39.778522 30.767468 54.710939 0
M  V30 30 C 38.648089 28.996003 53.570875 0
M  V30 31 N 37.162314 33.375070 59.957076 0 CFG=2 CHG=1
M  V30 32 C 38.951729 29.931273 55.685896 0 CFG=1
M  V30 33 C 41.479694 35.015975 63.075156 0
M  V30 34 C 37.260548 29.941943 57.411746 0
M  V30 35 O 35.501080 34.606069 59.106066 0 CHG=-1
M  V30 36 C 38.969303 35.818914 62.085261 0
M  V30 37 H 35.867384 37.198430 62.174818 0
M  V30 38 H 38.767928 37.044263 65.283531 0
M  V30 39 H 35.874330 34.574053 61.128210 0
M  V30 40 H 36.806785 30.304072 55.312780 0
M  V30 41 H 37.661655 31.604352 56.108939 0
M  V30 42 H 38.228604 31.207464 61.302776 0
M  V30 43 H 37.210873 30.019862 60.581849 0
M  V30 44 H 41.783229 34.143061 61.135014 0
M  V30 45 H 39.666897 30.581771 59.745780 0
M  V30 46 H 39.651038 28.135175 59.186190 0
M  V30 47 H 38.013714 28.238696 59.704413 0
M  V30 48 H 39.723190 32.825345 59.375465 0
M  V30 49 H 39.467228 32.358217 57.718918 0
M  V30 50 H 38.107589 34.202666 58.211955 0
M  V30 51 H 37.077053 32.879324 57.893150 0
M  V30 52 H 40.909174 35.980449 64.909154 0
M  V30 53 H 35.035429 32.503955 61.264632 0
M  V30 54 H 40.266729 30.560638 57.194217 0
M  V30 55 H 40.292279 28.856430 57.029248 0
M  V30 56 H 37.181043 38.023702 59.690385 0
M  V30 57 H 36.288314 37.035018 58.547690 0
M  V30 58 H 35.576473 37.421027 60.088916 0
M  V30 59 H 35.810613 31.782043 59.473840 0
M  V30 60 H 38.030817 35.835474 59.522255 0
M  V30 61 H 39.593975 34.848693 60.250273 0
M  V30 62 H 38.524044 23.621433 57.805906 0
M  V30 63 H 37.165193 24.608608 57.283064 0
M  V30 64 H 38.704002 24.705933 56.426937 0
M  V30 65 H 39.784596 25.677913 58.475315 0
M  V30 66 H 38.267557 25.521894 59.336905 0
M  V30 67 H 36.501678 37.621362 64.470122 0
M  V30 68 H 37.189065 27.060492 57.723288 0
M  V30 69 H 38.705369 27.234637 56.894078 0
M  V30 70 H 39.622387 30.697365 52.531218 0
M  V30 71 H 38.161908 31.101761 53.453358 0
M  V30 72 H 39.798139 31.829580 54.959520 0
M  V30 73 H 40.806289 30.409570 54.655802 0
M  V30 74 H 42.440029 34.701093 63.453574 0
M  V30 75 H 36.667353 29.047377 57.320736 0
M  V30 76 H 36.667349 30.627989 57.970467 0
M  V30 77 H 37.894399 33.482706 60.640787 0
M  V30 END ATOM
M  V30 BEGIN BOND
M  V30 1 1 5 2
M  V30 2 1 8 6
M  V30 3 1 10 8
M  V30 4 1 10 9 CFG=1
M  V30 5 1 11 8
M  V30 6 1 13 11
M  V30 7 2 14 5
M  V30 8 1 16 10
M  V30 9 1 18 6
M  V30 10 1 18 15
M  V30 11 1 19 3
M  V30 12 1 19 17
M  V30 13 1 20 7
M  V30 14 1 23 21
M  V30 15 1 25 1
M  V30 16 2 25 2
M  V30 17 2 26 1
M  V30 18 1 26 19
M  V30 19 1 27 9
M  V30 20 1 27 23
M  V30 21 1 29 28
M  V30 22 1 30 12
M  V30 23 1 30 22
M  V30 24 1 30 24
M  V30 25 1 30 28
M  V30 26 1 31 3
M  V30 27 1 31 13
M  V30 28 1 31 18
M  V30 29 1 32 4
M  V30 30 1 32 16
M  V30 31 1 32 24 CFG=3
M  V30 32 1 32 29
M  V30 33 2 33 7
M  V30 34 1 33 14
M  V30 35 1 34 4
M  V30 36 1 34 10
M  V30 37 1 35 3
M  V30 38 1 36 5
M  V30 39 2 36 20
M  V30 40 1 36 26
M  V30 41 1 37 1
M  V30 42 1 38 2
M  V30 43 1 3 39 CFG=1
M  V30 44 1 40 4
M  V30 45 1 41 4
M  V30 46 1 42 6
M  V30 47 1 43 6
M  V30 48 1 44 7
M  V30 49 1 8 45 CFG=1
M  V30 50 1 46 9
M  V30 51 1 47 9
M  V30 52 1 48 11
M  V30 53 1 49 11
M  V30 54 1 50 13
M  V30 55 1 51 13
M  V30 56 1 52 14
M  V30 57 1 53 15
M  V30 58 1 54 16
M  V30 59 1 55 16
M  V30 60 1 56 17
M  V30 61 1 57 17
M  V30 62 1 58 17
M  V30 63 1 18 59 CFG=3
M  V30 64 1 19 60 CFG=3
M  V30 65 1 61 20
M  V30 66 1 62 21
M  V30 67 1 63 21
M  V30 68 1 64 21
M  V30 69 1 65 23
M  V30 70 1 66 23
M  V30 71 1 67 25
M  V30 72 1 68 27
M  V30 73 1 69 27
M  V30 74 1 70 28
M  V30 75 1 71 28
M  V30 76 1 72 29
M  V30 77 1 73 29
M  V30 78 1 74 33
M  V30 79 1 75 34
M  V30 80 1 76 34
M  V30 81 1 31 77 CFG=1
M  V30 END BOND
M  V30 END CTAB
M  END
>  <i_epik_Tot_Q>  (1) 
0

>  <i_epik_Tot_abs_Q>  (1) 
2

>  <i_i_glide_confnum>  (1) 
536

>  <i_i_glide_lignum>  (1) 
57

>  <i_i_glide_posenum>  (1) 
294

>  <i_i_glide_rotatable_bonds>  (1) 
8

>  <i_lp_mmshare_version>  (1) 
72125

>  <i_m_source_file_index>  (1) 
21

>  <i_f3d_flags>  (1) 
0

>  <num_sample>  (1) 
50

>  <b_lp_Chiralities_Consistent>  (1) 
1

>  <r_epik_Charging_Adjusted_Penalty>  (1) 
0.70686764658740575

>  <r_epik_Ionization_Penalty>  (1) 
0.13730248461042968

>  <r_epik_Ionization_Penalty_Charging>  (1) 
0.016711854413244867

>  <r_epik_Ionization_Penalty_Neutral>  (1) 
0.12059063019718481

>  <r_epik_State_Penalty>  (1) 
0.6901557921741609

>  <r_glide_ring_energy>  (1) 
0

>  <r_i_docking_score>  (1) 
-6.1619055646004437

>  <r_i_glide_ecoul>  (1) 
-1.3819902914915552

>  <r_i_glide_eff_state_penalty>  (1) 
0.6901557921741609

>  <r_i_glide_einternal>  (1) 
15.379576962572102

>  <r_i_glide_emodel>  (1) 
-33.616671144444389

>  <r_i_glide_emodel_strain>  (1) 
3.4964182469030476

>  <r_i_glide_energy>  (1) 
-27.301440869511364

>  <r_i_glide_erotb>  (1) 
0.48702584280874928

>  <r_i_glide_esite>  (1) 
-0.080413726628535687

>  <r_i_glide_evdw>  (1) 
-25.919450578019809

>  <r_i_glide_gscore>  (1) 
-6.8520613567746045

>  <r_i_glide_gscore_strain>  (1) 
0

>  <r_i_glide_hbond>  (1) 
-0.20435488571403021

>  <r_i_glide_ligand_efficiency>  (1) 
-0.17116404346112343

>  <r_i_glide_ligand_efficiency_ln>  (1) 
-1.3443613187460701

>  <r_i_glide_ligand_efficiency_sa>  (1) 
-0.56517121913526769

>  <r_i_glide_lipo>  (1) 
-4.0188870354863502

>  <r_i_glide_metal>  (1) 
-0

>  <r_i_glide_rewards>  (1) 
-1.5321604791297125

>  <r_lp_Energy>  (1) 
66.418807999999999

>  <s_epik_Chemistry_Notes>  (1) 
This compound contains an acetal/aminal-like group ( X-CH(R)-Y where X, Y are N, S, or O) that may be acid/base labile, releasing an aldehyde.

>  <s_epik_cmdline>  (1) 
J2VwaWtfcHl0aG9uJywgJy1waHQnLCAnMS4wJywgJy1waCcsICc3LjQnLCAnLXRuJywgJzgnLCAnLW1hJywgJzUwMCcsICctaW1hZScsICc8aW5maWxlLm1hZT4nLCAnLW9tYWUnLCAnPG91dGZpbGUubWFlPic=

>  <s_epik_input>  (1) 
W2NIXTFbY0hdW2NIXVtjSF1jKGMxMiljKFtjSF1bY0hdW2NIXTIpW0NASF0oW0NIM10pW0NAQEhdKFtPSF0pTihbQ0gyXVtDSDJdMylbQ0BIXShbT0hdKVtDSDJdW0NASF0zW0NAQF0oW0NIMl00KShbQ0gyXVtDSDJdW0NIMl1bQ0gzXSlbQ0gyXVtDSDJdW0NAXTQ1T0MoRikoRilbQ0gyXVtDSDJdNQ==

>  <s_glide_docking_method>  (1) 
confgen

>  <s_i_glide_gridfile>  (1) 
gpcr_5ht2c_6bqh_protein_autoprepared_prepared

>  <s_lp_Force_Field>  (1) 
S-OPLS

>  <s_lp_Variant>  (1) 
DiffSBDD_20_num_sample_50-2

>  <s_m_source_file>  (1) 
generated__ligand_DiffSBDD_2026-05-06_prepared.sdf

>  <GenAI_Model>  (1) 
DiffSBDD

>  <Protein>  (1) 
GPCR_5HT2C

$$$$
DiffSBDD_34_num_sample_50
     RDKit          3D

  0  0  0  0  0  0  0  0  0  0999 V3000
M  V30 BEGIN CTAB
M  V30 COUNTS 50 51 0 0 1
M  V30 BEGIN ATOM
M  V30 1 C 38.797874 27.908683 56.147162 0 CFG=1
M  V30 2 C 39.253764 34.771971 61.159826 0
M  V30 3 C 37.866483 26.211186 54.500968 0
M  V30 4 C 38.092313 32.732500 55.571091 0
M  V30 5 C 38.828415 31.201580 60.100950 0
M  V30 6 C 40.803467 36.352994 62.452882 0
M  V30 7 C 38.447751 27.531309 54.786103 0
M  V30 8 C 39.003883 29.378307 55.605893 0
M  V30 9 C 38.708770 28.404032 53.862660 0
M  V30 10 C 38.273511 30.277486 57.812623 0
M  V30 11 C 37.969134 27.866207 57.385730 0
M  V30 12 C 40.190340 36.237115 63.862135 0
M  V30 13 C 40.913551 35.257883 64.803248 0
M  V30 14 C 37.767839 28.939204 58.157402 0
M  V30 15 C 40.692068 35.083063 61.596585 0
M  V30 16 O 42.267257 35.621449 64.956843 0
M  V30 17 O 39.217722 33.548786 60.439782 0
M  V30 18 O 38.501818 32.305863 62.227323 0
M  V30 19 O 37.636076 25.369831 55.368568 0
M  V30 20 C 38.870811 30.500883 56.590643 0
M  V30 21 N 39.236585 29.585419 54.331722 0
M  V30 22 C 39.267939 31.897193 56.084411 0
M  V30 23 C 38.042480 31.426901 58.790564 0 CFG=1
M  V30 24 O 36.667125 31.474349 59.110728 0
M  V30 25 C 38.827098 32.407221 61.043643 0
M  V30 26 H 39.768835 27.470941 56.380155 0
M  V30 27 H 38.577539 34.745837 62.014478 0
M  V30 28 H 38.890463 35.565537 60.506786 0
M  V30 29 H 37.650631 26.023715 53.449627 0
M  V30 30 H 38.441522 33.624311 55.053500 0
M  V30 31 H 37.469151 32.167518 54.877299 0
M  V30 32 H 37.467355 33.069093 56.394251 0
M  V30 33 H 39.863417 30.946306 59.879633 0
M  V30 34 H 38.415766 30.346925 60.636826 0
M  V30 35 H 40.329418 37.179472 61.923005 0
M  V30 36 H 41.854361 36.627765 62.544297 0
M  V30 37 H 38.528953 28.283422 52.803442 0
M  V30 38 H 37.565569 26.906489 57.675294 0
M  V30 39 H 39.138307 35.965633 63.790261 0
M  V30 40 H 40.189664 37.221403 64.324589 0
M  V30 41 H 40.849016 34.232914 64.438685 0
M  V30 42 H 40.440709 35.276018 65.785923 0
M  V30 43 H 37.188759 28.822373 59.060356 0
M  V30 44 H 41.299747 35.221324 60.702690 0
M  V30 45 H 41.119575 34.232460 62.127651 0
M  V30 46 H 42.311138 36.568662 65.053454 0
M  V30 47 H 39.804679 32.446003 56.856321 0
M  V30 48 H 40.003612 31.809428 55.285106 0
M  V30 49 H 38.293078 32.396328 58.372137 0
M  V30 50 H 36.159857 31.621339 58.306632 0
M  V30 END ATOM
M  V30 BEGIN BOND
M  V30 1 1 7 1
M  V30 2 1 7 3
M  V30 3 1 8 1
M  V30 4 2 9 7
M  V30 5 1 11 1
M  V30 6 1 12 6
M  V30 7 1 13 12
M  V30 8 1 14 10
M  V30 9 2 14 11
M  V30 10 1 15 2
M  V30 11 1 15 6
M  V30 12 1 16 13
M  V30 13 1 17 2
M  V30 14 2 19 3
M  V30 15 1 20 8
M  V30 16 2 20 10
M  V30 17 2 21 8
M  V30 18 1 21 9
M  V30 19 1 22 4
M  V30 20 1 22 20
M  V30 21 1 23 5
M  V30 22 1 23 10
M  V30 23 1 24 23
M  V30 24 1 25 5
M  V30 25 1 25 17
M  V30 26 2 25 18
M  V30 27 1 1 26 CFG=1
M  V30 28 1 27 2
M  V30 29 1 28 2
M  V30 30 1 29 3
M  V30 31 1 30 4
M  V30 32 1 31 4
M  V30 33 1 32 4
M  V30 34 1 33 5
M  V30 35 1 34 5
M  V30 36 1 35 6
M  V30 37 1 36 6
M  V30 38 1 37 9
M  V30 39 1 38 11
M  V30 40 1 39 12
M  V30 41 1 40 12
M  V30 42 1 41 13
M  V30 43 1 42 13
M  V30 44 1 43 14
M  V30 45 1 44 15
M  V30 46 1 45 15
M  V30 47 1 46 16
M  V30 48 1 47 22
M  V30 49 1 48 22
M  V30 50 1 23 49 CFG=3
M  V30 51 1 50 24
M  V30 END BOND
M  V30 END CTAB
M  END
>  <i_epik_Tot_Q>  (1) 
0

>  <i_epik_Tot_abs_Q>  (1) 
0

>  <i_i_glide_confnum>  (1) 
272

>  <i_i_glide_lignum>  (1) 
87

>  <i_i_glide_posenum>  (1) 
361

>  <i_i_glide_rotatable_bonds>  (1) 
13

>  <i_lp_mmshare_version>  (1) 
72125

>  <i_m_source_file_index>  (1) 
35

>  <i_f3d_flags>  (1) 
0

>  <num_sample>  (1) 
50

>  <b_lp_Chiralities_Consistent>  (1) 
1

>  <r_epik_Charging_Adjusted_Penalty>  (1) 
0.012701380709717016

>  <r_epik_Ionization_Penalty>  (1) 
0.012701608846652416

>  <r_epik_Ionization_Penalty_Charging>  (1) 
0

>  <r_epik_Ionization_Penalty_Neutral>  (1) 
0.012701608846652416

>  <r_epik_State_Penalty>  (1) 
0.012701380709717016

>  <r_glide_ring_energy>  (1) 
0

>  <r_i_docking_score>  (1) 
-6.154430307534887

>  <r_i_glide_ecoul>  (1) 
-9.6969010582034816

>  <r_i_glide_eff_state_penalty>  (1) 
0.012701380709717016

>  <r_i_glide_einternal>  (1) 
5.7172609013707216

>  <r_i_glide_emodel>  (1) 
-61.892208639006135

>  <r_i_glide_emodel_strain>  (1) 
0.13584285505176297

>  <r_i_glide_energy>  (1) 
-46.42729779510497

>  <r_i_glide_erotb>  (1) 
1.4185672597553849

>  <r_i_glide_esite>  (1) 
0

>  <r_i_glide_evdw>  (1) 
-36.73039673690149

>  <r_i_glide_gscore>  (1) 
-6.1671316882446039

>  <r_i_glide_gscore_strain>  (1) 
0

>  <r_i_glide_hbond>  (1) 
-0.45599999999999996

>  <r_i_glide_ligand_efficiency>  (1) 
-0.24617721230139547

>  <r_i_glide_ligand_efficiency_ln>  (1) 
-1.4587844162792236

>  <r_i_glide_ligand_efficiency_sa>  (1) 
-0.71982653551307496

>  <r_i_glide_lipo>  (1) 
-1.6058383335635502

>  <r_i_glide_metal>  (1) 
-0

>  <r_i_glide_rewards>  (1) 
-2.2328056188608421

>  <r_lp_Energy>  (1) 
19.135596

>  <s_epik_Chemistry_Notes>  (1) 
This compound has an ester and may undergo hydrolysis at high or low pH. This compound has an imine and may undergo hydrolysis.

>  <s_epik_cmdline>  (1) 
J2VwaWtfcHl0aG9uJywgJy1waHQnLCAnMS4wJywgJy1waCcsICc3LjQnLCAnLXRuJywgJzgnLCAnLW1hJywgJzUwMCcsICctaW1hZScsICc8aW5maWxlLm1hZT4nLCAnLW9tYWUnLCAnPG91dGZpbGUubWFlPic=

>  <s_epik_input>  (1) 
Tz1bQ0hdQzE9W0NIXU49QyhbQ0BIXTEyKUMoW0NIMl1bQ0gzXSk9QyhbQ0hdPVtDSF0yKVtDQEBIXShbT0hdKVtDSDJdQyg9TylPW0NIMl1bQ0gyXVtDSDJdW0NIMl1bQ0gyXVtPSF0=

>  <s_glide_docking_method>  (1) 
confgen

>  <s_i_glide_gridfile>  (1) 
gpcr_5ht2c_6bqh_protein_autoprepared_prepared

>  <s_lp_Force_Field>  (1) 
S-OPLS

>  <s_lp_Variant>  (1) 
DiffSBDD_34_num_sample_50-1

>  <s_m_source_file>  (1) 
generated__ligand_DiffSBDD_2026-05-06_prepared.sdf

>  <GenAI_Model>  (1) 
DiffSBDD

>  <Protein>  (1) 
GPCR_5HT2C

$$$$
DiffSBDD_10_num_sample_50
     RDKit          3D

  0  0  0  0  0  0  0  0  0  0999 V3000
M  V30 BEGIN CTAB
M  V30 COUNTS 64 66 0 0 1
M  V30 BEGIN ATOM
M  V30 1 C 36.291825 33.700809 59.294123 0
M  V30 2 C 36.096097 34.862936 60.237053 0
M  V30 3 C 41.474289 34.249788 64.041625 0
M  V30 4 N 38.554983 34.803268 60.888135 0 CFG=1 CHG=1
M  V30 5 O 38.436595 27.015048 55.609021 0 CHG=-1
M  V30 6 O 38.667361 33.603040 56.037172 0
M  V30 7 C 39.047964 27.735997 51.140120 0
M  V30 8 C 41.301974 35.521678 63.448078 0
M  V30 9 C 39.867381 30.129937 52.364689 0
M  V30 10 O 40.561582 28.327856 55.932587 0 CHG=-1
M  V30 11 N 37.796616 27.128949 53.108549 0
M  V30 12 C 40.349497 35.696535 62.424906 0
M  V30 13 C 38.909506 31.047065 54.877262 0
M  V30 14 C 38.623481 28.023447 52.449893 0
M  V30 15 C 37.138439 34.877046 61.372061 0 CFG=1
M  V30 16 C 36.869283 37.473943 61.644004 0
M  V30 17 C 39.580267 34.602104 62.005032 0
M  V30 18 O 38.482253 28.925406 57.199553 0
M  V30 19 C 38.764430 33.815360 59.788449 0
M  V30 20 N 37.867581 32.603884 57.909306 0
M  V30 21 C 36.892567 36.085050 62.314217 0
M  V30 22 P 39.051433 28.367667 55.904710 0
M  V30 23 C 41.136628 30.806605 50.291941 0
M  V30 24 C 39.867402 28.640010 50.449718 0
M  V30 25 C 38.332452 32.595043 56.662387 0
M  V30 26 N 38.399851 31.362517 56.179554 0
M  V30 27 C 40.690914 33.153200 63.611398 0
M  V30 28 O 40.175517 36.916823 61.853484 0 CHG=-1
M  V30 29 F 42.390427 34.080899 65.024848 0
M  V30 30 C 39.736619 33.328243 62.589214 0
M  V30 31 C 39.036701 29.226461 53.080746 0
M  V30 32 C 37.681730 33.803753 58.691248 0 CFG=1
M  V30 33 C 38.552650 29.580797 54.513839 0 CFG=2
M  V30 34 C 40.270470 29.833155 51.053967 0
M  V30 35 H 35.532453 33.727592 58.511793 0
M  V30 36 H 36.162795 32.756829 59.826187 0
M  V30 37 H 36.113899 35.788482 59.661537 0
M  V30 38 H 35.100448 34.751174 60.652879 0
M  V30 39 H 38.736540 26.819792 50.660603 0
M  V30 40 H 41.900569 36.358666 63.779035 0
M  V30 41 H 40.186252 31.055070 52.812801 0
M  V30 42 H 37.650661 26.222174 52.694813 0
M  V30 43 H 37.827596 27.125725 54.146458 0
M  V30 44 H 38.490474 31.739811 54.143939 0
M  V30 45 H 39.991273 31.186367 54.920130 0
M  V30 46 H 36.968515 33.954393 61.924844 0
M  V30 47 H 36.808558 38.253391 62.401964 0
M  V30 48 H 37.769070 37.656652 61.058321 0
M  V30 49 H 36.014632 37.621408 60.984520 0
M  V30 50 H 39.739959 34.005792 59.339404 0
M  V30 51 H 38.815399 32.808667 60.199518 0
M  V30 52 H 37.606413 31.724387 58.331392 0
M  V30 53 H 35.947445 35.939364 62.839516 0
M  V30 54 H 37.646705 36.103744 63.099524 0
M  V30 55 H 41.652529 30.327435 49.460149 0
M  V30 56 H 40.525758 31.620453 49.900242 0
M  V30 57 H 41.885161 31.221426 50.958772 0
M  V30 58 H 40.183757 28.421431 49.453318 0
M  V30 59 H 38.120482 30.576839 56.773454 0
M  V30 60 H 40.822790 32.183223 64.067283 0
M  V30 61 H 39.134679 32.494488 62.263523 0
M  V30 62 H 37.714367 34.700907 58.074244 0
M  V30 63 H 37.463755 29.540572 54.463299 0
M  V30 64 H 38.745240 35.716806 60.496298 0
M  V30 END ATOM
M  V30 BEGIN BOND
M  V30 1 1 2 1
M  V30 2 2 8 3
M  V30 3 1 12 8
M  V30 4 1 14 7
M  V30 5 1 14 11
M  V30 6 1 15 2
M  V30 7 1 15 4
M  V30 8 1 17 4
M  V30 9 2 17 12
M  V30 10 1 19 4
M  V30 11 1 21 15
M  V30 12 1 21 16
M  V30 13 1 22 5
M  V30 14 1 22 10
M  V30 15 2 22 18
M  V30 16 2 24 7
M  V30 17 2 25 6
M  V30 18 1 25 20
M  V30 19 1 26 13
M  V30 20 1 26 25
M  V30 21 1 27 3
M  V30 22 1 28 12
M  V30 23 1 29 3
M  V30 24 1 30 17
M  V30 25 2 30 27
M  V30 26 1 31 9
M  V30 27 2 31 14
M  V30 28 1 32 1
M  V30 29 1 32 19
M  V30 30 1 32 20
M  V30 31 1 33 13
M  V30 32 1 33 22
M  V30 33 1 33 31
M  V30 34 2 34 9
M  V30 35 1 34 23
M  V30 36 1 34 24
M  V30 37 1 35 1
M  V30 38 1 36 1
M  V30 39 1 37 2
M  V30 40 1 38 2
M  V30 41 1 39 7
M  V30 42 1 40 8
M  V30 43 1 41 9
M  V30 44 1 42 11
M  V30 45 1 43 11
M  V30 46 1 44 13
M  V30 47 1 45 13
M  V30 48 1 15 46 CFG=1
M  V30 49 1 47 16
M  V30 50 1 48 16
M  V30 51 1 49 16
M  V30 52 1 50 19
M  V30 53 1 51 19
M  V30 54 1 52 20
M  V30 55 1 53 21
M  V30 56 1 54 21
M  V30 57 1 55 23
M  V30 58 1 56 23
M  V30 59 1 57 23
M  V30 60 1 58 24
M  V30 61 1 59 26
M  V30 62 1 60 27
M  V30 63 1 61 30
M  V30 64 1 32 62 CFG=3
M  V30 65 1 33 63 CFG=3
M  V30 66 1 4 64 CFG=3
M  V30 END BOND
M  V30 END CTAB
M  END
>  <i_epik_Tot_Q>  (1) 
-2

>  <i_epik_Tot_abs_Q>  (1) 
4

>  <i_i_glide_confnum>  (1) 
64

>  <i_i_glide_lignum>  (1) 
34

>  <i_i_glide_posenum>  (1) 
348

>  <i_i_glide_rotatable_bonds>  (1) 
9

>  <i_lp_mmshare_version>  (1) 
72125

>  <i_m_source_file_index>  (1) 
11

>  <i_f3d_flags>  (1) 
0

>  <num_sample>  (1) 
50

>  <b_lp_Chiralities_Consistent>  (1) 
1

>  <r_epik_Charging_Adjusted_Penalty>  (1) 
1.3613781813755943

>  <r_epik_Ionization_Penalty>  (1) 
0.45221775539962494

>  <r_epik_Ionization_Penalty_Charging>  (1) 
0.45010221832775887

>  <r_epik_Ionization_Penalty_Neutral>  (1) 
0.0021155370718660637

>  <r_epik_State_Penalty>  (1) 
0.91127596304783554

>  <r_glide_ring_energy>  (1) 
0

>  <r_i_docking_score>  (1) 
-6.1494257471880811

>  <r_i_glide_ecoul>  (1) 
-1.3962423572702365

>  <r_i_glide_eff_state_penalty>  (1) 
0.91127596304783554

>  <r_i_glide_einternal>  (1) 
5.2572774376269464

>  <r_i_glide_emodel>  (1) 
-59.316696902640828

>  <r_i_glide_emodel_strain>  (1) 
5.7785506618996862

>  <r_i_glide_energy>  (1) 
-47.581189924912977

>  <r_i_glide_erotb>  (1) 
0.58773720055558498

>  <r_i_glide_esite>  (1) 
-0.24710435556652477

>  <r_i_glide_evdw>  (1) 
-46.184947567642737

>  <r_i_glide_gscore>  (1) 
-7.0607017102359162

>  <r_i_glide_gscore_strain>  (1) 
0.44463766547492156

>  <r_i_glide_hbond>  (1) 
-0.00032325749470583475

>  <r_i_glide_ligand_efficiency>  (1) 
-0.18086546315259061

>  <r_i_glide_ligand_efficiency_ln>  (1) 
-1.3585806331035808

>  <r_i_glide_ligand_efficiency_sa>  (1) 
-0.58593388887265052

>  <r_i_glide_lipo>  (1) 
-4.3822689034688826

>  <r_i_glide_metal>  (1) 
-0

>  <r_i_glide_rewards>  (1) 
-0.94469632776363921

>  <r_lp_Energy>  (1) 
32.038921000000002

>  <s_epik_cmdline>  (1) 
J2VwaWtfcHl0aG9uJywgJy1waHQnLCAnMS4wJywgJy1waCcsICc3LjQnLCAnLXRuJywgJzgnLCAnLW1hJywgJzUwMCcsICctaW1hZScsICc8aW5maWxlLm1hZT4nLCAnLW9tYWUnLCAnPG91dGZpbGUubWFlPic=

>  <s_epik_input>  (1) 
RmMxW2NIXWMoW09IXSljKFtjSF1bY0hdMSlOMltDQEBIXShbQ0gyXVtDSDNdKVtDSDJdW0NIMl1bQ0BASF0oW0NIMl0yKVtOSF1DKD1PKVtOSF1bQ0gyXVtDQEhdKFAoPU8pKFtPSF0pW09IXSljM1tjSF1jKFtDSDNdKVtjSF1bY0hdYzNbTkgyXQ==

>  <s_glide_docking_method>  (1) 
confgen

>  <s_i_glide_gridfile>  (1) 
gpcr_5ht2c_6bqh_protein_autoprepared_prepared

>  <s_lp_Force_Field>  (1) 
S-OPLS

>  <s_lp_Variant>  (1) 
DiffSBDD_10_num_sample_50-3

>  <s_m_source_file>  (1) 
generated__ligand_DiffSBDD_2026-05-06_prepared.sdf

>  <GenAI_Model>  (1) 
DiffSBDD

>  <Protein>  (1) 
GPCR_5HT2C

$$$$
DiffSBDD_10_num_sample_50
     RDKit          3D

  0  0  0  0  0  0  0  0  0  0999 V3000
M  V30 BEGIN CTAB
M  V30 COUNTS 64 66 0 0 1
M  V30 BEGIN ATOM
M  V30 1 C 38.916562 31.823525 54.400474 0
M  V30 2 C 40.000625 30.779449 54.199057 0
M  V30 3 C 38.611510 25.455438 57.097445 0
M  V30 4 N 38.339924 28.988839 54.706514 0
M  V30 5 O 39.303007 30.821778 63.040284 0 CHG=-1
M  V30 6 O 38.267004 33.579621 57.062573 0
M  V30 7 C 41.577717 34.372499 63.853730 0
M  V30 8 C 39.228712 25.481175 55.845290 0
M  V30 9 C 39.430997 34.926641 62.113056 0
M  V30 10 O 37.219646 31.633139 61.858028 0 CHG=-1
M  V30 11 N 41.809534 32.165291 62.884803 0
M  V30 12 C 39.169463 26.633744 55.045340 0
M  V30 13 C 38.881969 33.214023 59.789599 0
M  V30 14 C 41.158673 33.395786 62.928534 0
M  V30 15 C 39.457487 29.375851 53.851000 0 CFG=1
M  V30 16 C 40.275172 29.434043 51.349875 0
M  V30 17 C 38.464513 27.801918 55.515885 0
M  V30 18 O 38.828124 30.097944 60.682767 0
M  V30 19 C 37.292453 29.965777 55.034071 0
M  V30 20 N 38.267525 31.329321 56.790930 0
M  V30 21 C 39.155201 29.106930 52.348168 0
M  V30 22 P 38.666943 31.195864 61.720739 0
M  V30 23 C 39.164384 37.234582 63.100868 0
M  V30 24 C 40.928207 35.617450 63.909912 0
M  V30 25 C 38.393215 32.442289 57.517862 0
M  V30 26 N 38.667348 32.178547 58.794771 0
M  V30 27 C 37.944047 26.585927 57.578465 0
M  V30 28 O 39.758328 26.601774 53.817059 0
M  V30 29 F 38.654247 24.334635 57.841149 0
M  V30 30 C 37.867490 27.754214 56.801309 0
M  V30 31 C 40.075824 33.669816 62.048978 0
M  V30 32 C 37.861079 31.342340 55.395844 0 CFG=1
M  V30 33 C 39.626604 32.621521 61.011051 0 CFG=2
M  V30 34 C 39.857514 35.895236 63.040666 0
M  V30 35 H 38.432916 32.024007 53.447242 0
M  V30 36 H 39.344743 32.768018 54.732153 0
M  V30 37 H 40.715494 31.127373 53.458954 0
M  V30 38 H 40.565877 30.712447 55.128568 0
M  V30 39 H 42.398784 34.164490 64.523432 0
M  V30 40 H 39.742058 24.602509 55.485912 0
M  V30 41 H 38.610633 35.150070 61.450257 0
M  V30 42 H 42.405623 31.922199 63.660042 0
M  V30 43 H 41.284804 31.384843 62.500476 0
M  V30 44 H 39.472392 34.021595 59.358730 0
M  V30 45 H 37.909359 33.616954 60.073302 0
M  V30 46 H 40.266255 28.821858 54.268110 0
M  V30 47 H 39.969795 29.165210 50.337981 0
M  V30 48 H 40.521317 30.495785 51.337919 0
M  V30 49 H 41.178685 28.869407 51.570804 0
M  V30 50 H 36.720001 30.084507 54.118281 0
M  V30 51 H 36.539863 29.642407 55.744351 0
M  V30 52 H 38.395333 30.434023 57.235845 0
M  V30 53 H 38.872043 28.070453 52.187811 0
M  V30 54 H 38.254017 29.620216 52.061643 0
M  V30 55 H 39.515688 37.821661 63.949971 0
M  V30 56 H 39.362557 37.800206 62.190206 0
M  V30 57 H 38.086106 37.105835 63.197190 0
M  V30 58 H 41.251366 36.361376 64.622193 0
M  V30 59 H 38.732982 31.210287 59.104540 0
M  V30 60 H 37.481668 26.555453 58.547447 0
M  V30 61 H 40.187104 25.781886 53.632359 0
M  V30 62 H 37.348440 28.610689 57.195956 0
M  V30 63 H 37.067356 32.072143 55.317767 0
M  V30 64 H 40.557471 32.202148 60.638599 0
M  V30 END ATOM
M  V30 BEGIN BOND
M  V30 1 1 2 1
M  V30 2 2 8 3
M  V30 3 1 12 8
M  V30 4 1 14 7
M  V30 5 1 14 11
M  V30 6 1 15 2
M  V30 7 1 15 4
M  V30 8 1 17 4
M  V30 9 2 17 12
M  V30 10 1 19 4
M  V30 11 1 21 15
M  V30 12 1 21 16
M  V30 13 1 22 5
M  V30 14 1 22 10
M  V30 15 2 22 18
M  V30 16 2 24 7
M  V30 17 2 25 6
M  V30 18 1 25 20
M  V30 19 1 26 13
M  V30 20 1 26 25
M  V30 21 1 27 3
M  V30 22 1 28 12
M  V30 23 1 29 3
M  V30 24 1 30 17
M  V30 25 2 30 27
M  V30 26 1 31 9
M  V30 27 2 31 14
M  V30 28 1 32 1
M  V30 29 1 32 19
M  V30 30 1 32 20
M  V30 31 1 33 13
M  V30 32 1 33 22
M  V30 33 1 33 31
M  V30 34 2 34 9
M  V30 35 1 34 23
M  V30 36 1 34 24
M  V30 37 1 35 1
M  V30 38 1 36 1
M  V30 39 1 37 2
M  V30 40 1 38 2
M  V30 41 1 39 7
M  V30 42 1 40 8
M  V30 43 1 41 9
M  V30 44 1 42 11
M  V30 45 1 43 11
M  V30 46 1 44 13
M  V30 47 1 45 13
M  V30 48 1 15 46 CFG=1
M  V30 49 1 47 16
M  V30 50 1 48 16
M  V30 51 1 49 16
M  V30 52 1 50 19
M  V30 53 1 51 19
M  V30 54 1 52 20
M  V30 55 1 53 21
M  V30 56 1 54 21
M  V30 57 1 55 23
M  V30 58 1 56 23
M  V30 59 1 57 23
M  V30 60 1 58 24
M  V30 61 1 59 26
M  V30 62 1 60 27
M  V30 63 1 61 28
M  V30 64 1 62 30
M  V30 65 1 32 63 CFG=1
M  V30 66 1 33 64 CFG=3
M  V30 END BOND
M  V30 END CTAB
M  END
>  <i_epik_Tot_Q>  (1) 
-2

>  <i_epik_Tot_abs_Q>  (1) 
2

>  <i_i_glide_confnum>  (1) 
492

>  <i_i_glide_lignum>  (1) 
33

>  <i_i_glide_posenum>  (1) 
220

>  <i_i_glide_rotatable_bonds>  (1) 
10

>  <i_lp_mmshare_version>  (1) 
72125

>  <i_m_source_file_index>  (1) 
11

>  <i_f3d_flags>  (1) 
0

>  <num_sample>  (1) 
50

>  <b_lp_Chiralities_Consistent>  (1) 
1

>  <r_epik_Charging_Adjusted_Penalty>  (1) 
1.1617678045882596

>  <r_epik_Ionization_Penalty>  (1) 
0.4473271138811577

>  <r_epik_Ionization_Penalty_Charging>  (1) 
0.41559672628269745

>  <r_epik_Ionization_Penalty_Neutral>  (1) 
0.031730387598460232

>  <r_epik_State_Penalty>  (1) 
0.74617107830556217

>  <r_glide_ring_energy>  (1) 
0.4844006460622195

>  <r_i_docking_score>  (1) 
-6.1423854634333432

>  <r_i_glide_ecoul>  (1) 
-2.7787736627662323

>  <r_i_glide_eff_state_penalty>  (1) 
0.74617107830556217

>  <r_i_glide_einternal>  (1) 
1.4340753063848766

>  <r_i_glide_emodel>  (1) 
-58.641369487476027

>  <r_i_glide_emodel_strain>  (1) 
1.9271178409186405

>  <r_i_glide_energy>  (1) 
-39.519664428336547

>  <r_i_glide_erotb>  (1) 
0.58773720055558498

>  <r_i_glide_esite>  (1) 
-0.20451727171104933

>  <r_i_glide_evdw>  (1) 
-36.740890765570313

>  <r_i_glide_gscore>  (1) 
-6.8885565417389056

>  <r_i_glide_gscore_strain>  (1) 
0

>  <r_i_glide_hbond>  (1) 
-0.16

>  <r_i_glide_ligand_efficiency>  (1) 
-0.18065839598333364

>  <r_i_glide_ligand_efficiency_ln>  (1) 
-1.3570252369488889

>  <r_i_glide_ligand_efficiency_sa>  (1) 
-0.58526307162746838

>  <r_i_glide_lipo>  (1) 
-4.1806735193857705

>  <r_i_glide_metal>  (1) 
-0

>  <r_i_glide_rewards>  (1) 
-0.6772423635042204

>  <r_lp_Energy>  (1) 
49.585073000000001

>  <r_lp_tautomer_probability>  (1) 
0.99999999999736477

>  <s_epik_cmdline>  (1) 
J2VwaWtfcHl0aG9uJywgJy1waHQnLCAnMS4wJywgJy1waCcsICc3LjQnLCAnLXRuJywgJzgnLCAnLW1hJywgJzUwMCcsICctaW1hZScsICc8aW5maWxlLm1hZT4nLCAnLW9tYWUnLCAnPG91dGZpbGUubWFlPic=

>  <s_epik_input>  (1) 
RmMxW2NIXWMoW09IXSljKFtjSF1bY0hdMSlOMltDQEBIXShbQ0gyXVtDSDNdKVtDSDJdW0NIMl1bQ0BASF0oW0NIMl0yKVtOSF1DKD1PKVtOSF1bQ0gyXVtDQEhdKFAoPU8pKFtPSF0pW09IXSljM1tjSF1jKFtDSDNdKVtjSF1bY0hdYzNbTkgyXQ==

>  <s_glide_docking_method>  (1) 
confgen

>  <s_i_glide_gridfile>  (1) 
gpcr_5ht2c_6bqh_protein_autoprepared_prepared

>  <s_lp_Force_Field>  (1) 
S-OPLS

>  <s_lp_Variant>  (1) 
DiffSBDD_10_num_sample_50-2

>  <s_m_source_file>  (1) 
generated__ligand_DiffSBDD_2026-05-06_prepared.sdf

>  <GenAI_Model>  (1) 
DiffSBDD

>  <Protein>  (1) 
GPCR_5HT2C

$$$$
DiffSBDD_12_num_sample_50
     RDKit          3D

  0  0  0  0  0  0  0  0  0  0999 V3000
M  V30 BEGIN CTAB
M  V30 COUNTS 69 71 0 0 1
M  V30 BEGIN ATOM
M  V30 1 C 39.962129 26.098390 57.897814 0
M  V30 2 C 37.434036 31.648978 60.224089 0
M  V30 3 C 38.449885 31.590774 57.100400 0
M  V30 4 O 38.738834 29.957260 55.374578 0
M  V30 5 N 38.072806 30.714841 59.408949 0
M  V30 6 F 42.845174 30.597336 64.152909 0
M  V30 7 N 38.268336 32.831034 57.269518 0
M  V30 8 C 38.330549 25.874719 55.960473 0
M  V30 9 C 36.537898 34.668139 60.370510 0
M  V30 10 C 38.798664 25.354135 57.293686 0
M  V30 11 C 40.266882 27.022914 56.705124 0
M  V30 12 C 39.177436 27.768559 54.585012 0
M  V30 13 C 41.645719 30.626933 63.547405 0
M  V30 14 C 40.538763 29.327114 61.655603 0
M  V30 15 N 36.340957 32.288264 59.641436 0
M  V30 16 N 39.107067 29.923555 59.902913 0
M  V30 17 C 39.344285 31.060873 56.019179 0
M  V30 18 C 36.820208 26.021418 55.922813 0
M  V30 19 N 37.844120 31.897610 61.434277 0
M  V30 20 O 39.689832 28.911387 52.149233 0
M  V30 21 C 39.684547 32.040941 62.914559 0
M  V30 22 C 37.793418 30.519880 57.989842 0
M  V30 23 O 37.055326 35.055592 59.113156 0
M  V30 24 C 39.656162 29.230556 54.585757 0 CFG=1
M  V30 25 C 38.711628 24.884843 54.862460 0
M  V30 26 C 39.065417 31.353108 61.901529 0
M  V30 27 C 40.992645 31.787968 63.526598 0
M  V30 28 C 39.608335 30.163646 61.163449 0
M  V30 29 C 41.114757 29.357061 63.019004 0
M  V30 30 C 39.877630 29.448376 50.851473 0
M  V30 31 C 35.653399 33.409931 60.266630 0
M  V30 32 C 39.741082 29.885245 53.183976 0
M  V30 33 O 38.265949 24.397683 57.847820 0
M  V30 34 N 39.028907 27.167294 55.920348 0
M  V30 35 H 40.795819 25.449296 58.162738 0
M  V30 36 H 39.622637 26.650423 58.774383 0
M  V30 37 H 37.653887 33.060895 58.042599 0
M  V30 38 H 36.718925 30.466327 57.824127 0
M  V30 39 H 35.947004 35.495879 60.745956 0
M  V30 40 H 37.358004 34.526314 61.074922 0
M  V30 41 H 41.048384 26.573135 56.091909 0
M  V30 42 H 40.635256 27.991382 57.046751 0
M  V30 43 H 38.224887 27.739867 54.056573 0
M  V30 44 H 39.866098 27.165253 53.992803 0
M  V30 45 H 40.861757 28.499526 61.040153 0
M  V30 46 H 36.006631 32.046743 58.706845 0
M  V30 47 H 39.489579 29.202176 59.310535 0
M  V30 48 H 39.591298 31.848028 55.301710 0
M  V30 49 H 36.303349 25.076828 55.744885 0
M  V30 50 H 36.455326 26.420982 56.867324 0
M  V30 51 H 36.591837 26.696212 55.099257 0
M  V30 52 H 39.167319 32.922470 63.266423 0
M  V30 53 H 40.267403 30.753216 56.508008 0
M  V30 54 H 38.162652 29.537867 57.693117 0
M  V30 55 H 36.346689 35.203777 58.502137 0
M  V30 56 H 40.642178 29.241925 55.053517 0
M  V30 57 H 38.274938 23.900950 55.049116 0
M  V30 58 H 38.266175 25.230192 53.931241 0
M  V30 59 H 39.790459 24.794473 54.737857 0
M  V30 60 H 41.472034 32.625154 64.014262 0
M  V30 61 H 41.932958 28.638037 63.039136 0
M  V30 62 H 40.362089 28.973914 63.710745 0
M  V30 63 H 39.765601 28.655414 50.112914 0
M  V30 64 H 39.134233 30.213020 50.624052 0
M  V30 65 H 40.878612 29.871044 50.741135 0
M  V30 66 H 34.765529 33.634361 59.674213 0
M  V30 67 H 35.298542 33.110733 61.253354 0
M  V30 68 H 38.911443 30.579409 53.052466 0
M  V30 69 H 40.659269 30.474425 53.113632 0
M  V30 END ATOM
M  V30 BEGIN BOND
M  V30 1 1 5 2
M  V30 2 2 7 3
M  V30 3 1 10 1
M  V30 4 1 10 8
M  V30 5 1 11 1
M  V30 6 1 13 6
M  V30 7 1 15 2
M  V30 8 1 16 5
M  V30 9 1 17 3
M  V30 10 1 17 4
M  V30 11 1 18 8
M  V30 12 2 19 2
M  V30 13 1 22 3
M  V30 14 1 22 5
M  V30 15 1 23 9
M  V30 16 1 24 4
M  V30 17 1 24 12
M  V30 18 1 25 8
M  V30 19 1 26 19
M  V30 20 2 26 21
M  V30 21 2 27 13
M  V30 22 1 27 21
M  V30 23 2 28 14
M  V30 24 1 28 16
M  V30 25 1 28 26
M  V30 26 1 29 13
M  V30 27 1 29 14
M  V30 28 1 30 20
M  V30 29 1 31 9
M  V30 30 1 31 15
M  V30 31 1 32 20
M  V30 32 1 32 24
M  V30 33 2 33 10
M  V30 34 1 34 8
M  V30 35 1 34 11
M  V30 36 1 34 12
M  V30 37 1 35 1
M  V30 38 1 36 1
M  V30 39 1 37 7
M  V30 40 1 38 22
M  V30 41 1 39 9
M  V30 42 1 40 9
M  V30 43 1 41 11
M  V30 44 1 42 11
M  V30 45 1 43 12
M  V30 46 1 44 12
M  V30 47 1 45 14
M  V30 48 1 46 15
M  V30 49 1 47 16
M  V30 50 1 48 17
M  V30 51 1 49 18
M  V30 52 1 50 18
M  V30 53 1 51 18
M  V30 54 1 52 21
M  V30 55 1 53 17
M  V30 56 1 54 22
M  V30 57 1 55 23
M  V30 58 1 24 56 CFG=1
M  V30 59 1 57 25
M  V30 60 1 58 25
M  V30 61 1 59 25
M  V30 62 1 60 27
M  V30 63 1 61 29
M  V30 64 1 62 29
M  V30 65 1 63 30
M  V30 66 1 64 30
M  V30 67 1 65 30
M  V30 68 1 66 31
M  V30 69 1 67 31
M  V30 70 1 68 32
M  V30 71 1 69 32
M  V30 END BOND
M  V30 END CTAB
M  END
>  <i_epik_Tot_Q>  (1) 
0

>  <i_epik_Tot_abs_Q>  (1) 
0

>  <i_i_glide_confnum>  (1) 
111

>  <i_i_glide_lignum>  (1) 
39

>  <i_i_glide_posenum>  (1) 
294

>  <i_i_glide_rotatable_bonds>  (1) 
13

>  <i_lp_mmshare_version>  (1) 
72125

>  <i_m_source_file_index>  (1) 
13

>  <i_f3d_flags>  (1) 
0

>  <num_sample>  (1) 
50

>  <b_lp_Chiralities_Consistent>  (1) 
1

>  <r_epik_Charging_Adjusted_Penalty>  (1) 
0.55554580925232466

>  <r_epik_Ionization_Penalty>  (1) 
0.16124304309229381

>  <r_epik_Ionization_Penalty_Charging>  (1) 
0

>  <r_epik_Ionization_Penalty_Neutral>  (1) 
0.16124304309229381

>  <r_epik_State_Penalty>  (1) 
0.55554580925232466

>  <r_glide_ring_energy>  (1) 
0.004571206772424714

>  <r_i_docking_score>  (1) 
-6.1379965869687094

>  <r_i_glide_ecoul>  (1) 
-7.7809088668663264

>  <r_i_glide_eff_state_penalty>  (1) 
0.55554580925232466

>  <r_i_glide_einternal>  (1) 
12.949737947425163

>  <r_i_glide_emodel>  (1) 
-62.764732724595206

>  <r_i_glide_emodel_strain>  (1) 
2.4717891576502211

>  <r_i_glide_energy>  (1) 
-51.031816424334203

>  <r_i_glide_erotb>  (1) 
0.97331795518224939

>  <r_i_glide_esite>  (1) 
-0.19818582826191355

>  <r_i_glide_evdw>  (1) 
-43.250907557467876

>  <r_i_glide_gscore>  (1) 
-6.6935423962210336

>  <r_i_glide_gscore_strain>  (1) 
0

>  <r_i_glide_hbond>  (1) 
-0.32394393661532206

>  <r_i_glide_ligand_efficiency>  (1) 
-0.18052931138143263

>  <r_i_glide_ligand_efficiency_ln>  (1) 
-1.356055611034036

>  <r_i_glide_ligand_efficiency_sa>  (1) 
-0.58484488762778675

>  <r_i_glide_lipo>  (1) 
-3.0155250270263942

>  <r_i_glide_metal>  (1) 
-0

>  <r_i_glide_rewards>  (1) 
-0.79952385159631056

>  <r_lp_Energy>  (1) 
34.747627000000001

>  <r_lp_tautomer_probability>  (1) 
0.49996700039999997

>  <s_epik_Chemistry_Notes>  (1) 
This compound has an imine and may undergo hydrolysis.

>  <s_epik_cmdline>  (1) 
J2VwaWtfcHl0aG9uJywgJy1waHQnLCAnMS4wJywgJy1waCcsICc3LjQnLCAnLXRuJywgJzgnLCAnLW1hJywgJzUwMCcsICctaW1hZScsICc8aW5maWxlLm1hZT4nLCAnLW9tYWUnLCAnPG91dGZpbGUubWFlPic=

>  <s_epik_input>  (1) 
W0NIM11DMShbQ0gzXSlDKD1PKVtDSDJdW0NIMl1OMVtDSDJdW0NAQEhdKFtDSDJdT1tDSDNdKU8vW0NIXT1DKFxbTkgyXSlbQ0gyXU4oQyg9TjIpW05IXVtDSDJdW0NIMl1bT0hdKVtOSF1DKEMyMyk9W0NIXVtDSDJdQyhGKT1bQ0hdW0NIXT0z

>  <s_glide_docking_method>  (1) 
confgen

>  <s_i_glide_gridfile>  (1) 
gpcr_5ht2c_6bqh_protein_autoprepared_prepared

>  <s_lp_Force_Field>  (1) 
S-OPLS

>  <s_lp_Variant>  (1) 
DiffSBDD_12_num_sample_50-1

>  <s_m_source_file>  (1) 
generated__ligand_DiffSBDD_2026-05-06_prepared.sdf

>  <GenAI_Model>  (1) 
DiffSBDD

>  <Protein>  (1) 
GPCR_5HT2C

$$$$
DiffSBDD_5_num_sample_50
     RDKit          3D

  0  0  0  0  0  0  0  0  0  0999 V3000
M  V30 BEGIN CTAB
M  V30 COUNTS 80 82 0 0 1
M  V30 BEGIN ATOM
M  V30 1 C 38.808054 31.108520 56.131006 0
M  V30 2 C 38.385943 30.503281 53.774334 0 CFG=2
M  V30 3 N 40.739370 33.705512 62.773536 0
M  V30 4 F 39.867086 26.149001 58.588596 0
M  V30 5 C 38.140034 31.757873 59.301270 0
M  V30 6 N 37.867615 31.065295 57.000947 0 CHG=1
M  V30 7 C 38.033217 32.504154 61.707944 0 CFG=1
M  V30 8 C 38.568755 25.082419 56.906237 0 CFG=2
M  V30 9 C 39.999472 29.707440 51.983221 0
M  V30 10 C 37.853375 32.229606 57.900120 0 CFG=2
M  V30 11 N 39.519687 32.186019 56.244080 0
M  V30 12 C 39.943317 30.609778 50.729625 0
M  V30 13 C 38.819130 27.697645 54.355521 0 CFG=2
M  V30 14 C 40.667427 28.418989 51.528213 0
M  V30 15 N 37.414645 25.770059 54.827969 0 CHG=1
M  V30 16 C 40.625594 32.390210 62.144118 0
M  V30 17 C 38.788598 31.962273 53.496654 0
M  V30 18 C 39.063324 33.097088 57.296976 0
M  V30 19 C 39.049729 30.047925 55.096912 0 CFG=2
M  V30 20 C 37.210551 25.239976 56.192738 0
M  V30 21 O 41.788080 32.969461 64.637968 0
M  V30 22 C 38.622296 25.839478 58.245124 0
M  V30 23 C 41.384236 35.322324 64.484371 0
M  V30 24 C 41.320613 33.889440 63.969991 0
M  V30 25 S 39.860426 25.646409 55.777954 0
M  V30 26 C 38.528815 28.658018 55.520370 0
M  V30 27 C 38.184670 28.163854 53.023890 0
M  V30 28 C 35.619855 32.338303 61.453698 0
M  V30 29 O 36.842642 31.726836 61.853537 0
M  V30 30 O 39.332846 30.428994 61.797228 0
M  V30 31 N 38.667453 29.536013 52.657694 0 CFG=1 CHG=1
M  V30 32 C 39.236686 31.734429 62.334271 0 CFG=2
M  V30 33 N 38.761205 26.266463 54.641563 0
M  V30 34 C 38.202253 32.941775 60.257881 0
M  V30 35 H 37.306259 30.505428 53.930881 0
M  V30 36 H 40.374287 34.503382 62.275882 0
M  V30 37 H 39.068097 31.188912 59.328765 0
M  V30 38 H 37.350535 31.062758 59.586887 0
M  V30 39 H 37.903930 33.432239 62.253725 0
M  V30 40 H 38.768781 24.024326 57.088460 0
M  V30 41 H 40.667392 30.161797 52.709891 0
M  V30 42 H 36.940095 32.821120 57.853520 0
M  V30 43 H 40.314006 32.400768 55.659128 0
M  V30 44 H 40.951503 30.805898 50.364321 0
M  V30 45 H 39.409768 30.127598 49.913104 0
M  V30 46 H 39.492119 31.583685 50.868261 0
M  V30 47 H 39.867408 27.813386 54.200705 0
M  V30 48 H 41.735116 28.604150 51.453407 0
M  V30 49 H 40.576906 27.621284 52.252882 0
M  V30 50 H 40.275854 28.045539 50.580369 0
M  V30 51 H 36.773280 26.524725 54.631586 0
M  V30 52 H 41.399746 31.720402 62.522780 0
M  V30 53 H 40.858793 32.499237 61.085780 0
M  V30 54 H 38.255149 32.635410 54.167456 0
M  V30 55 H 39.853588 32.021270 53.697128 0
M  V30 56 H 38.665626 32.421313 52.522184 0
M  V30 57 H 38.667277 34.021005 56.868880 0
M  V30 58 H 39.850071 33.313150 58.018367 0
M  V30 59 H 40.131190 29.981460 54.963662 0
M  V30 60 H 36.681130 24.287775 56.138308 0
M  V30 61 H 36.561389 25.933296 56.727899 0
M  V30 62 H 38.062268 26.773848 58.229714 0
M  V30 63 H 38.246500 25.221448 59.053123 0
M  V30 64 H 40.384402 35.747204 64.572936 0
M  V30 65 H 41.857530 35.359469 65.466183 0
M  V30 66 H 41.969201 35.946330 63.808051 0
M  V30 67 H 39.045794 28.345168 56.428432 0
M  V30 68 H 37.467409 28.681728 55.746890 0
M  V30 69 H 38.350463 27.453416 52.213956 0
M  V30 70 H 37.100569 28.205269 53.139255 0
M  V30 71 H 34.792660 31.741256 61.837559 0
M  V30 72 H 35.521539 33.348300 61.853559 0
M  V30 73 H 35.513051 32.377021 60.370988 0
M  V30 74 H 39.283558 29.810432 62.513509 0
M  V30 75 H 39.068719 31.606698 63.401649 0
M  V30 76 H 37.409879 33.650370 60.011039 0
M  V30 77 H 39.121157 33.511657 60.127609 0
M  V30 78 H 37.298725 25.028984 54.148993 0
M  V30 79 H 37.166894 30.338921 57.052322 0
M  V30 80 H 38.034556 29.798037 51.917856 0
M  V30 END ATOM
M  V30 BEGIN BOND
M  V30 1 2 6 1
M  V30 2 1 10 5
M  V30 3 1 10 6
M  V30 4 1 11 1
M  V30 5 1 12 9
M  V30 6 1 14 9
M  V30 7 1 16 3
M  V30 8 1 17 2
M  V30 9 1 18 10
M  V30 10 1 18 11
M  V30 11 1 19 1
M  V30 12 1 19 2
M  V30 13 1 20 8
M  V30 14 1 20 15
M  V30 15 1 22 4
M  V30 16 1 22 8
M  V30 17 1 24 3
M  V30 18 2 24 21
M  V30 19 1 24 23
M  V30 20 1 25 8
M  V30 21 1 26 13
M  V30 22 1 26 19
M  V30 23 1 27 13
M  V30 24 1 29 7
M  V30 25 1 29 28
M  V30 26 1 31 2
M  V30 27 1 31 9
M  V30 28 1 31 27
M  V30 29 1 32 7
M  V30 30 1 32 16
M  V30 31 1 32 30
M  V30 32 1 33 13
M  V30 33 1 33 15
M  V30 34 1 33 25
M  V30 35 1 34 5
M  V30 36 1 34 7
M  V30 37 1 2 35 CFG=1
M  V30 38 1 36 3
M  V30 39 1 37 5
M  V30 40 1 38 5
M  V30 41 1 7 39 CFG=1
M  V30 42 1 8 40 CFG=1
M  V30 43 1 41 9
M  V30 44 1 10 42 CFG=1
M  V30 45 1 43 11
M  V30 46 1 44 12
M  V30 47 1 45 12
M  V30 48 1 46 12
M  V30 49 1 13 47 CFG=3
M  V30 50 1 48 14
M  V30 51 1 49 14
M  V30 52 1 50 14
M  V30 53 1 51 15
M  V30 54 1 52 16
M  V30 55 1 53 16
M  V30 56 1 54 17
M  V30 57 1 55 17
M  V30 58 1 56 17
M  V30 59 1 57 18
M  V30 60 1 58 18
M  V30 61 1 19 59 CFG=3
M  V30 62 1 60 20
M  V30 63 1 61 20
M  V30 64 1 62 22
M  V30 65 1 63 22
M  V30 66 1 64 23
M  V30 67 1 65 23
M  V30 68 1 66 23
M  V30 69 1 67 26
M  V30 70 1 68 26
M  V30 71 1 69 27
M  V30 72 1 70 27
M  V30 73 1 71 28
M  V30 74 1 72 28
M  V30 75 1 73 28
M  V30 76 1 74 30
M  V30 77 1 32 75 CFG=1
M  V30 78 1 76 34
M  V30 79 1 77 34
M  V30 80 1 78 15
M  V30 81 1 79 6
M  V30 82 1 31 80 CFG=3
M  V30 END BOND
M  V30 END CTAB
M  END
>  <i_epik_Tot_Q>  (1) 
3

>  <i_epik_Tot_abs_Q>  (1) 
3

>  <i_i_glide_confnum>  (1) 
1124

>  <i_i_glide_lignum>  (1) 
14

>  <i_i_glide_posenum>  (1) 
20

>  <i_i_glide_rotatable_bonds>  (1) 
13

>  <i_lp_mmshare_version>  (1) 
72125

>  <i_m_source_file_index>  (1) 
6

>  <i_f3d_flags>  (1) 
0

>  <num_sample>  (1) 
50

>  <b_lp_Chiralities_Consistent>  (1) 
1

>  <r_epik_Charging_Adjusted_Penalty>  (1) 
0.16301919670703535

>  <r_epik_Ionization_Penalty>  (1) 
0.082191666583868089

>  <r_epik_Ionization_Penalty_Charging>  (1) 
0.082191230012028396

>  <r_epik_Ionization_Penalty_Neutral>  (1) 
4.3657183969654913e-07

>  <r_epik_State_Penalty>  (1) 
0.080827966695006942

>  <r_glide_ring_energy>  (1) 
0

>  <r_i_docking_score>  (1) 
-6.129650394616192

>  <r_i_glide_ecoul>  (1) 
-4.0120986383858996

>  <r_i_glide_eff_state_penalty>  (1) 
0.080827966695006942

>  <r_i_glide_einternal>  (1) 
9.7956252477957584

>  <r_i_glide_emodel>  (1) 
-47.375507583332485

>  <r_i_glide_emodel_strain>  (1) 
6.2448649688254676

>  <r_i_glide_energy>  (1) 
-37.823249703180373

>  <r_i_glide_erotb>  (1) 
0.63983490757673345

>  <r_i_glide_esite>  (1) 
-0.14186465742920895

>  <r_i_glide_evdw>  (1) 
-33.811151064794473

>  <r_i_glide_gscore>  (1) 
-6.2104783613111989

>  <r_i_glide_gscore_strain>  (1) 
0.5612162422063669

>  <r_i_glide_hbond>  (1) 
-0.32000000000000001

>  <r_i_glide_ligand_efficiency>  (1) 
-0.18028383513577034

>  <r_i_glide_ligand_efficiency_ln>  (1) 
-1.3542117030405991

>  <r_i_glide_ligand_efficiency_sa>  (1) 
-0.58404963988540592

>  <r_i_glide_lipo>  (1) 
-3.5870592329767659

>  <r_i_glide_metal>  (1) 
-0

>  <r_i_glide_rewards>  (1) 
-1.0702332716907166

>  <r_lp_Energy>  (1) 
47.464686

>  <s_epik_Chemistry_Notes>  (1) 
This compound has an imine and may undergo hydrolysis. This compound has a N-S or N-O group and may undergo hydrolysis at high or low pH.

>  <s_epik_cmdline>  (1) 
J2VwaWtfcHl0aG9uJywgJy1waHQnLCAnMS4wJywgJy1waCcsICc3LjQnLCAnLXRuJywgJzgnLCAnLW1hJywgJzUwMCcsICctaW1hZScsICc8aW5maWxlLm1hZT4nLCAnLW9tYWUnLCAnPG91dGZpbGUubWFlPic=

>  <s_epik_input>  (1) 
RltDSDJdW0NASF0xW0NIMl1bTkhdTihTMSlbQ0BASF0oW0NIMl1OMltDSF0oW0NIM10pW0NIM10pW0NIMl1bQ0BASF0oW0NASF0yW0NIM10pQzM9TltDQEhdKFtDSDJdW05IXTMpW0NIMl1bQ0gyXVtDQEBIXShPW0NIM10pW0NAQEhdKFtPSF0pW0NIMl1bTkhdQyg9TylbQ0gzXQ==

>  <s_glide_docking_method>  (1) 
confgen

>  <s_i_glide_gridfile>  (1) 
gpcr_5ht2c_6bqh_protein_autoprepared_prepared

>  <s_lp_Force_Field>  (1) 
S-OPLS

>  <s_lp_Variant>  (1) 
DiffSBDD_5_num_sample_50-1

>  <s_m_source_file>  (1) 
generated__ligand_DiffSBDD_2026-05-06_prepared.sdf

>  <GenAI_Model>  (1) 
DiffSBDD

>  <Protein>  (1) 
GPCR_5HT2C

$$$$
DiffSBDD_30_num_sample_50
     RDKit          3D

  0  0  0  0  0  0  0  0  0  0999 V3000
M  V30 BEGIN CTAB
M  V30 COUNTS 68 67 0 0 1
M  V30 BEGIN ATOM
M  V30 1 C 39.207944 30.214864 53.826364 0
M  V30 2 C 37.649956 33.011454 60.722284 0 CFG=2
M  V30 3 C 37.735714 34.522434 60.430786 0
M  V30 4 O 41.675106 33.174437 65.184390 0
M  V30 5 C 41.664943 35.160155 63.825306 0
M  V30 6 C 38.655351 31.007033 61.969578 0
M  V30 7 C 37.813506 26.930952 53.601356 0
M  V30 8 C 39.550713 27.876152 50.663765 0
M  V30 9 C 38.005949 32.414805 58.208009 0
M  V30 10 C 38.956398 32.380063 61.306630 0 CFG=2
M  V30 11 C 38.918765 29.071302 52.818953 0 CFG=1
M  V30 12 C 39.711472 33.337697 62.265995 0
M  V30 13 C 39.895092 29.039831 51.601598 0 CFG=2
M  V30 14 C 38.589789 31.397881 56.011517 0
M  V30 15 C 39.574349 29.873747 61.493005 0
M  V30 16 C 37.137079 32.246946 59.476557 0
M  V30 17 C 41.471885 33.665149 64.076550 0
M  V30 18 C 41.017574 32.798508 62.891147 0 CFG=2
M  V30 19 C 38.317285 30.201211 55.082274 0
M  V30 20 C 39.977659 30.369784 50.818438 0
M  V30 21 O 38.288911 30.075141 57.955606 0 CHG=-1
M  V30 22 C 41.162696 30.441175 49.855620 0
M  V30 23 N 37.867455 31.197263 57.324188 0 CFG=1 CHG=1
M  V30 24 C 42.139456 32.661932 61.853494 0
M  V30 25 C 38.893812 27.725506 53.535597 0
M  V30 26 H 40.254387 30.174476 54.131619 0
M  V30 27 H 39.067246 31.183301 53.349496 0
M  V30 28 H 36.878198 32.910609 61.487291 0
M  V30 29 H 38.624789 34.768305 59.853511 0
M  V30 30 H 36.864303 34.870890 59.875174 0
M  V30 31 H 37.772836 35.101643 61.353723 0
M  V30 32 H 40.770295 35.710972 64.115741 0
M  V30 33 H 42.501990 35.536492 64.414545 0
M  V30 34 H 41.867375 35.366599 62.775403 0
M  V30 35 H 38.709311 31.083351 63.053538 0
M  V30 36 H 37.630490 30.696307 61.774178 0
M  V30 37 H 36.882219 27.216250 53.134799 0
M  V30 38 H 37.849165 25.986326 54.122403 0
M  V30 39 H 38.558791 28.021340 50.253447 0
M  V30 40 H 40.267403 27.809675 49.853513 0
M  V30 41 H 39.564784 26.905513 51.158797 0
M  V30 42 H 39.067660 32.515708 58.418067 0
M  V30 43 H 37.680870 33.278931 57.627150 0
M  V30 44 H 39.633558 32.204495 60.473875 0
M  V30 45 H 37.912990 29.221367 52.425385 0
M  V30 46 H 39.963381 34.254431 61.733806 0
M  V30 47 H 39.033026 33.639929 63.053514 0
M  V30 48 H 40.906325 28.846090 51.934998 0
M  V30 49 H 39.650056 31.498437 56.247967 0
M  V30 50 H 38.223918 32.328967 55.576340 0
M  V30 51 H 39.298413 28.929361 61.962989 0
M  V30 52 H 39.499223 29.738921 60.413110 0
M  V30 53 H 40.617067 30.068195 61.739170 0
M  V30 54 H 36.122745 32.569962 59.239032 0
M  V30 55 H 37.029270 31.193251 59.726500 0
M  V30 56 H 40.827139 31.812154 63.312435 0
M  V30 57 H 37.263825 30.197429 54.798253 0
M  V30 58 H 38.490239 29.274261 55.627721 0
M  V30 59 H 39.067023 30.538962 50.253514 0
M  V30 60 H 40.085321 31.217379 51.491373 0
M  V30 61 H 41.198710 31.426126 49.400694 0
M  V30 62 H 42.108531 30.293690 50.376018 0
M  V30 63 H 41.077652 29.710496 49.053514 0
M  V30 64 H 43.067191 32.307161 62.302348 0
M  V30 65 H 41.866764 31.968954 61.059884 0
M  V30 66 H 42.334114 33.621224 61.387016 0
M  V30 67 H 39.811767 27.413282 54.012001 0
M  V30 68 H 36.845895 31.166509 57.077569 0
M  V30 END ATOM
M  V30 BEGIN BOND
M  V30 1 1 3 2
M  V30 2 1 10 2
M  V30 3 1 10 6
M  V30 4 1 11 1
M  V30 5 1 12 10
M  V30 6 1 13 8
M  V30 7 1 13 11
M  V30 8 1 15 6
M  V30 9 1 16 2
M  V30 10 1 16 9
M  V30 11 2 17 4
M  V30 12 1 17 5
M  V30 13 1 18 12
M  V30 14 1 18 17
M  V30 15 1 19 1
M  V30 16 1 19 14
M  V30 17 1 20 13
M  V30 18 1 22 20
M  V30 19 1 23 9
M  V30 20 1 23 14
M  V30 21 1 23 21
M  V30 22 1 24 18
M  V30 23 2 25 7
M  V30 24 1 25 11
M  V30 25 1 26 1
M  V30 26 1 27 1
M  V30 27 1 2 28 CFG=1
M  V30 28 1 29 3
M  V30 29 1 30 3
M  V30 30 1 31 3
M  V30 31 1 32 5
M  V30 32 1 33 5
M  V30 33 1 34 5
M  V30 34 1 35 6
M  V30 35 1 36 6
M  V30 36 1 37 7
M  V30 37 1 38 7
M  V30 38 1 39 8
M  V30 39 1 40 8
M  V30 40 1 41 8
M  V30 41 1 42 9
M  V30 42 1 43 9
M  V30 43 1 10 44 CFG=3
M  V30 44 1 11 45 CFG=3
M  V30 45 1 46 12
M  V30 46 1 47 12
M  V30 47 1 13 48 CFG=1
M  V30 48 1 49 14
M  V30 49 1 50 14
M  V30 50 1 51 15
M  V30 51 1 52 15
M  V30 52 1 53 15
M  V30 53 1 54 16
M  V30 54 1 55 16
M  V30 55 1 18 56 CFG=1
M  V30 56 1 57 19
M  V30 57 1 58 19
M  V30 58 1 59 20
M  V30 59 1 60 20
M  V30 60 1 61 22
M  V30 61 1 62 22
M  V30 62 1 63 22
M  V30 63 1 64 24
M  V30 64 1 65 24
M  V30 65 1 66 24
M  V30 66 1 67 25
M  V30 67 1 23 68 CFG=3
M  V30 END BOND
M  V30 END CTAB
M  END
>  <i_epik_Tot_Q>  (1) 
0

>  <i_epik_Tot_abs_Q>  (1) 
2

>  <i_i_glide_confnum>  (1) 
2102

>  <i_i_glide_lignum>  (1) 
82

>  <i_i_glide_posenum>  (1) 
241

>  <i_i_glide_rotatable_bonds>  (1) 
15

>  <i_lp_mmshare_version>  (1) 
72125

>  <i_m_source_file_index>  (1) 
31

>  <i_f3d_flags>  (1) 
0

>  <num_sample>  (1) 
50

>  <b_lp_Chiralities_Consistent>  (1) 
1

>  <r_epik_Charging_Adjusted_Penalty>  (1) 
0.52251968911758562

>  <r_epik_Ionization_Penalty>  (1) 
0.019979657236955634

>  <r_epik_Ionization_Penalty_Charging>  (1) 
0.019979657236557934

>  <r_epik_Ionization_Penalty_Neutral>  (1) 
3.9770064437045143e-13

>  <r_epik_State_Penalty>  (1) 
0.50254003188102769

>  <r_glide_ring_energy>  (1) 
0

>  <r_i_docking_score>  (1) 
-6.1228730419966562

>  <r_i_glide_ecoul>  (1) 
-3.774882980116149

>  <r_i_glide_eff_state_penalty>  (1) 
0.50254003188102769

>  <r_i_glide_einternal>  (1) 
7.1233518311380131

>  <r_i_glide_emodel>  (1) 
-51.22375017730554

>  <r_i_glide_emodel_strain>  (1) 
0.6403154768834014

>  <r_i_glide_energy>  (1) 
-40.180016300542938

>  <r_i_glide_erotb>  (1) 
1.833058027080513

>  <r_i_glide_esite>  (1) 
-0.10000000000000001

>  <r_i_glide_evdw>  (1) 
-36.405133320426792

>  <r_i_glide_gscore>  (1) 
-6.6254130738776835

>  <r_i_glide_gscore_strain>  (1) 
0

>  <r_i_glide_hbond>  (1) 
-0.16

>  <r_i_glide_ligand_efficiency>  (1) 
-0.24491492167986625

>  <r_i_glide_ligand_efficiency_ln>  (1) 
-1.4513043986517278

>  <r_i_glide_ligand_efficiency_sa>  (1) 
-0.71613557534494376

>  <r_i_glide_lipo>  (1) 
-3.9035165612958798

>  <r_i_glide_metal>  (1) 
-0

>  <r_i_glide_rewards>  (1) 
-1.9084654266235543

>  <r_lp_Energy>  (1) 
17.351582999999998

>  <s_epik_cmdline>  (1) 
J2VwaWtfcHl0aG9uJywgJy1waHQnLCAnMS4wJywgJy1waCcsICc3LjQnLCAnLXRuJywgJzgnLCAnLW1hJywgJzUwMCcsICctaW1hZScsICc8aW5maWxlLm1hZT4nLCAnLW9tYWUnLCAnPG91dGZpbGUubWFlPic=

>  <s_epik_input>  (1) 
W0NIM11bQ0gyXVtDQEhdKFtDSDNdKVtDQEBIXShbQ0hdPVtDSDJdKVtDSDJdW0NIMl1bQ0gyXU4oW09IXSlbQ0gyXVtDSDJdW0NASF0oW0NIM10pW0NASF0oW0NIMl1bQ0gzXSlbQ0gyXVtDQEhdKFtDSDNdKUMoPU8pW0NIM10=

>  <s_glide_docking_method>  (1) 
confgen

>  <s_i_glide_gridfile>  (1) 
gpcr_5ht2c_6bqh_protein_autoprepared_prepared

>  <s_lp_Force_Field>  (1) 
S-OPLS

>  <s_lp_Variant>  (1) 
DiffSBDD_30_num_sample_50-6

>  <s_m_source_file>  (1) 
generated__ligand_DiffSBDD_2026-05-06_prepared.sdf

>  <GenAI_Model>  (1) 
DiffSBDD

>  <Protein>  (1) 
GPCR_5HT2C

$$$$
DiffSBDD_10_num_sample_50
     RDKit          3D

  0  0  0  0  0  0  0  0  0  0999 V3000
M  V30 BEGIN CTAB
M  V30 COUNTS 64 66 0 0 1
M  V30 BEGIN ATOM
M  V30 1 C 38.978892 31.760642 54.586251 0
M  V30 2 C 40.064297 30.688518 54.518620 0
M  V30 3 C 37.409961 24.896407 56.144692 0
M  V30 4 N 38.412555 28.987797 55.257810 0 CFG=2 CHG=1
M  V30 5 O 39.642963 30.821407 63.082558 0 CHG=-1
M  V30 6 O 38.267376 33.621383 57.194773 0
M  V30 7 C 41.821039 34.392983 63.872563 0
M  V30 8 C 38.030559 25.709702 57.121287 0
M  V30 9 C 39.573614 34.958647 62.266944 0
M  V30 10 O 37.464517 31.789357 62.253504 0 CHG=-1
M  V30 11 N 42.036800 32.222530 62.826233 0
M  V30 12 C 38.363962 27.043009 56.811577 0
M  V30 13 C 38.914729 33.288489 59.928936 0
M  V30 14 C 41.370728 33.439208 62.941022 0
M  V30 15 C 39.493599 29.271674 54.289840 0 CFG=1
M  V30 16 C 40.040210 29.504687 51.719712 0
M  V30 17 C 38.072947 27.547078 55.543573 0
M  V30 18 O 38.782805 30.212758 60.808587 0
M  V30 19 C 37.302599 29.965929 55.222137 0
M  V30 20 N 38.266686 31.367514 56.959263 0
M  V30 21 C 39.113393 28.948674 52.813881 0
M  V30 22 P 38.841485 31.278450 61.884990 0
M  V30 23 C 39.314053 37.225695 63.353140 0
M  V30 24 C 41.152343 35.620960 64.004993 0
M  V30 25 C 38.391694 32.491908 57.668485 0
M  V30 26 N 38.667412 32.245856 58.948615 0
M  V30 27 C 37.138921 25.415372 54.859246 0
M  V30 28 O 38.958919 27.842262 57.739880 0 CHG=-1
M  V30 29 F 37.067559 23.621719 56.442298 0
M  V30 30 C 37.467429 26.753857 54.555483 0
M  V30 31 C 40.238202 33.718962 62.129150 0
M  V30 32 C 37.858816 31.358110 55.555059 0 CFG=1
M  V30 33 C 39.749945 32.691143 61.092147 0 CFG=2
M  V30 34 C 40.030353 35.905117 63.204733 0
M  V30 35 H 38.559604 31.916468 53.591933 0
M  V30 36 H 39.408660 32.714232 54.891251 0
M  V30 37 H 40.812770 30.957121 53.777306 0
M  V30 38 H 40.610383 30.694289 55.453943 0
M  V30 39 H 42.680326 34.180366 64.490200 0
M  V30 40 H 38.242182 25.312217 58.102847 0
M  V30 41 H 38.713843 35.184020 61.656755 0
M  V30 42 H 42.674552 31.970595 63.564221 0
M  V30 43 H 41.490193 31.442881 62.468022 0
M  V30 44 H 39.457568 34.116879 59.472620 0
M  V30 45 H 37.951450 33.661272 60.278505 0
M  V30 46 H 40.266271 28.602214 54.653512 0
M  V30 47 H 39.710237 29.170472 50.735526 0
M  V30 48 H 40.036286 30.594985 51.698285 0
M  V30 49 H 41.067349 29.166966 51.846591 0
M  V30 50 H 36.795204 29.962709 54.258634 0
M  V30 51 H 36.561417 29.696259 55.972199 0
M  V30 52 H 38.380584 30.479500 57.430175 0
M  V30 53 H 39.096728 27.867382 52.686643 0
M  V30 54 H 38.103594 29.290862 52.596968 0
M  V30 55 H 39.409217 37.606503 64.371031 0
M  V30 56 H 39.742535 37.959685 62.670899 0
M  V30 57 H 38.252821 37.118940 63.127544 0
M  V30 58 H 41.499599 36.346576 64.723991 0
M  V30 59 H 38.727290 31.278729 59.271636 0
M  V30 60 H 36.667362 24.792457 54.114068 0
M  V30 61 H 37.243533 27.160186 53.581759 0
M  V30 62 H 37.067420 32.087620 55.431802 0
M  V30 63 H 40.655936 32.279634 60.653408 0
M  V30 64 H 38.860078 29.247217 56.129895 0
M  V30 END ATOM
M  V30 BEGIN BOND
M  V30 1 1 2 1
M  V30 2 2 8 3
M  V30 3 1 12 8
M  V30 4 1 14 7
M  V30 5 1 14 11
M  V30 6 1 15 2
M  V30 7 1 15 4
M  V30 8 1 17 4
M  V30 9 2 17 12
M  V30 10 1 19 4
M  V30 11 1 21 15
M  V30 12 1 21 16
M  V30 13 1 22 5
M  V30 14 1 22 10
M  V30 15 2 22 18
M  V30 16 2 24 7
M  V30 17 2 25 6
M  V30 18 1 25 20
M  V30 19 1 26 13
M  V30 20 1 26 25
M  V30 21 1 27 3
M  V30 22 1 28 12
M  V30 23 1 29 3
M  V30 24 1 30 17
M  V30 25 2 30 27
M  V30 26 1 31 9
M  V30 27 2 31 14
M  V30 28 1 32 1
M  V30 29 1 32 19
M  V30 30 1 32 20
M  V30 31 1 33 13
M  V30 32 1 33 22
M  V30 33 1 33 31
M  V30 34 2 34 9
M  V30 35 1 34 23
M  V30 36 1 34 24
M  V30 37 1 35 1
M  V30 38 1 36 1
M  V30 39 1 37 2
M  V30 40 1 38 2
M  V30 41 1 39 7
M  V30 42 1 40 8
M  V30 43 1 41 9
M  V30 44 1 42 11
M  V30 45 1 43 11
M  V30 46 1 44 13
M  V30 47 1 45 13
M  V30 48 1 15 46 CFG=1
M  V30 49 1 47 16
M  V30 50 1 48 16
M  V30 51 1 49 16
M  V30 52 1 50 19
M  V30 53 1 51 19
M  V30 54 1 52 20
M  V30 55 1 53 21
M  V30 56 1 54 21
M  V30 57 1 55 23
M  V30 58 1 56 23
M  V30 59 1 57 23
M  V30 60 1 58 24
M  V30 61 1 59 26
M  V30 62 1 60 27
M  V30 63 1 61 30
M  V30 64 1 32 62 CFG=1
M  V30 65 1 33 63 CFG=3
M  V30 66 1 4 64 CFG=1
M  V30 END BOND
M  V30 END CTAB
M  END
>  <i_epik_Tot_Q>  (1) 
-2

>  <i_epik_Tot_abs_Q>  (1) 
4

>  <i_i_glide_confnum>  (1) 
8

>  <i_i_glide_lignum>  (1) 
35

>  <i_i_glide_posenum>  (1) 
337

>  <i_i_glide_rotatable_bonds>  (1) 
9

>  <i_lp_mmshare_version>  (1) 
72125

>  <i_m_source_file_index>  (1) 
11

>  <i_f3d_flags>  (1) 
0

>  <num_sample>  (1) 
50

>  <b_lp_Chiralities_Consistent>  (1) 
1

>  <r_epik_Charging_Adjusted_Penalty>  (1) 
1.3613781813755943

>  <r_epik_Ionization_Penalty>  (1) 
0.45221775539962494

>  <r_epik_Ionization_Penalty_Charging>  (1) 
0.45010221832775887

>  <r_epik_Ionization_Penalty_Neutral>  (1) 
0.0021155370718660637

>  <r_epik_State_Penalty>  (1) 
0.91127596304783554

>  <r_glide_ring_energy>  (1) 
0

>  <r_i_docking_score>  (1) 
-6.1216049946529374

>  <r_i_glide_ecoul>  (1) 
-3.0788335838276701

>  <r_i_glide_eff_state_penalty>  (1) 
0.91127596304783554

>  <r_i_glide_einternal>  (1) 
5.8640834331237208

>  <r_i_glide_emodel>  (1) 
-58.75249401515471

>  <r_i_glide_emodel_strain>  (1) 
2.0182635271549216

>  <r_i_glide_energy>  (1) 
-43.123962307810032

>  <r_i_glide_erotb>  (1) 
0.58773720055558498

>  <r_i_glide_esite>  (1) 
-0.19631584196203955

>  <r_i_glide_evdw>  (1) 
-40.045128723982366

>  <r_i_glide_gscore>  (1) 
-7.0328809577007734

>  <r_i_glide_gscore_strain>  (1) 
0

>  <r_i_glide_hbond>  (1) 
-0.13893477579282199

>  <r_i_glide_ligand_efficiency>  (1) 
-0.1800472057250864

>  <r_i_glide_ligand_efficiency_ln>  (1) 
-1.3524342485228911

>  <r_i_glide_ligand_efficiency_sa>  (1) 
-0.58328305245402479

>  <r_i_glide_lipo>  (1) 
-4.049506456628615

>  <r_i_glide_metal>  (1) 
-0

>  <r_i_glide_rewards>  (1) 
-0.77177961009961427

>  <r_lp_Energy>  (1) 
33.264645999999999

>  <s_epik_cmdline>  (1) 
J2VwaWtfcHl0aG9uJywgJy1waHQnLCAnMS4wJywgJy1waCcsICc3LjQnLCAnLXRuJywgJzgnLCAnLW1hJywgJzUwMCcsICctaW1hZScsICc8aW5maWxlLm1hZT4nLCAnLW9tYWUnLCAnPG91dGZpbGUubWFlPic=

>  <s_epik_input>  (1) 
RmMxW2NIXWMoW09IXSljKFtjSF1bY0hdMSlOMltDQEBIXShbQ0gyXVtDSDNdKVtDSDJdW0NIMl1bQ0BASF0oW0NIMl0yKVtOSF1DKD1PKVtOSF1bQ0gyXVtDQEhdKFAoPU8pKFtPSF0pW09IXSljM1tjSF1jKFtDSDNdKVtjSF1bY0hdYzNbTkgyXQ==

>  <s_glide_docking_method>  (1) 
confgen

>  <s_i_glide_gridfile>  (1) 
gpcr_5ht2c_6bqh_protein_autoprepared_prepared

>  <s_lp_Force_Field>  (1) 
S-OPLS

>  <s_lp_Variant>  (1) 
DiffSBDD_10_num_sample_50-4

>  <s_m_source_file>  (1) 
generated__ligand_DiffSBDD_2026-05-06_prepared.sdf

>  <GenAI_Model>  (1) 
DiffSBDD

>  <Protein>  (1) 
GPCR_5HT2C

$$$$
DiffSBDD_30_num_sample_50
     RDKit          3D

  0  0  0  0  0  0  0  0  0  0999 V3000
M  V30 BEGIN CTAB
M  V30 COUNTS 68 67 0 0 1
M  V30 BEGIN ATOM
M  V30 1 C 38.923313 30.858523 54.042491 0
M  V30 2 C 37.184966 33.558449 60.460079 0 CFG=2
M  V30 3 C 35.814462 33.510402 61.164695 0
M  V30 4 O 41.553739 36.006069 63.053487 0
M  V30 5 C 39.323929 36.893260 63.143247 0
M  V30 6 C 37.395257 35.953902 59.378441 0
M  V30 7 C 37.653407 27.523210 54.115713 0
M  V30 8 C 39.788798 28.096939 51.347900 0
M  V30 9 C 38.463779 32.399889 58.474380 0
M  V30 10 C 37.821765 34.986866 60.513015 0 CFG=2
M  V30 11 C 38.730496 29.603461 53.147814 0 CFG=1
M  V30 12 C 39.368134 34.912846 60.637245 0
M  V30 13 C 39.816315 29.480158 52.036157 0 CFG=2
M  V30 14 C 37.997222 32.184359 56.070592 0
M  V30 15 C 35.994987 36.534888 59.453530 0
M  V30 16 C 37.102646 32.869893 59.064525 0
M  V30 17 C 40.366943 35.843620 62.782596 0
M  V30 18 C 39.873416 34.577768 62.061336 0 CFG=2
M  V30 19 C 37.692598 31.227734 54.890627 0
M  V30 20 C 39.822372 30.588864 50.953472 0
M  V30 21 O 37.467403 30.460553 57.593084 0
M  V30 22 C 41.066434 30.592652 50.061292 0
M  V30 23 N 38.421792 31.514738 57.303626 0
M  V30 24 C 40.952387 33.477061 62.035186 0
M  V30 25 C 38.689900 28.375332 54.051018 0
M  V30 26 H 39.177178 31.734061 53.451229 0
M  V30 27 H 39.779563 30.696490 54.698697 0
M  V30 28 H 37.814570 32.915726 61.076704 0
M  V30 29 H 35.027710 33.968029 60.569007 0
M  V30 30 H 35.512245 32.478899 61.347054 0
M  V30 31 H 35.835948 34.013588 62.131947 0
M  V30 32 H 39.013235 37.434823 62.250138 0
M  V30 33 H 38.448919 36.425236 63.593310 0
M  V30 34 H 39.741309 37.608278 63.852947 0
M  V30 35 H 38.056447 36.821449 59.381758 0
M  V30 36 H 37.467404 35.479524 58.402365 0
M  V30 37 H 37.677239 26.667425 54.774657 0
M  V30 38 H 36.770765 27.671364 53.511197 0
M  V30 39 H 38.866943 27.960755 50.781030 0
M  V30 40 H 40.616881 27.986570 50.653593 0
M  V30 41 H 39.867375 27.268373 52.050527 0
M  V30 42 H 39.016393 31.872371 59.251812 0
M  V30 43 H 39.065062 33.263007 58.195083 0
M  V30 44 H 37.486407 35.465197 61.434051 0
M  V30 45 H 37.766906 29.621427 52.653502 0
M  V30 46 H 39.773787 34.197284 59.929604 0
M  V30 47 H 39.812023 35.856143 60.319195 0
M  V30 48 H 40.747049 29.621425 52.560008 0
M  V30 49 H 37.118745 32.793415 56.275050 0
M  V30 50 H 38.768835 32.895665 55.774810 0
M  V30 51 H 35.830527 37.221327 58.624388 0
M  V30 52 H 35.244986 35.751891 59.375504 0
M  V30 53 H 35.867409 37.106555 60.370576 0
M  V30 54 H 36.566937 33.495680 58.352273 0
M  V30 55 H 36.459546 32.001349 59.198996 0
M  V30 56 H 39.042146 34.189229 62.649051 0
M  V30 57 H 37.157529 30.334996 55.208207 0
M  V30 58 H 36.978739 31.741198 54.253467 0
M  V30 59 H 38.967229 30.482399 50.290943 0
M  V30 60 H 39.750975 31.575760 51.404957 0
M  V30 61 H 36.628157 30.918711 57.453504 0
M  V30 62 H 41.071839 31.493452 49.453508 0
M  V30 63 H 41.986854 30.576041 50.644370 0
M  V30 64 H 41.067392 29.748976 49.373368 0
M  V30 65 H 41.295044 33.237104 63.042982 0
M  V30 66 H 40.562928 32.556996 61.596566 0
M  V30 67 H 41.823234 33.782532 61.453857 0
M  V30 68 H 39.559012 28.201194 54.667778 0
M  V30 END ATOM
M  V30 BEGIN BOND
M  V30 1 1 3 2
M  V30 2 1 10 2
M  V30 3 1 10 6
M  V30 4 1 11 1
M  V30 5 1 12 10
M  V30 6 1 13 8
M  V30 7 1 13 11
M  V30 8 1 15 6
M  V30 9 1 16 2
M  V30 10 1 16 9
M  V30 11 2 17 4
M  V30 12 1 17 5
M  V30 13 1 18 12
M  V30 14 1 18 17
M  V30 15 1 19 1
M  V30 16 1 19 14
M  V30 17 1 20 13
M  V30 18 1 22 20
M  V30 19 1 23 9
M  V30 20 1 23 14
M  V30 21 1 23 21
M  V30 22 1 24 18
M  V30 23 2 25 7
M  V30 24 1 25 11
M  V30 25 1 26 1
M  V30 26 1 27 1
M  V30 27 1 2 28 CFG=1
M  V30 28 1 29 3
M  V30 29 1 30 3
M  V30 30 1 31 3
M  V30 31 1 32 5
M  V30 32 1 33 5
M  V30 33 1 34 5
M  V30 34 1 35 6
M  V30 35 1 36 6
M  V30 36 1 37 7
M  V30 37 1 38 7
M  V30 38 1 39 8
M  V30 39 1 40 8
M  V30 40 1 41 8
M  V30 41 1 42 9
M  V30 42 1 43 9
M  V30 43 1 10 44 CFG=1
M  V30 44 1 11 45 CFG=3
M  V30 45 1 46 12
M  V30 46 1 47 12
M  V30 47 1 13 48 CFG=1
M  V30 48 1 49 14
M  V30 49 1 50 14
M  V30 50 1 51 15
M  V30 51 1 52 15
M  V30 52 1 53 15
M  V30 53 1 54 16
M  V30 54 1 55 16
M  V30 55 1 18 56 CFG=1
M  V30 56 1 57 19
M  V30 57 1 58 19
M  V30 58 1 59 20
M  V30 59 1 60 20
M  V30 60 1 61 21
M  V30 61 1 62 22
M  V30 62 1 63 22
M  V30 63 1 64 22
M  V30 64 1 65 24
M  V30 65 1 66 24
M  V30 66 1 67 24
M  V30 67 1 68 25
M  V30 END BOND
M  V30 END CTAB
M  END
>  <i_epik_Tot_Q>  (1) 
0

>  <i_epik_Tot_abs_Q>  (1) 
0

>  <i_i_glide_confnum>  (1) 
5557

>  <i_i_glide_lignum>  (1) 
78

>  <i_i_glide_posenum>  (1) 
270

>  <i_i_glide_rotatable_bonds>  (1) 
16

>  <i_lp_mmshare_version>  (1) 
72125

>  <i_m_source_file_index>  (1) 
31

>  <i_f3d_flags>  (1) 
0

>  <num_sample>  (1) 
50

>  <b_lp_Chiralities_Consistent>  (1) 
1

>  <r_epik_Charging_Adjusted_Penalty>  (1) 
0.34658394344942783

>  <r_epik_Ionization_Penalty>  (1) 
0.015417953954219563

>  <r_epik_Ionization_Penalty_Charging>  (1) 
0

>  <r_epik_Ionization_Penalty_Neutral>  (1) 
0.015417953954219563

>  <r_epik_State_Penalty>  (1) 
0.34658394344942783

>  <r_glide_ring_energy>  (1) 
0

>  <r_i_docking_score>  (1) 
-6.1185107170740469

>  <r_i_glide_ecoul>  (1) 
-4.3212584432835479

>  <r_i_glide_eff_state_penalty>  (1) 
0.34658394344942783

>  <r_i_glide_einternal>  (1) 
13.418087719801862

>  <r_i_glide_emodel>  (1) 
-44.902568769828804

>  <r_i_glide_emodel_strain>  (1) 
1.3222345631154013

>  <r_i_glide_energy>  (1) 
-37.893335447580711

>  <r_i_glide_erotb>  (1) 
1.833058027080513

>  <r_i_glide_esite>  (1) 
-0.18122408282558355

>  <r_i_glide_evdw>  (1) 
-33.572077004297164

>  <r_i_glide_gscore>  (1) 
-6.4650946605234747

>  <r_i_glide_gscore_strain>  (1) 
0

>  <r_i_glide_hbond>  (1) 
-0.16

>  <r_i_glide_ligand_efficiency>  (1) 
-0.24474042868296186

>  <r_i_glide_ligand_efficiency_ln>  (1) 
-1.4502703969167405

>  <r_i_glide_ligand_efficiency_sa>  (1) 
-0.71562535472680144

>  <r_i_glide_lipo>  (1) 
-3.4967987288450892

>  <r_i_glide_metal>  (1) 
-0

>  <r_i_glide_rewards>  (1) 
-2.1333372592259252

>  <r_lp_Energy>  (1) 
19.892499999999998

>  <r_lp_tautomer_probability>  (1) 
0.9999999700000004

>  <s_epik_Chemistry_Notes>  (1) 
This compound has a N-S or N-O group and may undergo hydrolysis at high or low pH.

>  <s_epik_cmdline>  (1) 
J2VwaWtfcHl0aG9uJywgJy1waHQnLCAnMS4wJywgJy1waCcsICc3LjQnLCAnLXRuJywgJzgnLCAnLW1hJywgJzUwMCcsICctaW1hZScsICc8aW5maWxlLm1hZT4nLCAnLW9tYWUnLCAnPG91dGZpbGUubWFlPic=

>  <s_epik_input>  (1) 
W0NIM11bQ0gyXVtDQEhdKFtDSDNdKVtDQEBIXShbQ0hdPVtDSDJdKVtDSDJdW0NIMl1bQ0gyXU4oW09IXSlbQ0gyXVtDSDJdW0NASF0oW0NIM10pW0NASF0oW0NIMl1bQ0gzXSlbQ0gyXVtDQEhdKFtDSDNdKUMoPU8pW0NIM10=

>  <s_glide_docking_method>  (1) 
confgen

>  <s_i_glide_gridfile>  (1) 
gpcr_5ht2c_6bqh_protein_autoprepared_prepared

>  <s_lp_Force_Field>  (1) 
S-OPLS

>  <s_lp_Variant>  (1) 
DiffSBDD_30_num_sample_50-2

>  <s_m_source_file>  (1) 
generated__ligand_DiffSBDD_2026-05-06_prepared.sdf

>  <GenAI_Model>  (1) 
DiffSBDD

>  <Protein>  (1) 
GPCR_5HT2C

$$$$
DiffSBDD_26_num_sample_50
     RDKit          3D

  0  0  0  0  0  0  0  0  0  0999 V3000
M  V30 BEGIN CTAB
M  V30 COUNTS 96 102 0 0 1
M  V30 BEGIN ATOM
M  V30 1 C 38.531909 29.235537 57.545121 0
M  V30 2 N 38.547876 27.712667 55.427917 0
M  V30 3 C 40.267413 36.152198 68.126155 0
M  V30 4 C 41.798060 29.035279 63.183754 0
M  V30 5 N 37.815992 29.019918 53.878210 0 CHG=1
M  V30 6 N 39.591675 32.877015 60.589893 0
M  V30 7 C 36.550881 32.055104 61.188856 0
M  V30 8 C 37.100297 30.747457 59.180519 0
M  V30 9 C 39.605053 37.047360 65.953061 0
M  V30 10 C 38.303129 28.944154 56.046265 0
M  V30 11 C 41.068342 34.634504 61.758817 0
M  V30 12 C 38.847660 31.770102 57.451154 0
M  V30 13 O 44.798466 28.445283 63.856739 0
M  V30 14 C 39.580702 31.925859 61.717560 0
M  V30 15 N 40.890824 34.665409 63.234795 0 CFG=2 CHG=1
M  V30 16 C 38.239989 27.798919 54.130850 0
M  V30 17 S 40.267405 30.681012 64.640739 0
M  V30 18 C 41.726479 29.966425 65.430499 0
M  V30 19 C 38.371090 32.828109 59.729305 0 CFG=1
M  V30 20 N 38.336721 26.821461 53.233323 0
M  V30 21 C 39.589752 37.120048 67.359253 0
M  V30 22 C 41.783772 33.940973 65.387630 0
M  V30 23 C 37.833590 29.767486 55.022694 0
M  V30 24 C 41.667337 34.021412 68.314700 0
M  V30 25 C 41.005189 35.043085 66.075541 0
M  V30 26 C 39.879451 28.916120 58.185216 0
M  V30 27 C 40.883811 31.154444 61.978853 0
M  V30 28 C 43.754140 28.560747 64.797531 0
M  V30 29 C 42.696789 29.569682 64.313021 0 CFG=1
M  V30 30 C 38.660878 28.167158 58.639947 0
M  V30 31 C 39.769309 34.281993 61.017227 0
M  V30 32 C 40.960090 35.096931 67.484151 0
M  V30 33 O 36.269326 29.881096 59.453468 0
M  V30 34 C 40.346852 35.951570 63.770249 0
M  V30 35 C 35.644600 33.269551 61.289841 0
M  V30 36 O 40.267404 36.243287 69.489899 0
M  V30 37 C 38.700688 33.045996 58.249837 0
M  V30 38 C 35.067407 31.883986 61.194003 0
M  V30 39 C 40.630882 30.011797 62.997295 0 CFG=1
M  V30 40 C 39.055413 26.461313 56.029457 0
M  V30 41 C 37.917682 30.624275 57.868324 0 CFG=1
M  V30 42 N 37.308730 31.835826 59.982529 0
M  V30 43 C 42.123281 34.296521 63.950319 0
M  V30 44 C 40.318501 36.018441 65.304572 0
M  V30 45 H 41.388689 28.072407 63.494365 0
M  V30 46 H 42.322123 28.841568 62.253448 0
M  V30 47 H 37.021231 31.749707 62.118459 0
M  V30 48 H 39.082012 37.790201 65.371600 0
M  V30 49 H 41.426613 35.612341 61.430351 0
M  V30 50 H 41.847306 33.934172 61.456891 0
M  V30 51 H 39.867395 31.418251 57.453495 0
M  V30 52 H 38.682507 32.027745 56.406591 0
M  V30 53 H 45.319218 29.233210 63.873908 0
M  V30 54 H 39.192747 32.399234 62.619569 0
M  V30 55 H 38.918839 31.096680 61.496032 0
M  V30 56 H 42.169454 30.664845 66.141614 0
M  V30 57 H 41.409040 29.085750 65.990598 0
M  V30 58 H 37.820154 33.744688 59.940191 0
M  V30 59 H 38.651108 25.893564 53.477031 0
M  V30 60 H 38.065310 26.943417 52.265903 0
M  V30 61 H 39.055037 37.919876 67.850769 0
M  V30 62 H 42.717291 33.744894 65.912621 0
M  V30 63 H 41.187897 33.038052 65.443595 0
M  V30 64 H 37.516799 30.801067 55.033964 0
M  V30 65 H 42.746705 34.021398 68.158559 0
M  V30 66 H 41.488446 34.119484 69.385121 0
M  V30 67 H 41.295620 33.037666 68.024148 0
M  V30 68 H 40.627935 28.412239 57.581138 0
M  V30 69 H 40.292050 29.621357 58.903331 0
M  V30 70 H 41.206021 30.723369 61.032085 0
M  V30 71 H 41.684516 31.804325 62.320220 0
M  V30 72 H 44.185453 28.878548 65.747380 0
M  V30 73 H 43.307208 27.580605 64.964934 0
M  V30 74 H 43.197419 30.475098 63.966838 0
M  V30 75 H 38.358467 28.391122 59.660189 0
M  V30 76 H 38.584566 27.114624 58.408823 0
M  V30 77 H 38.905976 34.611001 61.599048 0
M  V30 78 H 39.766827 34.890768 60.112237 0
M  V30 79 H 39.335782 36.101857 63.390815 0
M  V30 80 H 40.949370 36.787152 63.411676 0
M  V30 81 H 35.584225 33.782673 62.246963 0
M  V30 82 H 35.524040 33.905959 60.414624 0
M  V30 83 H 40.821362 36.947866 69.812738 0
M  V30 84 H 37.902178 33.638633 57.798725 0
M  V30 85 H 39.613834 33.621411 58.140024 0
M  V30 86 H 34.571956 31.633656 60.256939 0
M  V30 87 H 34.667393 31.420817 62.089765 0
M  V30 88 H 39.766293 29.432464 62.667347 0
M  V30 89 H 39.372640 25.755220 55.263000 0
M  V30 90 H 39.928641 26.648215 56.646601 0
M  V30 91 H 38.259616 25.987967 56.603987 0
M  V30 92 H 37.067423 30.728416 57.208687 0
M  V30 93 H 42.796035 35.149234 63.937534 0
M  V30 94 H 42.638866 33.457823 63.484281 0
M  V30 95 H 37.518987 29.350929 52.970471 0
M  V30 96 H 40.225223 33.940729 63.462502 0
M  V30 END ATOM
M  V30 BEGIN BOND
M  V30 1 1 10 1
M  V30 2 1 10 2
M  V30 3 1 14 6
M  V30 4 1 15 11
M  V30 5 1 16 2
M  V30 6 2 16 5
M  V30 7 1 18 17
M  V30 8 1 19 6
M  V30 9 1 20 16
M  V30 10 1 21 3
M  V30 11 2 21 9
M  V30 12 1 23 5
M  V30 13 2 23 10
M  V30 14 1 25 22
M  V30 15 1 26 1
M  V30 16 1 27 14
M  V30 17 1 28 13
M  V30 18 1 29 4
M  V30 19 1 29 18
M  V30 20 1 29 28
M  V30 21 1 30 1
M  V30 22 1 30 26
M  V30 23 1 31 6
M  V30 24 1 31 11
M  V30 25 2 32 3
M  V30 26 1 32 24
M  V30 27 1 32 25
M  V30 28 2 33 8
M  V30 29 1 34 15
M  V30 30 1 35 7
M  V30 31 1 36 3
M  V30 32 1 37 12
M  V30 33 1 37 19
M  V30 34 1 38 7
M  V30 35 1 38 35
M  V30 36 1 39 4
M  V30 37 1 39 17
M  V30 38 1 39 27
M  V30 39 1 40 2
M  V30 40 1 41 1
M  V30 41 1 41 8
M  V30 42 1 41 12
M  V30 43 1 42 7
M  V30 44 1 42 8
M  V30 45 1 42 19
M  V30 46 1 43 15
M  V30 47 1 43 22
M  V30 48 1 44 9
M  V30 49 2 44 25
M  V30 50 1 44 34
M  V30 51 1 45 4
M  V30 52 1 46 4
M  V30 53 1 47 7
M  V30 54 1 48 9
M  V30 55 1 49 11
M  V30 56 1 50 11
M  V30 57 1 51 12
M  V30 58 1 52 12
M  V30 59 1 53 13
M  V30 60 1 54 14
M  V30 61 1 55 14
M  V30 62 1 56 18
M  V30 63 1 57 18
M  V30 64 1 19 58 CFG=1
M  V30 65 1 59 20
M  V30 66 1 60 20
M  V30 67 1 61 21
M  V30 68 1 62 22
M  V30 69 1 63 22
M  V30 70 1 64 23
M  V30 71 1 65 24
M  V30 72 1 66 24
M  V30 73 1 67 24
M  V30 74 1 68 26
M  V30 75 1 69 26
M  V30 76 1 70 27
M  V30 77 1 71 27
M  V30 78 1 72 28
M  V30 79 1 73 28
M  V30 80 1 29 74 CFG=3
M  V30 81 1 75 30
M  V30 82 1 76 30
M  V30 83 1 77 31
M  V30 84 1 78 31
M  V30 85 1 79 34
M  V30 86 1 80 34
M  V30 87 1 81 35
M  V30 88 1 82 35
M  V30 89 1 83 36
M  V30 90 1 84 37
M  V30 91 1 85 37
M  V30 92 1 86 38
M  V30 93 1 87 38
M  V30 94 1 39 88 CFG=3
M  V30 95 1 89 40
M  V30 96 1 90 40
M  V30 97 1 91 40
M  V30 98 1 41 92 CFG=3
M  V30 99 1 93 43
M  V30 100 1 94 43
M  V30 101 1 95 5
M  V30 102 1 15 96 CFG=3
M  V30 END BOND
M  V30 END CTAB
M  END
>  <i_epik_Tot_Q>  (1) 
2

>  <i_epik_Tot_abs_Q>  (1) 
2

>  <i_i_glide_confnum>  (1) 
7249

>  <i_i_glide_lignum>  (1) 
68

>  <i_i_glide_posenum>  (1) 
379

>  <i_i_glide_rotatable_bonds>  (1) 
13

>  <i_lp_mmshare_version>  (1) 
72125

>  <i_m_source_file_index>  (1) 
27

>  <i_f3d_flags>  (1) 
0

>  <num_sample>  (1) 
50

>  <b_lp_Chiralities_Consistent>  (1) 
1

>  <r_epik_Charging_Adjusted_Penalty>  (1) 
0.023035094209541071

>  <r_epik_Ionization_Penalty>  (1) 
0.04084289902745275

>  <r_epik_Ionization_Penalty_Charging>  (1) 
0.023035094209541071

>  <r_epik_Ionization_Penalty_Neutral>  (1) 
0.017807804817911676

>  <r_epik_State_Penalty>  (1) 
-0

>  <r_glide_ring_energy>  (1) 
0

>  <r_i_docking_score>  (1) 
-6.1085475318199949

>  <r_i_glide_ecoul>  (1) 
-1.3301639051005907

>  <r_i_glide_eff_state_penalty>  (1) 
-0

>  <r_i_glide_einternal>  (1) 
16.141891383555404

>  <r_i_glide_emodel>  (1) 
-54.066021763510427

>  <r_i_glide_emodel_strain>  (1) 
5.0573658599798392

>  <r_i_glide_energy>  (1) 
-49.676691463116789

>  <r_i_glide_erotb>  (1) 
0.45984128746928787

>  <r_i_glide_esite>  (1) 
-0.12493570951284803

>  <r_i_glide_evdw>  (1) 
-48.346527558016199

>  <r_i_glide_gscore>  (1) 
-6.1085475318199949

>  <r_i_glide_gscore_strain>  (1) 
0.26434146499495981

>  <r_i_glide_hbond>  (1) 
-0.14108941843978101

>  <r_i_glide_ligand_efficiency>  (1) 
-0.13883062572318169

>  <r_i_glide_ligand_efficiency_ln>  (1) 
-1.2768196913668495

>  <r_i_glide_ligand_efficiency_sa>  (1) 
-0.49012046841411033

>  <r_i_glide_lipo>  (1) 
-3.0594496704820449

>  <r_i_glide_metal>  (1) 
-0

>  <r_i_glide_rewards>  (1) 
-0.89040452218366939

>  <r_lp_Energy>  (1) 
49.558928999999999

>  <r_lp_tautomer_probability>  (1) 
1

>  <s_epik_Chemistry_Notes>  (1) 
This compound contains an acetal/aminal-like group ( X-CH(R)-Y where X, Y are N, S, or O) that may be acid/base labile, releasing an aldehyde.

>  <s_epik_cmdline>  (1) 
J2VwaWtfcHl0aG9uJywgJy1waHQnLCAnMS4wJywgJy1waCcsICc3LjQnLCAnLXRuJywgJzgnLCAnLW1hJywgJzUwMCcsICctaW1hZScsICc8aW5maWxlLm1hZT4nLCAnLW9tYWUnLCAnPG91dGZpbGUubWFlPic=

>  <s_epik_input>  (1) 
W05IMl1jMW5bY0hdYyhuMVtDSDNdKUMyKFtDSDJdW0NIMl0yKVtDQEBIXShDMz1PKVtDSDJdW0NIMl1bQ0BASF0oTjNbQ0hdNFtDSDJdW0NIMl00KU4oW0NIMl1bQ0gyXVtDQEhdKFNbQ0gyXTUpW0NIMl1bQ0BASF01W0NIMl1bT0hdKVtDSDJdW0NIMl1OKFtDSDJdW0NIMl02KVtDSDJdYyhjNjcpW2NIXVtjSF1jKFtPSF0pYzdbQ0gzXQ==

>  <s_glide_docking_method>  (1) 
confgen

>  <s_i_glide_gridfile>  (1) 
gpcr_5ht2c_6bqh_protein_autoprepared_prepared

>  <s_lp_Force_Field>  (1) 
S-OPLS

>  <s_lp_Variant>  (1) 
DiffSBDD_26_num_sample_50-1

>  <s_m_source_file>  (1) 
generated__ligand_DiffSBDD_2026-05-06_prepared.sdf

>  <GenAI_Model>  (1) 
DiffSBDD

>  <Protein>  (1) 
GPCR_5HT2C

$$$$
DiffSBDD_12_num_sample_50
     RDKit          3D

  0  0  0  0  0  0  0  0  0  0999 V3000
M  V30 BEGIN CTAB
M  V30 COUNTS 70 72 0 0 1
M  V30 BEGIN ATOM
M  V30 1 C 36.705522 37.073183 59.318671 0
M  V30 2 C 38.302183 28.240265 55.932580 0
M  V30 3 C 38.269346 30.619060 58.342959 0
M  V30 4 O 37.574908 32.858288 59.110063 0
M  V30 5 N 38.225173 29.633908 55.934261 0
M  V30 6 F 39.867640 29.221005 49.419739 0
M  V30 7 N 38.470879 29.649612 59.132687 0
M  V30 8 C 37.981573 36.315434 61.389464 0
M  V30 9 C 39.759329 26.200855 57.962655 0
M  V30 10 C 37.547348 37.459541 60.495407 0
M  V30 11 C 36.487253 35.591144 59.590110 0
M  V30 12 C 37.220714 33.892306 61.318280 0
M  V30 13 C 39.803967 28.981542 50.732505 0
M  V30 14 C 39.866751 30.421226 52.804319 0
M  V30 15 N 37.949468 27.628526 57.126366 0
M  V30 16 N 38.750968 30.372950 54.870142 0
M  V30 17 C 38.671415 32.049647 58.696257 0
M  V30 18 C 37.287173 36.493475 62.761973 0
M  V30 19 N 38.702430 27.574796 54.887030 0
M  V30 20 O 34.667729 33.084096 60.334538 0
M  V30 21 C 38.971028 27.467245 52.540231 0
M  V30 22 C 37.588784 30.446527 56.981464 0
M  V30 23 O 40.667394 26.426623 56.907005 0
M  V30 24 C 37.079894 32.628550 60.428763 0 CFG=1
M  V30 25 C 39.515284 36.255563 61.540477 0
M  V30 26 C 39.006962 28.234061 53.679225 0
M  V30 27 C 39.143219 27.898969 51.144777 0
M  V30 28 C 39.226702 29.714497 53.750487 0
M  V30 29 C 40.546878 29.868080 51.606566 0
M  V30 30 C 34.102736 33.268912 59.053377 0
M  V30 31 C 38.318870 26.253425 57.421299 0
M  V30 32 C 35.649195 32.061267 60.379000 0
M  V30 33 O 37.867215 38.627033 60.717276 0
M  V30 34 N 37.515154 35.148559 60.574794 0 CFG=2 CHG=1
M  V30 35 H 37.287664 37.221637 58.412391 0
M  V30 36 H 35.768529 37.621423 59.274266 0
M  V30 37 H 38.932614 29.913446 59.991310 0
M  V30 38 H 36.596091 30.021574 57.148063 0
M  V30 39 H 39.916806 26.914915 58.774171 0
M  V30 40 H 39.970303 25.221252 58.368611 0
M  V30 41 H 36.567352 35.036671 58.655558 0
M  V30 42 H 35.485190 35.438559 59.982154 0
M  V30 43 H 36.338510 34.020751 61.943802 0
M  V30 44 H 38.054183 33.721482 61.999752 0
M  V30 45 H 39.977460 31.486680 52.943739 0
M  V30 46 H 37.677037 28.172481 57.935467 0
M  V30 47 H 38.768395 31.380380 54.941073 0
M  V30 48 H 39.436706 32.055889 59.477460 0
M  V30 49 H 37.217025 37.543683 63.050334 0
M  V30 50 H 36.271234 36.102166 62.788577 0
M  V30 51 H 37.862834 36.021669 63.552862 0
M  V30 52 H 38.723267 26.423682 52.681022 0
M  V30 53 H 39.117363 32.519081 57.818230 0
M  V30 54 H 37.467264 31.447713 56.570575 0
M  V30 55 H 41.488609 25.970042 57.048348 0
M  V30 56 H 37.678841 31.849947 60.906151 0
M  V30 57 H 39.923840 37.195932 61.916191 0
M  V30 58 H 39.813108 35.471290 62.236591 0
M  V30 59 H 40.006516 36.018212 60.595645 0
M  V30 60 H 38.702012 27.275229 50.383619 0
M  V30 61 H 41.390464 29.227476 51.853576 0
M  V30 62 H 40.947809 30.698081 51.023356 0
M  V30 63 H 33.242317 33.936847 59.101094 0
M  V30 64 H 34.823282 33.699385 58.360218 0
M  V30 65 H 33.776779 32.314620 58.653561 0
M  V30 66 H 37.637443 25.878894 58.185342 0
M  V30 67 H 38.201793 25.610365 56.547346 0
M  V30 68 H 35.540972 31.325596 59.580263 0
M  V30 69 H 35.460363 31.518211 61.303374 0
M  V30 70 H 38.303634 34.920424 59.985080 0
M  V30 END ATOM
M  V30 BEGIN BOND
M  V30 1 1 5 2
M  V30 2 2 7 3
M  V30 3 1 10 1
M  V30 4 1 10 8
M  V30 5 1 11 1
M  V30 6 1 13 6
M  V30 7 1 15 2
M  V30 8 1 16 5
M  V30 9 1 17 3
M  V30 10 1 17 4
M  V30 11 1 18 8
M  V30 12 2 19 2
M  V30 13 1 22 3
M  V30 14 1 22 5
M  V30 15 1 23 9
M  V30 16 1 24 4
M  V30 17 1 24 12
M  V30 18 1 25 8
M  V30 19 1 26 19
M  V30 20 2 26 21
M  V30 21 2 27 13
M  V30 22 1 27 21
M  V30 23 2 28 14
M  V30 24 1 28 16
M  V30 25 1 28 26
M  V30 26 1 29 13
M  V30 27 1 29 14
M  V30 28 1 30 20
M  V30 29 1 31 9
M  V30 30 1 31 15
M  V30 31 1 32 20
M  V30 32 1 32 24
M  V30 33 2 33 10
M  V30 34 1 34 8
M  V30 35 1 34 11
M  V30 36 1 34 12
M  V30 37 1 35 1
M  V30 38 1 36 1
M  V30 39 1 37 7
M  V30 40 1 38 22
M  V30 41 1 39 9
M  V30 42 1 40 9
M  V30 43 1 41 11
M  V30 44 1 42 11
M  V30 45 1 43 12
M  V30 46 1 44 12
M  V30 47 1 45 14
M  V30 48 1 46 15
M  V30 49 1 47 16
M  V30 50 1 48 17
M  V30 51 1 49 18
M  V30 52 1 50 18
M  V30 53 1 51 18
M  V30 54 1 52 21
M  V30 55 1 53 17
M  V30 56 1 54 22
M  V30 57 1 55 23
M  V30 58 1 24 56 CFG=1
M  V30 59 1 57 25
M  V30 60 1 58 25
M  V30 61 1 59 25
M  V30 62 1 60 27
M  V30 63 1 61 29
M  V30 64 1 62 29
M  V30 65 1 63 30
M  V30 66 1 64 30
M  V30 67 1 65 30
M  V30 68 1 66 31
M  V30 69 1 67 31
M  V30 70 1 68 32
M  V30 71 1 69 32
M  V30 72 1 34 70 CFG=3
M  V30 END BOND
M  V30 END CTAB
M  END
>  <i_epik_Tot_Q>  (1) 
1

>  <i_epik_Tot_abs_Q>  (1) 
1

>  <i_i_glide_confnum>  (1) 
2519

>  <i_i_glide_lignum>  (1) 
41

>  <i_i_glide_posenum>  (1) 
37

>  <i_i_glide_rotatable_bonds>  (1) 
13

>  <i_lp_mmshare_version>  (1) 
72125

>  <i_m_source_file_index>  (1) 
13

>  <i_f3d_flags>  (1) 
0

>  <num_sample>  (1) 
50

>  <b_lp_Chiralities_Consistent>  (1) 
1

>  <r_epik_Charging_Adjusted_Penalty>  (1) 
2.2216491605189868

>  <r_epik_Ionization_Penalty>  (1) 
0.91881204336881139

>  <r_epik_Ionization_Penalty_Charging>  (1) 
0.90548466078319156

>  <r_epik_Ionization_Penalty_Neutral>  (1) 
0.013327382585619883

>  <r_epik_State_Penalty>  (1) 
1.3161644997357953

>  <r_glide_ring_energy>  (1) 
0

>  <r_i_docking_score>  (1) 
-6.1043042134564152

>  <r_i_glide_ecoul>  (1) 
-4.7205950645390162

>  <r_i_glide_eff_state_penalty>  (1) 
1.3161644997357953

>  <r_i_glide_einternal>  (1) 
10.240120879955017

>  <r_i_glide_emodel>  (1) 
-63.90599270179581

>  <r_i_glide_emodel_strain>  (1) 
3.6315427630153039

>  <r_i_glide_energy>  (1) 
-50.622080573740149

>  <r_i_glide_erotb>  (1) 
0.96958307808003152

>  <r_i_glide_esite>  (1) 
-0.067686158208089806

>  <r_i_glide_evdw>  (1) 
-45.90148550920113

>  <r_i_glide_gscore>  (1) 
-7.4204687131922107

>  <r_i_glide_gscore_strain>  (1) 
0

>  <r_i_glide_hbond>  (1) 
-0.32000000000000001

>  <r_i_glide_ligand_efficiency>  (1) 
-0.17953835921930633

>  <r_i_glide_ligand_efficiency_ln>  (1) 
-1.3486120206861039

>  <r_i_glide_ligand_efficiency_sa>  (1) 
-0.58163458730886086

>  <r_i_glide_lipo>  (1) 
-3.4328040956503214

>  <r_i_glide_metal>  (1) 
-0

>  <r_i_glide_rewards>  (1) 
-1.5663980022729205

>  <r_lp_Energy>  (1) 
33.115794999999999

>  <r_lp_tautomer_probability>  (1) 
0.49996700039999997

>  <s_epik_Chemistry_Notes>  (1) 
This compound has an imine and may undergo hydrolysis.

>  <s_epik_cmdline>  (1) 
J2VwaWtfcHl0aG9uJywgJy1waHQnLCAnMS4wJywgJy1waCcsICc3LjQnLCAnLXRuJywgJzgnLCAnLW1hJywgJzUwMCcsICctaW1hZScsICc8aW5maWxlLm1hZT4nLCAnLW9tYWUnLCAnPG91dGZpbGUubWFlPic=

>  <s_epik_input>  (1) 
W0NIM11DMShbQ0gzXSlDKD1PKVtDSDJdW0NIMl1OMVtDSDJdW0NAQEhdKFtDSDJdT1tDSDNdKU8vW0NIXT1DKFxbTkgyXSlbQ0gyXU4oQyg9TjIpW05IXVtDSDJdW0NIMl1bT0hdKVtOSF1DKEMyMyk9W0NIXVtDSDJdQyhGKT1bQ0hdW0NIXT0z

>  <s_glide_docking_method>  (1) 
confgen

>  <s_i_glide_gridfile>  (1) 
gpcr_5ht2c_6bqh_protein_autoprepared_prepared

>  <s_lp_Force_Field>  (1) 
S-OPLS

>  <s_lp_Variant>  (1) 
DiffSBDD_12_num_sample_50-3

>  <s_m_source_file>  (1) 
generated__ligand_DiffSBDD_2026-05-06_prepared.sdf

>  <GenAI_Model>  (1) 
DiffSBDD

>  <Protein>  (1) 
GPCR_5HT2C

$$$$
DiffSBDD_30_num_sample_50
     RDKit          3D

  0  0  0  0  0  0  0  0  0  0999 V3000
M  V30 BEGIN CTAB
M  V30 COUNTS 68 67 0 0 1
M  V30 BEGIN ATOM
M  V30 1 C 39.244090 30.123548 53.885427 0
M  V30 2 C 37.122871 33.602055 60.306951 0 CFG=2
M  V30 3 C 36.565368 34.818888 59.536712 0
M  V30 4 O 39.867397 37.970127 62.543970 0
M  V30 5 C 39.386911 36.821396 64.600266 0
M  V30 6 C 38.783984 32.719249 62.045504 0
M  V30 7 C 39.467376 27.183806 54.537237 0
M  V30 8 C 39.548877 27.849612 50.661264 0
M  V30 9 C 38.009267 32.458964 58.152401 0
M  V30 10 C 38.505814 33.831367 60.994774 0 CFG=2
M  V30 11 C 38.920850 29.013641 52.847365 0 CFG=1
M  V30 12 C 38.616560 35.247464 61.608900 0
M  V30 13 C 39.881198 29.004172 51.612778 0 CFG=2
M  V30 14 C 38.628745 31.358167 56.023811 0
M  V30 15 C 40.130335 32.006092 61.863178 0
M  V30 16 C 37.111158 32.349601 59.400392 0
M  V30 17 C 39.737876 36.892013 63.120312 0
M  V30 18 C 39.916166 35.570023 62.379642 0 CFG=2
M  V30 19 C 38.274641 30.200124 55.079073 0
M  V30 20 C 39.947067 30.337808 50.830570 0
M  V30 21 O 38.252403 30.106722 58.003229 0 CHG=-1
M  V30 22 C 41.140504 30.431783 49.878002 0
M  V30 23 N 37.867403 31.211034 57.320369 0 CFG=1 CHG=1
M  V30 24 C 41.154756 35.658156 61.474947 0
M  V30 25 C 38.790256 27.613793 53.458509 0
M  V30 26 H 40.267424 30.015801 54.245662 0
M  V30 27 H 39.202915 31.101160 53.411124 0
M  V30 28 H 36.400955 33.414215 61.103379 0
M  V30 29 H 37.274533 35.194187 58.799254 0
M  V30 30 H 35.645778 34.562035 59.009186 0
M  V30 31 H 36.314476 35.640715 60.207022 0
M  V30 32 H 40.073963 36.156093 65.122286 0
M  V30 33 H 39.460039 37.810702 65.052228 0
M  V30 34 H 38.370502 36.451684 64.731910 0
M  V30 35 H 38.732689 33.122807 63.053474 0
M  V30 36 H 38.001549 31.961755 62.030448 0
M  V30 37 H 40.166105 27.824204 55.053618 0
M  V30 38 H 39.327656 26.181976 54.915436 0
M  V30 39 H 38.555969 27.991872 50.253503 0
M  V30 40 H 40.267172 27.809698 49.853503 0
M  V30 41 H 39.581327 26.868058 51.132287 0
M  V30 42 H 39.067425 32.555219 58.392685 0
M  V30 43 H 37.702386 33.290471 57.517120 0
M  V30 44 H 39.276569 33.780494 60.226872 0
M  V30 45 H 37.918617 29.221427 52.473110 0
M  V30 46 H 38.525539 35.988633 60.814195 0
M  V30 47 H 37.753047 35.409819 62.253488 0
M  V30 48 H 40.897731 28.820520 51.936016 0
M  V30 49 H 39.688581 31.370465 56.283326 0
M  V30 50 H 38.355306 32.317544 55.582054 0
M  V30 51 H 40.238274 31.198929 62.588102 0
M  V30 52 H 40.214205 31.567809 60.868587 0
M  V30 53 H 40.967506 32.686606 62.007454 0
M  V30 54 H 36.086773 32.160760 59.076451 0
M  V30 55 H 37.393303 31.467239 59.973187 0
M  V30 56 H 40.099136 34.811964 63.139232 0
M  V30 57 H 37.250167 30.323147 54.724536 0
M  V30 58 H 38.291421 29.265612 55.635983 0
M  V30 59 H 39.040777 30.493143 50.253893 0
M  V30 60 H 40.034000 31.189818 51.499665 0
M  V30 61 H 41.177322 31.427644 49.447794 0
M  V30 62 H 42.082130 30.273672 50.402921 0
M  V30 63 H 41.067401 29.723401 49.053939 0
M  V30 64 H 42.011883 36.021193 62.041120 0
M  V30 65 H 41.420251 34.693004 61.053839 0
M  V30 66 H 41.003731 36.354328 60.653503 0
M  V30 67 H 38.098918 26.941844 52.969217 0
M  V30 68 H 36.850284 31.192804 57.054414 0
M  V30 END ATOM
M  V30 BEGIN BOND
M  V30 1 1 3 2
M  V30 2 1 10 2
M  V30 3 1 10 6
M  V30 4 1 11 1
M  V30 5 1 12 10
M  V30 6 1 13 8
M  V30 7 1 13 11
M  V30 8 1 15 6
M  V30 9 1 16 2
M  V30 10 1 16 9
M  V30 11 2 17 4
M  V30 12 1 17 5
M  V30 13 1 18 12
M  V30 14 1 18 17
M  V30 15 1 19 1
M  V30 16 1 19 14
M  V30 17 1 20 13
M  V30 18 1 22 20
M  V30 19 1 23 9
M  V30 20 1 23 14
M  V30 21 1 23 21
M  V30 22 1 24 18
M  V30 23 2 25 7
M  V30 24 1 25 11
M  V30 25 1 26 1
M  V30 26 1 27 1
M  V30 27 1 2 28 CFG=1
M  V30 28 1 29 3
M  V30 29 1 30 3
M  V30 30 1 31 3
M  V30 31 1 32 5
M  V30 32 1 33 5
M  V30 33 1 34 5
M  V30 34 1 35 6
M  V30 35 1 36 6
M  V30 36 1 37 7
M  V30 37 1 38 7
M  V30 38 1 39 8
M  V30 39 1 40 8
M  V30 40 1 41 8
M  V30 41 1 42 9
M  V30 42 1 43 9
M  V30 43 1 10 44 CFG=3
M  V30 44 1 11 45 CFG=3
M  V30 45 1 46 12
M  V30 46 1 47 12
M  V30 47 1 13 48 CFG=1
M  V30 48 1 49 14
M  V30 49 1 50 14
M  V30 50 1 51 15
M  V30 51 1 52 15
M  V30 52 1 53 15
M  V30 53 1 54 16
M  V30 54 1 55 16
M  V30 55 1 18 56 CFG=1
M  V30 56 1 57 19
M  V30 57 1 58 19
M  V30 58 1 59 20
M  V30 59 1 60 20
M  V30 60 1 61 22
M  V30 61 1 62 22
M  V30 62 1 63 22
M  V30 63 1 64 24
M  V30 64 1 65 24
M  V30 65 1 66 24
M  V30 66 1 67 25
M  V30 67 1 23 68 CFG=3
M  V30 END BOND
M  V30 END CTAB
M  END
>  <i_epik_Tot_Q>  (1) 
0

>  <i_epik_Tot_abs_Q>  (1) 
2

>  <i_i_glide_confnum>  (1) 
2102

>  <i_i_glide_lignum>  (1) 
82

>  <i_i_glide_posenum>  (1) 
241

>  <i_i_glide_rotatable_bonds>  (1) 
15

>  <i_lp_mmshare_version>  (1) 
72125

>  <i_m_source_file_index>  (1) 
31

>  <i_f3d_flags>  (1) 
0

>  <num_sample>  (1) 
50

>  <b_lp_Chiralities_Consistent>  (1) 
1

>  <r_epik_Charging_Adjusted_Penalty>  (1) 
0.52251968911758562

>  <r_epik_Ionization_Penalty>  (1) 
0.019979657236955634

>  <r_epik_Ionization_Penalty_Charging>  (1) 
0.019979657236557934

>  <r_epik_Ionization_Penalty_Neutral>  (1) 
3.9770064437045143e-13

>  <r_epik_State_Penalty>  (1) 
0.50254003188102769

>  <r_glide_ring_energy>  (1) 
0

>  <r_i_docking_score>  (1) 
-6.0938052527964626

>  <r_i_glide_ecoul>  (1) 
-5.6679347164842477

>  <r_i_glide_eff_state_penalty>  (1) 
0.50254003188102769

>  <r_i_glide_einternal>  (1) 
6.0287958303870361

>  <r_i_glide_emodel>  (1) 
-53.053860771778361

>  <r_i_glide_emodel_strain>  (1) 
0.17706474953623541

>  <r_i_glide_energy>  (1) 
-41.066486001061072

>  <r_i_glide_erotb>  (1) 
1.833058027080513

>  <r_i_glide_esite>  (1) 
-0.10000000000000001

>  <r_i_glide_evdw>  (1) 
-35.398551284576826

>  <r_i_glide_gscore>  (1) 
-6.5963452846774899

>  <r_i_glide_gscore_strain>  (1) 
0

>  <r_i_glide_hbond>  (1) 
-0.16

>  <r_i_glide_ligand_efficiency>  (1) 
-0.24375221011185849

>  <r_i_glide_ligand_efficiency_ln>  (1) 
-1.4444144615199324

>  <r_i_glide_ligand_efficiency_sa>  (1) 
-0.71273578609566379

>  <r_i_glide_lipo>  (1) 
-3.6143256981817227

>  <r_i_glide_metal>  (1) 
-0

>  <r_i_glide_rewards>  (1) 
-1.9349598418748017

>  <r_lp_Energy>  (1) 
17.351582999999998

>  <s_epik_cmdline>  (1) 
J2VwaWtfcHl0aG9uJywgJy1waHQnLCAnMS4wJywgJy1waCcsICc3LjQnLCAnLXRuJywgJzgnLCAnLW1hJywgJzUwMCcsICctaW1hZScsICc8aW5maWxlLm1hZT4nLCAnLW9tYWUnLCAnPG91dGZpbGUubWFlPic=

>  <s_epik_input>  (1) 
W0NIM11bQ0gyXVtDQEhdKFtDSDNdKVtDQEBIXShbQ0hdPVtDSDJdKVtDSDJdW0NIMl1bQ0gyXU4oW09IXSlbQ0gyXVtDSDJdW0NASF0oW0NIM10pW0NASF0oW0NIMl1bQ0gzXSlbQ0gyXVtDQEhdKFtDSDNdKUMoPU8pW0NIM10=

>  <s_glide_docking_method>  (1) 
confgen

>  <s_i_glide_gridfile>  (1) 
gpcr_5ht2c_6bqh_protein_autoprepared_prepared

>  <s_lp_Force_Field>  (1) 
S-OPLS

>  <s_lp_Variant>  (1) 
DiffSBDD_30_num_sample_50-6

>  <s_m_source_file>  (1) 
generated__ligand_DiffSBDD_2026-05-06_prepared.sdf

>  <GenAI_Model>  (1) 
DiffSBDD

>  <Protein>  (1) 
GPCR_5HT2C

$$$$
DiffSBDD_10_num_sample_50
     RDKit          3D

  0  0  0  0  0  0  0  0  0  0999 V3000
M  V30 BEGIN CTAB
M  V30 COUNTS 65 67 0 0 1
M  V30 BEGIN ATOM
M  V30 1 C 37.851084 29.753103 58.874358 0
M  V30 2 C 38.703280 28.519716 58.569418 0
M  V30 3 C 38.998635 28.393684 52.012633 0
M  V30 4 N 38.829925 29.237965 56.187579 0
M  V30 5 O 38.448711 37.777792 61.453501 0 CHG=-1
M  V30 6 O 39.196408 33.226698 59.155165 0
M  V30 7 C 41.231366 33.556156 62.075255 0
M  V30 8 C 39.467396 29.624126 52.502906 0
M  V30 9 C 38.528359 32.787243 62.253435 0
M  V30 10 O 36.267406 37.136163 62.653481 0
M  V30 11 N 40.583363 35.773260 61.346685 0
M  V30 12 C 39.404877 29.909445 53.881397 0
M  V30 13 C 37.425661 35.282861 59.997725 0
M  V30 14 C 40.222037 34.489830 61.758646 0
M  V30 15 C 38.660712 28.065985 57.082910 0 CFG=1
M  V30 16 C 39.464340 25.644763 57.571054 0
M  V30 17 C 38.872273 28.950418 54.787085 0
M  V30 18 O 38.509932 36.633221 63.731306 0
M  V30 19 C 37.994484 30.416538 56.487643 0
M  V30 20 N 37.467403 32.081487 58.259556 0
M  V30 21 C 39.792138 26.998290 56.922874 0
M  V30 22 P 37.894729 36.785254 62.399071 0
M  V30 23 C 39.193207 30.457898 62.990015 0
M  V30 24 C 40.895300 32.252350 62.475938 0
M  V30 25 C 38.003217 33.133208 58.894765 0
M  V30 26 N 37.088596 34.058034 59.238944 0
M  V30 27 C 38.462179 27.441675 52.896542 0
M  V30 28 O 39.888671 31.095997 54.344122 0
M  V30 29 F 39.067381 28.123570 50.687811 0
M  V30 30 C 38.398140 27.710386 54.276054 0
M  V30 31 C 38.851033 34.105979 61.853502 0
M  V30 32 C 38.241084 30.888596 57.921391 0 CFG=1
M  V30 33 C 37.708109 35.094075 61.514981 0 CFG=2
M  V30 34 C 39.548053 31.865466 62.562248 0
M  V30 35 H 38.001805 30.058007 59.910688 0
M  V30 36 H 36.792279 29.513991 58.766220 0
M  V30 37 H 39.730581 28.754268 58.851728 0
M  V30 38 H 38.391783 27.706741 59.223633 0
M  V30 39 H 42.267403 33.838743 62.005903 0
M  V30 40 H 39.882106 30.352091 51.820604 0
M  V30 41 H 37.494130 32.485340 62.320879 0
M  V30 42 H 36.064111 36.786212 63.506917 0
M  V30 43 H 41.542062 36.081556 61.400223 0
M  V30 44 H 39.880881 36.503258 61.237683 0
M  V30 45 H 38.267393 35.798220 59.557441 0
M  V30 46 H 36.586675 35.969853 59.884087 0
M  V30 47 H 37.679772 27.626469 56.899487 0
M  V30 48 H 40.256463 24.923010 57.370406 0
M  V30 49 H 39.363842 25.721195 58.653074 0
M  V30 50 H 38.536591 25.233117 57.173304 0
M  V30 51 H 38.113944 31.256307 55.809617 0
M  V30 52 H 36.950744 30.117420 56.379762 0
M  V30 53 H 36.470883 32.078356 58.028000 0
M  V30 54 H 40.048499 26.792844 55.887505 0
M  V30 55 H 40.723562 27.380506 57.342409 0
M  V30 56 H 39.976158 29.751427 62.713908 0
M  V30 57 H 39.067402 30.421431 64.071890 0
M  V30 58 H 38.267403 30.126338 62.522690 0
M  V30 59 H 41.675868 31.545999 62.715239 0
M  V30 60 H 36.122928 33.910783 58.986550 0
M  V30 61 H 38.100031 26.499735 52.517086 0
M  V30 62 H 39.840340 31.124068 55.289585 0
M  V30 63 H 37.982485 26.967404 54.936901 0
M  V30 64 H 39.309106 31.080136 58.011623 0
M  V30 65 H 36.793752 34.652241 61.905865 0
M  V30 END ATOM
M  V30 BEGIN BOND
M  V30 1 1 2 1
M  V30 2 2 8 3
M  V30 3 1 12 8
M  V30 4 1 14 7
M  V30 5 1 14 11
M  V30 6 1 15 2
M  V30 7 1 15 4
M  V30 8 1 17 4
M  V30 9 2 17 12
M  V30 10 1 19 4
M  V30 11 1 21 15
M  V30 12 1 21 16
M  V30 13 1 22 5
M  V30 14 1 22 10
M  V30 15 2 22 18
M  V30 16 2 24 7
M  V30 17 2 25 6
M  V30 18 1 25 20
M  V30 19 1 26 13
M  V30 20 1 26 25
M  V30 21 1 27 3
M  V30 22 1 28 12
M  V30 23 1 29 3
M  V30 24 1 30 17
M  V30 25 2 30 27
M  V30 26 1 31 9
M  V30 27 2 31 14
M  V30 28 1 32 1
M  V30 29 1 32 19
M  V30 30 1 32 20
M  V30 31 1 33 13
M  V30 32 1 33 22
M  V30 33 1 33 31
M  V30 34 2 34 9
M  V30 35 1 34 23
M  V30 36 1 34 24
M  V30 37 1 35 1
M  V30 38 1 36 1
M  V30 39 1 37 2
M  V30 40 1 38 2
M  V30 41 1 39 7
M  V30 42 1 40 8
M  V30 43 1 41 9
M  V30 44 1 42 10
M  V30 45 1 43 11
M  V30 46 1 44 11
M  V30 47 1 45 13
M  V30 48 1 46 13
M  V30 49 1 15 47 CFG=3
M  V30 50 1 48 16
M  V30 51 1 49 16
M  V30 52 1 50 16
M  V30 53 1 51 19
M  V30 54 1 52 19
M  V30 55 1 53 20
M  V30 56 1 54 21
M  V30 57 1 55 21
M  V30 58 1 56 23
M  V30 59 1 57 23
M  V30 60 1 58 23
M  V30 61 1 59 24
M  V30 62 1 60 26
M  V30 63 1 61 27
M  V30 64 1 62 28
M  V30 65 1 63 30
M  V30 66 1 32 64 CFG=3
M  V30 67 1 33 65 CFG=1
M  V30 END BOND
M  V30 END CTAB
M  END
>  <i_epik_Tot_Q>  (1) 
-1

>  <i_epik_Tot_abs_Q>  (1) 
1

>  <i_i_glide_confnum>  (1) 
21

>  <i_i_glide_lignum>  (1) 
32

>  <i_i_glide_posenum>  (1) 
400

>  <i_i_glide_rotatable_bonds>  (1) 
11

>  <i_lp_mmshare_version>  (1) 
72125

>  <i_m_source_file_index>  (1) 
11

>  <i_f3d_flags>  (1) 
0

>  <num_sample>  (1) 
50

>  <b_lp_Chiralities_Consistent>  (1) 
1

>  <r_epik_Charging_Adjusted_Penalty>  (1) 
0.73638213407736119

>  <r_epik_Ionization_Penalty>  (1) 
0.43605758440355569

>  <r_epik_Ionization_Penalty_Charging>  (1) 
4.3620522216925192e-06

>  <r_epik_Ionization_Penalty_Neutral>  (1) 
0.43605322235133398

>  <r_epik_State_Penalty>  (1) 
0.73637777202513954

>  <r_glide_ring_energy>  (1) 
0

>  <r_i_docking_score>  (1) 
-6.0879826413402114

>  <r_i_glide_ecoul>  (1) 
-5.5340957735684748

>  <r_i_glide_eff_state_penalty>  (1) 
0.73637777202513954

>  <r_i_glide_einternal>  (1) 
13.754273632996444

>  <r_i_glide_emodel>  (1) 
-59.118562600495309

>  <r_i_glide_emodel_strain>  (1) 
0.73261926755868956

>  <r_i_glide_energy>  (1) 
-46.337467920916986

>  <r_i_glide_erotb>  (1) 
0.66918926381983879

>  <r_i_glide_esite>  (1) 
-0.15488200750768519

>  <r_i_glide_evdw>  (1) 
-40.803372147348512

>  <r_i_glide_gscore>  (1) 
-6.8243604133653513

>  <r_i_glide_gscore_strain>  (1) 
0

>  <r_i_glide_hbond>  (1) 
-0.15480498187791081

>  <r_i_glide_ligand_efficiency>  (1) 
-0.17905831298059446

>  <r_i_glide_ligand_efficiency_ln>  (1) 
-1.3450061276010434

>  <r_i_glide_ligand_efficiency_sa>  (1) 
-0.58007942384877109

>  <r_i_glide_lipo>  (1) 
-3.6316148436055009

>  <r_i_glide_metal>  (1) 
-0

>  <r_i_glide_rewards>  (1) 
-0.68196487079139667

>  <r_lp_Energy>  (1) 
40.406531000000001

>  <r_lp_tautomer_probability>  (1) 
0.99999999999736477

>  <s_epik_cmdline>  (1) 
J2VwaWtfcHl0aG9uJywgJy1waHQnLCAnMS4wJywgJy1waCcsICc3LjQnLCAnLXRuJywgJzgnLCAnLW1hJywgJzUwMCcsICctaW1hZScsICc8aW5maWxlLm1hZT4nLCAnLW9tYWUnLCAnPG91dGZpbGUubWFlPic=

>  <s_epik_input>  (1) 
RmMxW2NIXWMoW09IXSljKFtjSF1bY0hdMSlOMltDQEBIXShbQ0gyXVtDSDNdKVtDSDJdW0NIMl1bQ0BASF0oW0NIMl0yKVtOSF1DKD1PKVtOSF1bQ0gyXVtDQEhdKFAoPU8pKFtPSF0pW09IXSljM1tjSF1jKFtDSDNdKVtjSF1bY0hdYzNbTkgyXQ==

>  <s_glide_docking_method>  (1) 
confgen

>  <s_i_glide_gridfile>  (1) 
gpcr_5ht2c_6bqh_protein_autoprepared_prepared

>  <s_lp_Force_Field>  (1) 
S-OPLS

>  <s_lp_Variant>  (1) 
DiffSBDD_10_num_sample_50-1

>  <s_m_source_file>  (1) 
generated__ligand_DiffSBDD_2026-05-06_prepared.sdf

>  <GenAI_Model>  (1) 
DiffSBDD

>  <Protein>  (1) 
GPCR_5HT2C

$$$$
DiffSBDD_6_num_sample_50
     RDKit          3D

  0  0  0  0  0  0  0  0  0  0999 V3000
M  V30 BEGIN CTAB
M  V30 COUNTS 65 68 0 0 1
M  V30 BEGIN ATOM
M  V30 1 N 39.501180 30.021418 59.451330 0
M  V30 2 N 35.529140 31.885266 59.724813 0 CHG=1
M  V30 3 C 34.579745 32.846684 59.853508 0
M  V30 4 C 39.277509 26.560452 57.869493 0
M  V30 5 C 42.005266 33.559310 66.020307 0
M  V30 6 N 37.553736 34.749046 60.073474 0
M  V30 7 N 35.235672 34.021353 60.007423 0
M  V30 8 N 39.186244 34.295062 61.824417 0
M  V30 9 C 37.256973 29.723424 58.579138 0
M  V30 10 C 43.238604 31.046201 65.678102 0
M  V30 11 N 37.985214 31.827239 59.682301 0
M  V30 12 O 40.844847 33.232756 63.904782 0
M  V30 13 C 37.102311 37.038054 60.241436 0
M  V30 14 C 36.072919 37.408267 63.359086 0
M  V30 15 F 43.832400 29.839910 65.517147 0
M  V30 16 C 36.566415 33.779934 59.965813 0
M  V30 17 C 41.721484 32.781135 64.866863 0
M  V30 18 C 41.237000 28.331327 59.252004 0
M  V30 19 C 36.103696 38.418680 62.201932 0
M  V30 20 F 41.410434 34.763146 66.198042 0
M  V30 21 C 42.905792 33.076393 66.989376 0
M  V30 22 C 39.153968 32.701537 59.928674 0
M  V30 23 C 39.809698 28.783909 59.006483 0
M  V30 24 C 43.522782 31.822688 66.817821 0
M  V30 25 C 37.588839 28.434359 58.126555 0
M  V30 26 C 37.274470 38.205709 61.224604 0
M  V30 27 C 38.878507 34.182687 60.402409 0 CFG=1
M  V30 28 C 38.885070 27.950669 58.344714 0
M  V30 29 O 37.196206 35.815388 60.951454 0
M  V30 30 F 42.069343 30.774869 63.606903 0
M  V30 31 C 40.578252 34.678842 62.023755 0
M  V30 32 C 42.338417 31.523551 64.704342 0
M  V30 33 C 36.749976 32.476663 59.778249 0
M  V30 34 C 40.939819 34.596590 63.508734 0
M  V30 35 C 38.250053 30.494799 59.239019 0
M  V30 36 H 33.514399 32.706364 59.837477 0
M  V30 37 H 34.800723 34.927273 60.129022 0
M  V30 38 H 38.405444 26.005448 57.522588 0
M  V30 39 H 39.728977 25.987078 58.679129 0
M  V30 40 H 39.986727 26.618231 57.043246 0
M  V30 41 H 39.009398 33.418287 62.294880 0
M  V30 42 H 36.275741 30.111604 58.392971 0
M  V30 43 H 37.887450 37.102677 59.486458 0
M  V30 44 H 36.149384 37.096968 59.714250 0
M  V30 45 H 35.306742 37.671752 64.088657 0
M  V30 46 H 37.032887 37.386915 63.872276 0
M  V30 47 H 35.867663 36.391979 63.026390 0
M  V30 48 H 41.367341 28.021894 60.288899 0
M  V30 49 H 41.904513 29.168260 59.055132 0
M  V30 50 H 41.559286 27.519252 58.602557 0
M  V30 51 H 35.155100 38.421626 61.663955 0
M  V30 52 H 36.196149 39.416748 62.631607 0
M  V30 53 H 43.122041 33.668343 67.866091 0
M  V30 54 H 39.618724 32.821476 58.952044 0
M  V30 55 H 39.886190 32.219011 60.577596 0
M  V30 56 H 44.213303 31.454760 67.562072 0
M  V30 57 H 36.857975 27.827607 57.617222 0
M  V30 58 H 37.399385 39.122481 60.648474 0
M  V30 59 H 38.205950 38.072182 61.776867 0
M  V30 60 H 39.578982 34.823065 59.864373 0
M  V30 61 H 41.239681 34.025271 61.453700 0
M  V30 62 H 40.729140 35.696149 61.658717 0
M  V30 63 H 40.267958 35.218437 64.100867 0
M  V30 64 H 41.953702 34.978056 63.644990 0
M  V30 65 H 35.352972 30.899127 59.588487 0
M  V30 END ATOM
M  V30 BEGIN BOND
M  V30 1 2 3 2
M  V30 2 1 7 3
M  V30 3 1 15 10
M  V30 4 1 16 6
M  V30 5 1 16 7
M  V30 6 2 17 5
M  V30 7 1 17 12
M  V30 8 1 19 14
M  V30 9 1 20 5
M  V30 10 1 21 5
M  V30 11 1 22 11
M  V30 12 1 23 1
M  V30 13 1 23 18
M  V30 14 1 24 10
M  V30 15 2 24 21
M  V30 16 2 25 9
M  V30 17 1 26 13
M  V30 18 1 26 19
M  V30 19 1 27 6
M  V30 20 1 27 8
M  V30 21 1 27 22
M  V30 22 1 28 4
M  V30 23 2 28 23
M  V30 24 1 28 25
M  V30 25 1 29 6
M  V30 26 1 29 13
M  V30 27 1 31 8
M  V30 28 2 32 10
M  V30 29 1 32 17
M  V30 30 1 32 30
M  V30 31 1 33 2
M  V30 32 1 33 11
M  V30 33 2 33 16
M  V30 34 1 34 12
M  V30 35 1 34 31
M  V30 36 2 35 1
M  V30 37 1 35 9
M  V30 38 1 35 11
M  V30 39 1 36 3
M  V30 40 1 37 7
M  V30 41 1 38 4
M  V30 42 1 39 4
M  V30 43 1 40 4
M  V30 44 1 41 8
M  V30 45 1 42 9
M  V30 46 1 43 13
M  V30 47 1 44 13
M  V30 48 1 45 14
M  V30 49 1 46 14
M  V30 50 1 47 14
M  V30 51 1 48 18
M  V30 52 1 49 18
M  V30 53 1 50 18
M  V30 54 1 51 19
M  V30 55 1 52 19
M  V30 56 1 53 21
M  V30 57 1 54 22
M  V30 58 1 55 22
M  V30 59 1 56 24
M  V30 60 1 57 25
M  V30 61 1 58 26
M  V30 62 1 59 26
M  V30 63 1 27 60 CFG=3
M  V30 64 1 61 31
M  V30 65 1 62 31
M  V30 66 1 63 34
M  V30 67 1 64 34
M  V30 68 1 65 2
M  V30 END BOND
M  V30 END CTAB
M  END
>  <i_epik_Tot_Q>  (1) 
1

>  <i_epik_Tot_abs_Q>  (1) 
1

>  <i_i_glide_confnum>  (1) 
344

>  <i_i_glide_lignum>  (1) 
20

>  <i_i_glide_posenum>  (1) 
37

>  <i_i_glide_rotatable_bonds>  (1) 
10

>  <i_lp_mmshare_version>  (1) 
72125

>  <i_m_source_file_index>  (1) 
7

>  <i_f3d_flags>  (1) 
0

>  <num_sample>  (1) 
50

>  <b_lp_Chiralities_Consistent>  (1) 
1

>  <r_epik_Charging_Adjusted_Penalty>  (1) 
0.17211517054128123

>  <r_epik_Ionization_Penalty>  (1) 
0.10319272176977491

>  <r_epik_Ionization_Penalty_Charging>  (1) 
0

>  <r_epik_Ionization_Penalty_Neutral>  (1) 
0.10319272176977491

>  <r_epik_State_Penalty>  (1) 
0.17211517054128123

>  <r_glide_ring_energy>  (1) 
0

>  <r_i_docking_score>  (1) 
-6.0839071599087182

>  <r_i_glide_ecoul>  (1) 
-1.2981034933023241

>  <r_i_glide_eff_state_penalty>  (1) 
0.17211517054128123

>  <r_i_glide_einternal>  (1) 
14.06759784624982

>  <r_i_glide_emodel>  (1) 
-55.031766821330734

>  <r_i_glide_emodel_strain>  (1) 
1.3370441438335234

>  <r_i_glide_energy>  (1) 
-42.836448136467347

>  <r_i_glide_erotb>  (1) 
0.67408029721787976

>  <r_i_glide_esite>  (1) 
-0.15882158919293873

>  <r_i_glide_evdw>  (1) 
-41.538344643165026

>  <r_i_glide_gscore>  (1) 
-6.2560223304499996

>  <r_i_glide_gscore_strain>  (1) 
0

>  <r_i_glide_hbond>  (1) 
0

>  <r_i_glide_ligand_efficiency>  (1) 
-0.1738259188545348

>  <r_i_glide_ligand_efficiency_ln>  (1) 
-1.335552646644421

>  <r_i_glide_ligand_efficiency_sa>  (1) 
-0.56859610700264451

>  <r_i_glide_lipo>  (1) 
-3.2263922194557142

>  <r_i_glide_metal>  (1) 
-0

>  <r_i_glide_rewards>  (1) 
-1.2732560628656264

>  <r_lp_Energy>  (1) 
50.162378999999994

>  <r_lp_tautomer_probability>  (1) 
0.70072779002327656

>  <s_epik_Chemistry_Notes>  (1) 
This compound contains an acetal/aminal-like group ( X-CH(R)-Y where X, Y are N, S, or O) that may be acid/base labile, releasing an aldehyde. This compound has a N-S or N-O group and may undergo hydrolysis at high or low pH.

>  <s_epik_cmdline>  (1) 
J2VwaWtfcHl0aG9uJywgJy1waHQnLCAnMS4wJywgJy1waCcsICc3LjQnLCAnLXRuJywgJzgnLCAnLW1hJywgJzUwMCcsICctaW1hZScsICc8aW5maWxlLm1hZT4nLCAnLW9tYWUnLCAnPG91dGZpbGUubWFlPic=

>  <s_epik_input>  (1) 
W0NIM11jMVtjSF1bY0hdYyhuYzFbQ0gzXSlOKEMoQzIzKT1OW0NIMl1OPTMpW0NIMl1bQ0BASF0oTjJPW0NIMl1bQ0gyXVtDSDJdW0NIM10pW05IXVtDSDJdW0NIMl1PYyhjNEYpYyhGKWMoRilbY0hdW2NIXTQ=

>  <s_glide_docking_method>  (1) 
confgen

>  <s_i_glide_gridfile>  (1) 
gpcr_5ht2c_6bqh_protein_autoprepared_prepared

>  <s_lp_Force_Field>  (1) 
S-OPLS

>  <s_lp_Variant>  (1) 
DiffSBDD_6_num_sample_50-1

>  <s_m_source_file>  (1) 
generated__ligand_DiffSBDD_2026-05-06_prepared.sdf

>  <GenAI_Model>  (1) 
DiffSBDD

>  <Protein>  (1) 
GPCR_5HT2C

$$$$
DiffSBDD_34_num_sample_50
     RDKit          3D

  0  0  0  0  0  0  0  0  0  0999 V3000
M  V30 BEGIN CTAB
M  V30 COUNTS 50 51 0 0 1
M  V30 BEGIN ATOM
M  V30 1 C 38.773098 31.854508 60.569339 0 CFG=2
M  V30 2 C 38.667648 27.106264 53.029401 0
M  V30 3 C 40.042754 33.547203 61.977675 0
M  V30 4 C 38.676248 27.221413 59.159481 0
M  V30 5 C 39.592280 29.382880 55.832923 0
M  V30 6 C 39.365616 28.289811 50.836814 0
M  V30 7 C 39.857032 32.171142 61.486880 0
M  V30 8 C 39.466117 30.451470 60.352905 0
M  V30 9 C 40.608084 31.177940 61.852508 0
M  V30 10 C 38.592995 30.403997 58.010053 0
M  V30 11 C 38.387322 32.511556 59.286368 0
M  V30 12 C 39.915906 29.560422 51.486343 0
M  V30 13 C 40.519003 30.526284 50.472245 0
M  V30 14 C 38.267403 31.838277 58.135907 0
M  V30 15 C 38.248771 27.636578 51.654225 0
M  V30 16 O 39.467468 31.233502 49.853500 0
M  V30 17 O 38.803890 28.208879 53.908286 0
M  V30 18 O 39.867500 27.001690 55.519659 0
M  V30 19 O 40.935575 33.873449 62.759252 0
M  V30 20 C 39.177502 29.730056 59.064573 0
M  V30 21 N 40.290488 29.978804 61.257801 0
M  V30 22 C 39.729172 28.297022 58.947258 0
M  V30 23 C 38.337866 29.686701 56.675505 0 CFG=1
M  V30 24 O 37.467405 30.421416 55.830697 0
M  V30 25 C 39.437475 28.065528 55.073196 0
M  V30 26 H 37.864229 31.717992 61.156671 0
M  V30 27 H 37.905333 26.433876 53.424087 0
M  V30 28 H 39.598893 26.542134 52.950052 0
M  V30 29 H 39.323380 34.270499 61.593078 0
M  V30 30 H 39.118597 26.229983 59.053493 0
M  V30 31 H 38.267407 27.314213 60.162860 0
M  V30 32 H 37.867404 27.283928 58.438493 0
M  V30 33 H 40.491760 29.319472 56.436820 0
M  V30 34 H 39.780543 30.191578 55.125575 0
M  V30 35 H 38.964176 28.523946 49.853492 0
M  V30 36 H 40.175411 27.585120 50.654216 0
M  V30 37 H 41.444901 31.230561 62.535646 0
M  V30 38 H 38.148311 33.564498 59.324011 0
M  V30 39 H 40.667409 29.278140 52.217017 0
M  V30 40 H 39.140591 30.066815 52.059909 0
M  V30 41 H 41.121741 30.011369 49.724387 0
M  V30 42 H 41.176074 31.221432 50.987014 0
M  V30 43 H 37.940207 32.377445 57.258358 0
M  V30 44 H 37.414335 28.327690 51.775529 0
M  V30 45 H 37.867436 26.821410 51.053625 0
M  V30 46 H 38.875409 30.621147 49.429415 0
M  V30 47 H 40.212653 28.119479 57.996842 0
M  V30 48 H 40.536372 28.117594 59.656348 0
M  V30 49 H 37.797551 28.770808 56.903975 0
M  V30 50 H 36.770441 30.834973 56.340015 0
M  V30 END ATOM
M  V30 BEGIN BOND
M  V30 1 1 7 1
M  V30 2 1 7 3
M  V30 3 1 8 1
M  V30 4 2 9 7
M  V30 5 1 11 1
M  V30 6 1 12 6
M  V30 7 1 13 12
M  V30 8 1 14 10
M  V30 9 2 14 11
M  V30 10 1 15 2
M  V30 11 1 15 6
M  V30 12 1 16 13
M  V30 13 1 17 2
M  V30 14 2 19 3
M  V30 15 1 20 8
M  V30 16 2 20 10
M  V30 17 2 21 8
M  V30 18 1 21 9
M  V30 19 1 22 4
M  V30 20 1 22 20
M  V30 21 1 23 5
M  V30 22 1 23 10
M  V30 23 1 24 23
M  V30 24 1 25 5
M  V30 25 1 25 17
M  V30 26 2 25 18
M  V30 27 1 1 26 CFG=1
M  V30 28 1 27 2
M  V30 29 1 28 2
M  V30 30 1 29 3
M  V30 31 1 30 4
M  V30 32 1 31 4
M  V30 33 1 32 4
M  V30 34 1 33 5
M  V30 35 1 34 5
M  V30 36 1 35 6
M  V30 37 1 36 6
M  V30 38 1 37 9
M  V30 39 1 38 11
M  V30 40 1 39 12
M  V30 41 1 40 12
M  V30 42 1 41 13
M  V30 43 1 42 13
M  V30 44 1 43 14
M  V30 45 1 44 15
M  V30 46 1 45 15
M  V30 47 1 46 16
M  V30 48 1 47 22
M  V30 49 1 48 22
M  V30 50 1 23 49 CFG=1
M  V30 51 1 50 24
M  V30 END BOND
M  V30 END CTAB
M  END
>  <i_epik_Tot_Q>  (1) 
0

>  <i_epik_Tot_abs_Q>  (1) 
0

>  <i_i_glide_confnum>  (1) 
1040

>  <i_i_glide_lignum>  (1) 
88

>  <i_i_glide_posenum>  (1) 
120

>  <i_i_glide_rotatable_bonds>  (1) 
13

>  <i_lp_mmshare_version>  (1) 
72125

>  <i_m_source_file_index>  (1) 
35

>  <i_f3d_flags>  (1) 
0

>  <num_sample>  (1) 
50

>  <b_lp_Chiralities_Consistent>  (1) 
1

>  <r_epik_Charging_Adjusted_Penalty>  (1) 
0.012701380709717016

>  <r_epik_Ionization_Penalty>  (1) 
0.012701608846652416

>  <r_epik_Ionization_Penalty_Charging>  (1) 
0

>  <r_epik_Ionization_Penalty_Neutral>  (1) 
0.012701608846652416

>  <r_epik_State_Penalty>  (1) 
0.012701380709717016

>  <r_glide_ring_energy>  (1) 
0

>  <r_i_docking_score>  (1) 
-6.0751407037002085

>  <r_i_glide_ecoul>  (1) 
-6.2925512844344276

>  <r_i_glide_eff_state_penalty>  (1) 
0.012701380709717016

>  <r_i_glide_einternal>  (1) 
11.183273878639328

>  <r_i_glide_emodel>  (1) 
-51.664919711983806

>  <r_i_glide_emodel_strain>  (1) 
1.6718143234421063

>  <r_i_glide_energy>  (1) 
-41.326136612710172

>  <r_i_glide_erotb>  (1) 
1.4185672597553849

>  <r_i_glide_esite>  (1) 
0

>  <r_i_glide_evdw>  (1) 
-35.033585328275741

>  <r_i_glide_gscore>  (1) 
-6.0878420844099255

>  <r_i_glide_gscore_strain>  (1) 
0

>  <r_i_glide_hbond>  (1) 
-0.49039750125412795

>  <r_i_glide_ligand_efficiency>  (1) 
-0.24300562814800833

>  <r_i_glide_ligand_efficiency_ln>  (1) 
-1.4399904040527189

>  <r_i_glide_ligand_efficiency_sa>  (1) 
-0.71055276719033622

>  <r_i_glide_lipo>  (1) 
-2.4590500803795998

>  <r_i_glide_metal>  (1) 
-0

>  <r_i_glide_rewards>  (1) 
-1.8613998034526309

>  <r_lp_Energy>  (1) 
18.317083999999998

>  <s_epik_Chemistry_Notes>  (1) 
This compound has an ester and may undergo hydrolysis at high or low pH. This compound has an imine and may undergo hydrolysis.

>  <s_epik_cmdline>  (1) 
J2VwaWtfcHl0aG9uJywgJy1waHQnLCAnMS4wJywgJy1waCcsICc3LjQnLCAnLXRuJywgJzgnLCAnLW1hJywgJzUwMCcsICctaW1hZScsICc8aW5maWxlLm1hZT4nLCAnLW9tYWUnLCAnPG91dGZpbGUubWFlPic=

>  <s_epik_input>  (1) 
Tz1bQ0hdQzE9W0NIXU49QyhbQ0BIXTEyKUMoW0NIMl1bQ0gzXSk9QyhbQ0hdPVtDSF0yKVtDQEBIXShbT0hdKVtDSDJdQyg9TylPW0NIMl1bQ0gyXVtDSDJdW0NIMl1bQ0gyXVtPSF0=

>  <s_glide_docking_method>  (1) 
confgen

>  <s_i_glide_gridfile>  (1) 
gpcr_5ht2c_6bqh_protein_autoprepared_prepared

>  <s_lp_Force_Field>  (1) 
S-OPLS

>  <s_lp_Variant>  (1) 
DiffSBDD_34_num_sample_50-2

>  <s_m_source_file>  (1) 
generated__ligand_DiffSBDD_2026-05-06_prepared.sdf

>  <GenAI_Model>  (1) 
DiffSBDD

>  <Protein>  (1) 
GPCR_5HT2C

$$$$
DiffSBDD_23_num_sample_50
     RDKit          3D

  0  0  0  0  0  0  0  0  0  0999 V3000
M  V30 BEGIN CTAB
M  V30 COUNTS 60 64 0 0 1
M  V30 BEGIN ATOM
M  V30 1 C 40.711805 29.742555 51.453496 0
M  V30 2 C 40.829893 31.204999 65.673292 0 CFG=1
M  V30 3 C 38.649511 30.083239 55.926400 0
M  V30 4 C 39.547144 29.915311 60.030323 0 CFG=1
M  V30 5 S 44.855180 30.145108 65.387539 0
M  V30 6 C 39.306010 30.651698 54.823563 0
M  V30 7 C 40.030150 30.659086 52.419837 0
M  V30 8 N 44.741983 32.031755 67.156388 0
M  V30 9 C 43.317299 30.919657 65.706700 0
M  V30 10 C 42.336040 32.734863 67.200597 0
M  V30 11 S 40.377824 31.837525 61.958593 0
M  V30 12 O 41.393482 32.375440 61.053510 0
M  V30 13 C 37.935705 28.212790 54.543670 0
M  V30 14 C 42.065814 30.533609 64.983705 0 CFG=2
M  V30 15 N 39.193417 31.012306 60.970217 0
M  V30 16 C 37.970869 28.869136 55.788990 0
M  V30 17 C 39.290575 30.006811 53.561116 0
M  V30 18 C 36.848091 30.856580 60.120567 0
M  V30 19 C 39.792793 29.221505 50.454099 0
M  V30 20 O 39.867425 29.621341 49.299496 0
M  V30 21 Cl 39.556441 28.421468 61.000811 0
M  V30 22 C 38.472979 27.974411 52.098315 0
M  V30 23 S 38.683417 30.915498 57.498483 0
M  V30 24 N 40.983569 30.600393 62.798241 0 CHG=-1
M  V30 25 O 39.652332 32.793008 62.808574 0
M  V30 26 N 38.927014 28.261178 50.925419 0
M  V30 27 C 37.772433 31.120742 61.324178 0
M  V30 28 C 43.436258 31.889223 66.676509 0
M  V30 29 C 45.590006 31.212604 66.553621 0
M  V30 30 O 37.202929 29.661087 59.436155 0
M  V30 31 C 38.585862 28.759069 53.406142 0
M  V30 32 N 42.157400 30.865715 63.567767 0
M  V30 33 N 40.291569 30.300211 66.705394 0 CHG=1
M  V30 34 C 38.511923 29.728539 58.885114 0 CFG=2
M  V30 35 C 41.130361 32.630709 66.242640 0
M  V30 36 H 41.252510 28.894594 51.853542 0
M  V30 37 H 41.467510 30.321402 50.920380 0
M  V30 38 H 39.990185 31.294923 64.987243 0
M  V30 39 H 40.561804 30.021444 59.651719 0
M  V30 40 H 39.829946 31.588890 54.940041 0
M  V30 41 H 40.827722 31.221456 52.897922 0
M  V30 42 H 39.467434 31.431391 51.907517 0
M  V30 43 H 42.049653 32.392558 68.194867 0
M  V30 44 H 42.649587 33.774588 67.307345 0
M  V30 45 H 37.400403 27.278971 54.455161 0
M  V30 46 H 41.955384 29.448470 65.022703 0
M  V30 47 H 37.467410 28.434471 56.638181 0
M  V30 48 H 36.862256 31.706196 59.436624 0
M  V30 49 H 35.819351 30.765274 60.465660 0
M  V30 50 H 37.907249 27.044409 52.197825 0
M  V30 51 H 37.555530 32.111898 61.719372 0
M  V30 52 H 37.578871 30.421432 62.131683 0
M  V30 53 H 46.639787 31.221496 66.809910 0
M  V30 54 H 42.421669 31.835215 63.451618 0
M  V30 55 H 41.000853 30.102261 67.395425 0
M  V30 56 H 39.483485 30.715486 67.143479 0
M  V30 57 H 38.719897 28.750468 58.453980 0
M  V30 58 H 40.267407 33.088547 66.711644 0
M  V30 59 H 41.347999 33.263084 65.381355 0
M  V30 60 H 40.016380 29.436193 66.257742 0
M  V30 END ATOM
M  V30 BEGIN BOND
M  V30 1 2 6 3
M  V30 2 1 7 1
M  V30 3 1 9 5
M  V30 4 2 12 11
M  V30 5 1 14 2
M  V30 6 1 14 9
M  V30 7 1 15 4
M  V30 8 1 15 11
M  V30 9 1 16 3
M  V30 10 2 16 13
M  V30 11 1 17 6
M  V30 12 1 17 7
M  V30 13 1 19 1
M  V30 14 2 20 19
M  V30 15 1 21 4
M  V30 16 1 23 3
M  V30 17 1 24 11
M  V30 18 2 25 11
M  V30 19 1 26 19
M  V30 20 2 26 22
M  V30 21 1 27 15
M  V30 22 1 27 18
M  V30 23 1 28 8
M  V30 24 2 28 9
M  V30 25 1 28 10
M  V30 26 1 29 5
M  V30 27 2 29 8
M  V30 28 1 30 18
M  V30 29 1 31 13
M  V30 30 2 31 17
M  V30 31 1 31 22
M  V30 32 1 32 14
M  V30 33 1 32 24
M  V30 34 1 33 2
M  V30 35 1 34 4
M  V30 36 1 34 23
M  V30 37 1 34 30
M  V30 38 1 35 2
M  V30 39 1 35 10
M  V30 40 1 36 1
M  V30 41 1 37 1
M  V30 42 1 2 38 CFG=3
M  V30 43 1 4 39 CFG=3
M  V30 44 1 40 6
M  V30 45 1 41 7
M  V30 46 1 42 7
M  V30 47 1 43 10
M  V30 48 1 44 10
M  V30 49 1 45 13
M  V30 50 1 14 46 CFG=3
M  V30 51 1 47 16
M  V30 52 1 48 18
M  V30 53 1 49 18
M  V30 54 1 50 22
M  V30 55 1 51 27
M  V30 56 1 52 27
M  V30 57 1 53 29
M  V30 58 1 54 32
M  V30 59 1 55 33
M  V30 60 1 56 33
M  V30 61 1 34 57 CFG=3
M  V30 62 1 58 35
M  V30 63 1 59 35
M  V30 64 1 60 33
M  V30 END BOND
M  V30 END CTAB
M  END
>  <i_epik_Tot_Q>  (1) 
0

>  <i_epik_Tot_abs_Q>  (1) 
2

>  <i_i_glide_confnum>  (1) 
250

>  <i_i_glide_lignum>  (1) 
64

>  <i_i_glide_posenum>  (1) 
114

>  <i_i_glide_rotatable_bonds>  (1) 
6

>  <i_lp_mmshare_version>  (1) 
72125

>  <i_m_source_file_index>  (1) 
24

>  <i_f3d_flags>  (1) 
0

>  <num_sample>  (1) 
50

>  <b_lp_Chiralities_Consistent>  (1) 
1

>  <r_epik_Charging_Adjusted_Penalty>  (1) 
2.2272092532468064

>  <r_epik_Ionization_Penalty>  (1) 
1.0462412004884125

>  <r_epik_Ionization_Penalty_Charging>  (1) 
1.0439143913358477

>  <r_epik_Ionization_Penalty_Neutral>  (1) 
0.002326809152564684

>  <r_epik_State_Penalty>  (1) 
1.1832948619109587

>  <r_glide_ring_energy>  (1) 
2.3686359896243214

>  <r_i_docking_score>  (1) 
-6.0714479907329464

>  <r_i_glide_ecoul>  (1) 
-2.4093508784580284

>  <r_i_glide_eff_state_penalty>  (1) 
1.1832948619109587

>  <r_i_glide_einternal>  (1) 
3.0926789146337095

>  <r_i_glide_emodel>  (1) 
-72.065384673455256

>  <r_i_glide_emodel_strain>  (1) 
1.8576455336631739

>  <r_i_glide_energy>  (1) 
-51.167127388424902

>  <r_i_glide_erotb>  (1) 
0.32509228849270932

>  <r_i_glide_esite>  (1) 
-0.0083054394089000557

>  <r_i_glide_evdw>  (1) 
-48.757776509966874

>  <r_i_glide_gscore>  (1) 
-7.2547428526439051

>  <r_i_glide_gscore_strain>  (1) 
0

>  <r_i_glide_hbond>  (1) 
0

>  <r_i_glide_ligand_efficiency>  (1) 
-0.17346994259236989

>  <r_i_glide_ligand_efficiency_ln>  (1) 
-1.3328175824939774

>  <r_i_glide_ligand_efficiency_sa>  (1) 
-0.56743168504425001

>  <r_i_glide_lipo>  (1) 
-2.9168916189525733

>  <r_i_glide_metal>  (1) 
-0

>  <r_i_glide_rewards>  (1) 
-1.8553466255080919

>  <r_lp_Energy>  (1) 
43.619828999999996

>  <s_epik_Chemistry_Notes>  (1) 
This compound has an imine and may undergo hydrolysis. This compound contains an acetal/aminal-like group ( X-CH(R)-Y where X, Y are N, S, or O) that may be acid/base labile, releasing an aldehyde.

>  <s_epik_cmdline>  (1) 
J2VwaWtfcHl0aG9uJywgJy1waHQnLCAnMS4wJywgJy1waCcsICc3LjQnLCAnLXRuJywgJzgnLCAnLW1hJywgJzUwMCcsICctaW1hZScsICc8aW5maWxlLm1hZT4nLCAnLW9tYWUnLCAnPG91dGZpbGUubWFlPic=

>  <s_epik_input>  (1) 
W0NIMl0xW0NIMl1DKD1PKU49W0NIXWMoYzEyKVtjSF1bY0hdYyhbY0hdMilTW0NAQEhdM09bQ0gyXVtDSDJdTihbQ0BIXTNDbClTKD1PKSg9TylbTkhdW05IXVtDQEBIXTRbQ0BASF0oW05IMl0pW0NIMl1bQ0gyXWMoYzQ1KW5bY0hdczU=

>  <s_glide_docking_method>  (1) 
confgen

>  <s_i_glide_gridfile>  (1) 
gpcr_5ht2c_6bqh_protein_autoprepared_prepared

>  <s_lp_Force_Field>  (1) 
S-OPLS

>  <s_lp_Variant>  (1) 
DiffSBDD_23_num_sample_50-3

>  <s_m_source_file>  (1) 
generated__ligand_DiffSBDD_2026-05-06_prepared.sdf

>  <GenAI_Model>  (1) 
DiffSBDD

>  <Protein>  (1) 
GPCR_5HT2C

$$$$
DiffSBDD_10_num_sample_50
     RDKit          3D

  0  0  0  0  0  0  0  0  0  0999 V3000
M  V30 BEGIN CTAB
M  V30 COUNTS 65 67 0 0 1
M  V30 BEGIN ATOM
M  V30 1 C 40.697518 31.638151 65.529025 0
M  V30 2 C 40.022487 30.654593 66.498549 0
M  V30 3 C 43.457683 25.134908 66.717060 0
M  V30 4 N 41.538813 28.847668 65.731900 0 CFG=2 CHG=1
M  V30 5 O 36.415986 31.221429 61.453485 0 CHG=-1
M  V30 6 O 41.067418 31.022760 61.480203 0
M  V30 7 C 38.293446 32.321542 55.746917 0
M  V30 8 C 42.213319 25.144083 66.054849 0
M  V30 9 C 38.475872 29.947645 57.255312 0
M  V30 10 O 35.711224 30.777637 59.053749 0
M  V30 11 N 38.133955 33.619867 57.782263 0
M  V30 12 C 41.609476 26.359184 65.709646 0
M  V30 13 C 38.847744 29.934117 60.133789 0
M  V30 14 C 38.268146 32.385916 57.154763 0
M  V30 15 C 40.966165 29.527109 66.940752 0 CFG=1
M  V30 16 C 41.505316 30.665027 69.253558 0
M  V30 17 C 42.247450 27.555881 66.035359 0
M  V30 18 O 36.369015 33.170643 59.825817 0
M  V30 19 C 42.200110 29.748648 64.754198 0
M  V30 20 N 40.162136 30.415036 63.468200 0
M  V30 21 C 42.031060 29.995353 67.978645 0
M  V30 22 P 36.626961 31.738160 60.086996 0
M  V30 23 C 38.620767 28.559374 55.145209 0
M  V30 24 C 38.408518 31.080599 55.095605 0
M  V30 25 C 40.160922 30.514248 62.129177 0
M  V30 26 N 39.064756 29.991326 61.580017 0
M  V30 27 C 44.114748 26.353146 67.010885 0
M  V30 28 O 40.409982 26.372385 65.067084 0 CHG=-1
M  V30 29 F 44.020654 23.956061 67.071668 0
M  V30 30 C 43.508606 27.574114 66.661281 0
M  V30 31 C 38.364158 31.194289 57.922406 0
M  V30 32 C 41.266356 30.901303 64.305239 0 CFG=1
M  V30 33 C 38.362810 31.253595 59.471351 0 CFG=2
M  V30 34 C 38.497065 29.894355 55.847838 0
M  V30 35 H 41.504950 32.161433 66.043121 0
M  V30 36 H 39.990241 32.408625 65.217515 0
M  V30 37 H 39.667274 31.184009 67.376061 0
M  V30 38 H 39.135684 30.222080 66.032803 0
M  V30 39 H 38.216510 33.227684 55.164703 0
M  V30 40 H 41.721137 24.216132 65.829538 0
M  V30 41 H 38.546064 29.032649 57.819588 0
M  V30 42 H 35.644234 31.221457 58.200867 0
M  V30 43 H 37.826046 34.397587 57.217739 0
M  V30 44 H 37.748832 33.630104 58.729501 0
M  V30 45 H 38.110707 29.150021 59.958777 0
M  V30 46 H 39.775518 29.603859 59.664614 0
M  V30 47 H 40.345572 28.784642 67.446277 0
M  V30 48 H 42.332087 30.847161 69.940150 0
M  V30 49 H 41.057518 31.637097 69.057128 0
M  V30 50 H 40.787296 30.021592 69.766809 0
M  V30 51 H 42.507652 29.158437 63.889193 0
M  V30 52 H 43.114234 30.153901 65.189001 0
M  V30 53 H 39.374533 29.975372 63.928079 0
M  V30 54 H 42.570376 29.133219 68.359914 0
M  V30 55 H 42.764979 30.650760 67.511834 0
M  V30 56 H 38.214138 28.602958 54.134525 0
M  V30 57 H 39.671129 28.274730 55.084646 0
M  V30 58 H 38.084935 27.783663 55.693893 0
M  V30 59 H 38.424754 31.039216 54.016813 0
M  V30 60 H 38.350332 29.601913 62.177833 0
M  V30 61 H 45.072293 26.345961 67.510583 0
M  V30 62 H 43.998174 28.508409 66.889375 0
M  V30 63 H 41.866601 31.621773 63.746320 0
M  V30 64 H 39.059304 32.040861 59.759026 0
M  V30 65 H 40.712152 28.532214 65.234473 0
M  V30 END ATOM
M  V30 BEGIN BOND
M  V30 1 1 2 1
M  V30 2 2 8 3
M  V30 3 1 12 8
M  V30 4 1 14 7
M  V30 5 1 14 11
M  V30 6 1 15 2
M  V30 7 1 15 4
M  V30 8 1 17 4
M  V30 9 2 17 12
M  V30 10 1 19 4
M  V30 11 1 21 15
M  V30 12 1 21 16
M  V30 13 1 22 5
M  V30 14 1 22 10
M  V30 15 2 22 18
M  V30 16 2 24 7
M  V30 17 2 25 6
M  V30 18 1 25 20
M  V30 19 1 26 13
M  V30 20 1 26 25
M  V30 21 1 27 3
M  V30 22 1 28 12
M  V30 23 1 29 3
M  V30 24 1 30 17
M  V30 25 2 30 27
M  V30 26 1 31 9
M  V30 27 2 31 14
M  V30 28 1 32 1
M  V30 29 1 32 19
M  V30 30 1 32 20
M  V30 31 1 33 13
M  V30 32 1 33 22
M  V30 33 1 33 31
M  V30 34 2 34 9
M  V30 35 1 34 23
M  V30 36 1 34 24
M  V30 37 1 35 1
M  V30 38 1 36 1
M  V30 39 1 37 2
M  V30 40 1 38 2
M  V30 41 1 39 7
M  V30 42 1 40 8
M  V30 43 1 41 9
M  V30 44 1 42 10
M  V30 45 1 43 11
M  V30 46 1 44 11
M  V30 47 1 45 13
M  V30 48 1 46 13
M  V30 49 1 15 47 CFG=1
M  V30 50 1 48 16
M  V30 51 1 49 16
M  V30 52 1 50 16
M  V30 53 1 51 19
M  V30 54 1 52 19
M  V30 55 1 53 20
M  V30 56 1 54 21
M  V30 57 1 55 21
M  V30 58 1 56 23
M  V30 59 1 57 23
M  V30 60 1 58 23
M  V30 61 1 59 24
M  V30 62 1 60 26
M  V30 63 1 61 27
M  V30 64 1 62 30
M  V30 65 1 32 63 CFG=3
M  V30 66 1 33 64 CFG=3
M  V30 67 1 4 65 CFG=3
M  V30 END BOND
M  V30 END CTAB
M  END
>  <i_epik_Tot_Q>  (1) 
-1

>  <i_epik_Tot_abs_Q>  (1) 
3

>  <i_i_glide_confnum>  (1) 
168

>  <i_i_glide_lignum>  (1) 
37

>  <i_i_glide_posenum>  (1) 
109

>  <i_i_glide_rotatable_bonds>  (1) 
10

>  <i_lp_mmshare_version>  (1) 
72125

>  <i_m_source_file_index>  (1) 
11

>  <i_f3d_flags>  (1) 
0

>  <num_sample>  (1) 
50

>  <b_lp_Chiralities_Consistent>  (1) 
1

>  <r_epik_Charging_Adjusted_Penalty>  (1) 
0.95893062563682818

>  <r_epik_Ionization_Penalty>  (1) 
0.45630296270815951

>  <r_epik_Ionization_Penalty_Charging>  (1) 
0.042165092744118775

>  <r_epik_Ionization_Penalty_Neutral>  (1) 
0.41413786996404073

>  <r_epik_State_Penalty>  (1) 
0.91676553289270946

>  <r_glide_ring_energy>  (1) 
0

>  <r_i_docking_score>  (1) 
-6.0499732259264558

>  <r_i_glide_ecoul>  (1) 
-19.669151568590941

>  <r_i_glide_eff_state_penalty>  (1) 
0.91676553289270946

>  <r_i_glide_einternal>  (1) 
5.7459724191596031

>  <r_i_glide_emodel>  (1) 
-66.705481222619156

>  <r_i_glide_emodel_strain>  (1) 
0.99320020001948706

>  <r_i_glide_energy>  (1) 
-51.541659192322797

>  <r_i_glide_erotb>  (1) 
0.66918926381983879

>  <r_i_glide_esite>  (1) 
-0.13123900778687464

>  <r_i_glide_evdw>  (1) 
-31.872507623731853

>  <r_i_glide_gscore>  (1) 
-6.9667387588191652

>  <r_i_glide_gscore_strain>  (1) 
0

>  <r_i_glide_hbond>  (1) 
-0.75259115926429365

>  <r_i_glide_ligand_efficiency>  (1) 
-0.17794038899783693

>  <r_i_glide_ligand_efficiency_ln>  (1) 
-1.3366087816081547

>  <r_i_glide_ligand_efficiency_sa>  (1) 
-0.57645778412129867

>  <r_i_glide_lipo>  (1) 
-1.7043233678210767

>  <r_i_glide_metal>  (1) 
-0

>  <r_i_glide_rewards>  (1) 
-0.50377637129152586

>  <r_lp_Energy>  (1) 
25.832879999999999

>  <s_epik_cmdline>  (1) 
J2VwaWtfcHl0aG9uJywgJy1waHQnLCAnMS4wJywgJy1waCcsICc3LjQnLCAnLXRuJywgJzgnLCAnLW1hJywgJzUwMCcsICctaW1hZScsICc8aW5maWxlLm1hZT4nLCAnLW9tYWUnLCAnPG91dGZpbGUubWFlPic=

>  <s_epik_input>  (1) 
RmMxW2NIXWMoW09IXSljKFtjSF1bY0hdMSlOMltDQEBIXShbQ0gyXVtDSDNdKVtDSDJdW0NIMl1bQ0BASF0oW0NIMl0yKVtOSF1DKD1PKVtOSF1bQ0gyXVtDQEhdKFAoPU8pKFtPSF0pW09IXSljM1tjSF1jKFtDSDNdKVtjSF1bY0hdYzNbTkgyXQ==

>  <s_glide_docking_method>  (1) 
confgen

>  <s_i_glide_gridfile>  (1) 
gpcr_5ht2c_6bqh_protein_autoprepared_prepared

>  <s_lp_Force_Field>  (1) 
S-OPLS

>  <s_lp_Variant>  (1) 
DiffSBDD_10_num_sample_50-6

>  <s_m_source_file>  (1) 
generated__ligand_DiffSBDD_2026-05-06_prepared.sdf

>  <GenAI_Model>  (1) 
DiffSBDD

>  <Protein>  (1) 
GPCR_5HT2C

$$$$
DiffSBDD_40_num_sample_50
     RDKit          3D

  0  0  0  0  0  0  0  0  0  0999 V3000
M  V30 BEGIN CTAB
M  V30 COUNTS 66 69 0 0 1
M  V30 BEGIN ATOM
M  V30 1 C 39.433458 25.668237 57.882294 0
M  V30 2 C 38.946165 30.900357 57.033919 0
M  V30 3 O 42.267411 32.767419 62.380597 0 CHG=-1
M  V30 4 C 39.314050 31.187358 60.323833 0
M  V30 5 O 38.957228 31.323342 61.691286 0
M  V30 6 C 36.500192 32.718511 60.454657 0 CFG=2
M  V30 7 C 38.425939 29.996464 58.179548 0 CFG=2
M  V30 8 O 40.020546 32.028682 63.721828 0
M  V30 9 C 38.087216 30.749039 59.506746 0 CFG=2
M  V30 10 C 40.064240 26.835705 57.109860 0 CFG=2
M  V30 11 C 39.775997 32.282308 62.340047 0 CFG=1
M  V30 12 C 37.513028 33.251730 58.655001 0
M  V30 13 C 37.097247 31.905538 59.281210 0 CFG=2
M  V30 14 C 35.067382 32.470219 60.866165 0
M  V30 15 O 39.291662 28.029747 57.153960 0
M  V30 16 O 37.077794 26.141236 57.453484 0
M  V30 17 C 36.521827 33.954415 59.571933 0 CFG=1
M  V30 18 C 40.171461 26.439857 55.631745 0
M  V30 19 P 41.431124 31.641895 62.848982 0
M  V30 20 C 36.591552 23.368877 55.319019 0
M  V30 21 O 37.066721 24.695279 55.171825 0
M  V30 22 N 37.867416 31.240805 56.081742 0 CHG=1
M  V30 23 O 38.892394 26.069328 55.127969 0
M  V30 24 C 39.336524 28.763988 58.368785 0
M  V30 25 C 38.113258 25.210471 57.245087 0 CFG=1
M  V30 26 C 35.101233 34.234415 59.125452 0
M  V30 27 O 41.467401 30.285400 62.253503 0
M  V30 28 C 38.312510 24.953296 55.733389 0 CFG=1
M  V30 29 C 34.208844 33.173839 59.796888 0
M  V30 30 C 38.263263 32.207028 55.039023 0
M  V30 31 H 39.291573 25.915796 58.933738 0
M  V30 32 H 40.131539 24.830527 57.857032 0
M  V30 33 H 39.407723 31.805613 57.425240 0
M  V30 34 H 39.730769 30.398305 56.466031 0
M  V30 35 H 40.109724 30.452647 60.253401 0
M  V30 36 H 39.717681 32.120326 59.935278 0
M  V30 37 H 37.180736 32.840512 61.294025 0
M  V30 38 H 37.476265 29.569718 57.849006 0
M  V30 39 H 37.577211 30.009781 60.125169 0
M  V30 40 H 41.064589 27.040747 57.494377 0
M  V30 41 H 39.567150 33.329497 62.129670 0
M  V30 42 H 38.535738 33.564580 58.859979 0
M  V30 43 H 37.270621 33.374845 57.601146 0
M  V30 44 H 36.267391 31.512743 58.703014 0
M  V30 45 H 34.873595 32.915380 61.842276 0
M  V30 46 H 34.843782 31.406442 60.939948 0
M  V30 47 H 36.508295 26.082218 56.698657 0
M  V30 48 H 36.982913 34.805493 60.075808 0
M  V30 49 H 40.547785 27.278204 55.053544 0
M  V30 50 H 40.876060 25.621587 55.490210 0
M  V30 51 H 35.536810 23.358740 55.053593 0
M  V30 52 H 37.119463 22.686082 54.653663 0
M  V30 53 H 36.666955 22.998231 56.340124 0
M  V30 54 H 37.549918 30.389866 55.640962 0
M  V30 55 H 38.980357 28.155277 59.200166 0
M  V30 56 H 40.367371 29.054655 58.576772 0
M  V30 57 H 37.807740 24.278507 57.720389 0
M  V30 58 H 34.811240 35.221452 59.452671 0
M  V30 59 H 34.996170 34.232769 58.044091 0
M  V30 60 H 38.975764 24.107885 55.554885 0
M  V30 61 H 33.306031 33.618447 60.215026 0
M  V30 62 H 33.894044 32.441519 59.053643 0
M  V30 63 H 37.427496 32.394879 54.365692 0
M  V30 64 H 38.558769 33.159602 55.479521 0
M  V30 65 H 39.095793 31.824461 54.447324 0
M  V30 66 H 37.070383 31.621485 56.592785 0
M  V30 END ATOM
M  V30 BEGIN BOND
M  V30 1 1 5 4
M  V30 2 1 7 2
M  V30 3 1 9 4
M  V30 4 1 9 7
M  V30 5 1 10 1
M  V30 6 1 11 5
M  V30 7 1 11 8
M  V30 8 1 13 6
M  V30 9 1 13 9
M  V30 10 1 13 12
M  V30 11 1 14 6
M  V30 12 1 15 10
M  V30 13 1 17 6
M  V30 14 1 17 12
M  V30 15 1 18 10
M  V30 16 1 19 3
M  V30 17 1 19 8
M  V30 18 1 19 11
M  V30 19 1 21 20
M  V30 20 1 22 2
M  V30 21 1 23 18
M  V30 22 1 24 7
M  V30 23 1 24 15
M  V30 24 1 25 1
M  V30 25 1 25 16
M  V30 26 1 26 17
M  V30 27 2 27 19
M  V30 28 1 28 21
M  V30 29 1 28 23
M  V30 30 1 28 25
M  V30 31 1 29 14
M  V30 32 1 29 26
M  V30 33 1 30 22
M  V30 34 1 31 1
M  V30 35 1 32 1
M  V30 36 1 33 2
M  V30 37 1 34 2
M  V30 38 1 35 4
M  V30 39 1 36 4
M  V30 40 1 6 37 CFG=1
M  V30 41 1 7 38 CFG=3
M  V30 42 1 9 39 CFG=1
M  V30 43 1 10 40 CFG=1
M  V30 44 1 11 41 CFG=1
M  V30 45 1 42 12
M  V30 46 1 43 12
M  V30 47 1 13 44 CFG=3
M  V30 48 1 45 14
M  V30 49 1 46 14
M  V30 50 1 47 16
M  V30 51 1 17 48 CFG=1
M  V30 52 1 49 18
M  V30 53 1 50 18
M  V30 54 1 51 20
M  V30 55 1 52 20
M  V30 56 1 53 20
M  V30 57 1 54 22
M  V30 58 1 55 24
M  V30 59 1 56 24
M  V30 60 1 25 57 CFG=1
M  V30 61 1 58 26
M  V30 62 1 59 26
M  V30 63 1 28 60 CFG=1
M  V30 64 1 61 29
M  V30 65 1 62 29
M  V30 66 1 63 30
M  V30 67 1 64 30
M  V30 68 1 65 30
M  V30 69 1 66 22
M  V30 END BOND
M  V30 END CTAB
M  END
>  <i_epik_Tot_Q>  (1) 
0

>  <i_epik_Tot_abs_Q>  (1) 
2

>  <i_i_glide_confnum>  (1) 
422

>  <i_i_glide_lignum>  (1) 
94

>  <i_i_glide_posenum>  (1) 
163

>  <i_i_glide_rotatable_bonds>  (1) 
12

>  <i_lp_mmshare_version>  (1) 
72125

>  <i_m_source_file_index>  (1) 
41

>  <i_f3d_flags>  (1) 
0

>  <num_sample>  (1) 
50

>  <b_lp_Chiralities_Consistent>  (1) 
1

>  <r_epik_Charging_Adjusted_Penalty>  (1) 
0.001220089536417487

>  <r_epik_Ionization_Penalty>  (1) 
0.0012207097255128069

>  <r_epik_Ionization_Penalty_Charging>  (1) 
0.001220089536417487

>  <r_epik_Ionization_Penalty_Neutral>  (1) 
6.2018909532001439e-07

>  <r_epik_State_Penalty>  (1) 
-0

>  <r_glide_ring_energy>  (1) 
2.4996791549734296

>  <r_i_docking_score>  (1) 
-6.0388262059984044

>  <r_i_glide_ecoul>  (1) 
-7.6189536453577853

>  <r_i_glide_eff_state_penalty>  (1) 
-0

>  <r_i_glide_einternal>  (1) 
18.533796338106207

>  <r_i_glide_emodel>  (1) 
-48.240940073887529

>  <r_i_glide_emodel_strain>  (1) 
1.2800559082935621

>  <r_i_glide_energy>  (1) 
-43.919512900612823

>  <r_i_glide_erotb>  (1) 
0.69437166535620165

>  <r_i_glide_esite>  (1) 
-0.10000000000000001

>  <r_i_glide_evdw>  (1) 
-36.300559255255038

>  <r_i_glide_gscore>  (1) 
-6.0388262059984044

>  <r_i_glide_gscore_strain>  (1) 
0

>  <r_i_glide_hbond>  (1) 
-0.35999999999999999

>  <r_i_glide_ligand_efficiency>  (1) 
-0.20129420686661348

>  <r_i_glide_ligand_efficiency_ln>  (1) 
-1.3720871122843805

>  <r_i_glide_ligand_efficiency_sa>  (1) 
-0.62546790283614195

>  <r_i_glide_lipo>  (1) 
-1.7086673487956148

>  <r_i_glide_metal>  (1) 
-0

>  <r_i_glide_rewards>  (1) 
-1.6066595129925711

>  <r_lp_Energy>  (1) 
49.981364999999997

>  <r_lp_tautomer_probability>  (1) 
1

>  <s_epik_Chemistry_Notes>  (1) 
This compound contains an acetal/aminal-like group ( X-CH(R)-Y where X, Y are N, S, or O) that may be acid/base labile, releasing an aldehyde.

>  <s_epik_cmdline>  (1) 
J2VwaWtfcHl0aG9uJywgJy1waHQnLCAnMS4wJywgJy1waCcsICc3LjQnLCAnLXRuJywgJzgnLCAnLW1hJywgJzUwMCcsICctaW1hZScsICc8aW5maWxlLm1hZT4nLCAnLW9tYWUnLCAnPG91dGZpbGUubWFlPic=

>  <s_epik_input>  (1) 
W0NIMl0xT1tDQEhdKE9bQ0gzXSlbQ0BIXShbT0hdKVtDSDJdW0NAQEhdMU9bQ0gyXVtDQEhdKFtDSDJdW05IXVtDSDNdKVtDQEBIXShbQ0gyXU9bQ0BIXTJPW1BAXTIoPU8pW09IXSlbQ0BASF0zW0NIMl1bQ0BIXShbQ0BIXTM0KVtDSDJdW0NIMl1bQ0gyXTQ=

>  <s_glide_docking_method>  (1) 
confgen

>  <s_i_glide_gridfile>  (1) 
gpcr_5ht2c_6bqh_protein_autoprepared_prepared

>  <s_lp_Force_Field>  (1) 
S-OPLS

>  <s_lp_Variant>  (1) 
DiffSBDD_40_num_sample_50-1

>  <s_m_source_file>  (1) 
generated__ligand_DiffSBDD_2026-05-06_prepared.sdf

>  <GenAI_Model>  (1) 
DiffSBDD

>  <Protein>  (1) 
GPCR_5HT2C

$$$$
DiffSBDD_9_num_sample_50
     RDKit          3D

  0  0  0  0  0  0  0  0  0  0999 V3000
M  V30 BEGIN CTAB
M  V30 COUNTS 72 73 0 0 1
M  V30 BEGIN ATOM
M  V30 1 C 37.017187 31.693935 59.514353 0
M  V30 2 C 38.967374 29.719753 54.863407 0
M  V30 3 C 42.467325 29.360395 64.832012 0
M  V30 4 O 43.826166 26.908137 64.774648 0
M  V30 5 C 38.100543 32.134131 58.527261 0
M  V30 6 C 41.346742 30.950707 66.480863 0
M  V30 7 C 42.667477 26.999264 65.189961 0
M  V30 8 C 39.429884 26.836590 53.855433 0
M  V30 9 C 41.722398 34.103583 64.574824 0
M  V30 10 C 41.942362 25.755582 65.712590 0
M  V30 11 O 38.536828 30.930062 61.260062 0
M  V30 12 C 41.660076 35.336117 65.484932 0
M  V30 13 C 39.104435 31.237260 55.112976 0 CFG=1
M  V30 14 C 41.840823 32.350205 66.600117 0 CFG=1
M  V30 15 C 43.285188 32.723134 66.305775 0
M  V30 16 F 40.698551 25.708077 65.230662 0
M  V30 17 C 38.733024 29.307827 53.394339 0 CFG=2
M  V30 18 C 37.014761 27.443334 53.586812 0
M  V30 19 O 43.606101 29.512143 64.378294 0
M  V30 20 C 37.468482 31.824857 60.983197 0
M  V30 21 C 41.530228 30.576899 64.988381 0 CFG=1
M  V30 22 N 38.399820 31.274183 57.539757 0
M  V30 23 F 42.609348 24.652579 65.371068 0
M  V30 24 O 38.660268 33.221440 58.662832 0
M  V30 25 P 40.075067 31.473417 61.780212 0
M  V30 26 C 37.889525 32.056171 54.661257 0
M  V30 27 N 41.965596 28.161712 65.230363 0
M  V30 28 O 40.295024 32.862411 61.324031 0 CHG=-1
M  V30 29 C 38.441822 27.800246 53.169350 0
M  V30 30 O 39.865405 31.508786 63.459762 0
M  V30 31 O 42.196023 31.699185 64.388931 0
M  V30 32 C 42.222905 32.833212 65.241259 0 CFG=2
M  V30 33 C 39.467371 31.524267 56.576036 0
M  V30 34 O 39.803589 29.717695 52.566587 0
M  V30 35 O 41.067406 30.422765 61.453502 0
M  V30 36 C 40.173264 30.384686 64.260369 0
M  V30 37 H 36.134559 32.310323 59.345284 0
M  V30 38 H 36.715080 30.665856 59.309391 0
M  V30 39 H 38.146487 29.343291 55.473424 0
M  V30 40 H 39.870380 29.235782 55.234149 0
M  V30 41 H 40.306863 30.906155 66.804784 0
M  V30 42 H 41.923154 30.319309 67.158295 0
M  V30 43 H 39.595845 27.075380 54.904775 0
M  V30 44 H 39.045500 25.818480 53.853526 0
M  V30 45 H 40.386631 26.816942 53.340731 0
M  V30 46 H 42.362736 34.315087 63.718984 0
M  V30 47 H 40.729466 33.905597 64.168483 0
M  V30 48 H 41.880416 25.780009 66.800659 0
M  V30 49 H 41.234855 36.180296 64.942865 0
M  V30 50 H 41.034534 35.164608 66.359833 0
M  V30 51 H 42.651189 35.633272 65.823476 0
M  V30 52 H 39.952878 31.585083 54.523266 0
M  V30 53 H 41.285468 33.008168 67.264931 0
M  V30 54 H 44.011625 31.917583 66.212346 0
M  V30 55 H 43.658149 33.621087 66.784027 0
M  V30 56 H 37.867295 29.861400 53.053506 0
M  V30 57 H 36.870574 27.602443 54.653405 0
M  V30 58 H 36.268843 28.028383 53.046099 0
M  V30 59 H 36.811249 26.392073 53.381680 0
M  V30 60 H 37.751842 32.853196 61.209797 0
M  V30 61 H 36.636690 31.591266 61.645552 0
M  V30 62 H 37.896032 30.403456 57.475070 0
M  V30 63 H 36.955994 31.612032 55.003103 0
M  V30 64 H 37.929588 33.074764 55.048494 0
M  V30 65 H 37.867607 32.125387 53.576785 0
M  V30 66 H 41.020918 28.134453 65.584487 0
M  V30 67 H 38.491083 27.606952 52.095663 0
M  V30 68 H 40.267403 30.845194 56.858019 0
M  V30 69 H 39.867459 32.537329 56.651361 0
M  V30 70 H 40.572372 29.217675 52.786156 0
M  V30 71 H 39.356288 30.230111 64.962675 0
M  V30 72 H 40.181787 29.496079 63.627977 0
M  V30 END ATOM
M  V30 BEGIN BOND
M  V30 1 1 5 1
M  V30 2 2 7 4
M  V30 3 1 10 7
M  V30 4 1 12 9
M  V30 5 1 13 2
M  V30 6 1 14 6
M  V30 7 1 15 14
M  V30 8 1 16 10
M  V30 9 1 17 2
M  V30 10 2 19 3
M  V30 11 1 20 1
M  V30 12 1 20 11
M  V30 13 1 21 3
M  V30 14 1 21 6
M  V30 15 1 22 5
M  V30 16 1 23 10
M  V30 17 2 24 5
M  V30 18 1 25 11
M  V30 19 1 26 13
M  V30 20 1 27 3
M  V30 21 1 27 7
M  V30 22 1 28 25
M  V30 23 1 29 8
M  V30 24 1 29 17
M  V30 25 1 29 18
M  V30 26 1 30 25
M  V30 27 1 31 21
M  V30 28 1 32 9 CFG=3
M  V30 29 1 32 14
M  V30 30 1 32 15
M  V30 31 1 32 31
M  V30 32 1 33 13
M  V30 33 1 33 22
M  V30 34 1 34 17
M  V30 35 2 35 25
M  V30 36 1 21 36 CFG=3
M  V30 37 1 36 30
M  V30 38 1 37 1
M  V30 39 1 38 1
M  V30 40 1 39 2
M  V30 41 1 40 2
M  V30 42 1 41 6
M  V30 43 1 42 6
M  V30 44 1 43 8
M  V30 45 1 44 8
M  V30 46 1 45 8
M  V30 47 1 46 9
M  V30 48 1 47 9
M  V30 49 1 48 10
M  V30 50 1 49 12
M  V30 51 1 50 12
M  V30 52 1 51 12
M  V30 53 1 13 52 CFG=3
M  V30 54 1 14 53 CFG=1
M  V30 55 1 54 15
M  V30 56 1 55 15
M  V30 57 1 17 56 CFG=3
M  V30 58 1 57 18
M  V30 59 1 58 18
M  V30 60 1 59 18
M  V30 61 1 60 20
M  V30 62 1 61 20
M  V30 63 1 62 22
M  V30 64 1 63 26
M  V30 65 1 64 26
M  V30 66 1 65 26
M  V30 67 1 66 27
M  V30 68 1 67 29
M  V30 69 1 68 33
M  V30 70 1 69 33
M  V30 71 1 70 34
M  V30 72 1 71 36
M  V30 73 1 72 36
M  V30 END BOND
M  V30 END CTAB
M  END
>  <i_epik_Tot_Q>  (1) 
-1

>  <i_epik_Tot_abs_Q>  (1) 
1

>  <i_i_glide_confnum>  (1) 
4952

>  <i_i_glide_lignum>  (1) 
31

>  <i_i_glide_posenum>  (1) 
246

>  <i_i_glide_rotatable_bonds>  (1) 
19

>  <i_lp_mmshare_version>  (1) 
72125

>  <i_m_source_file_index>  (1) 
10

>  <i_f3d_flags>  (1) 
0

>  <num_sample>  (1) 
50

>  <b_lp_Chiralities_Consistent>  (1) 
1

>  <r_epik_Charging_Adjusted_Penalty>  (1) 
0.00011155638353850814

>  <r_epik_Ionization_Penalty>  (1) 
0.00045402006549120547

>  <r_epik_Ionization_Penalty_Charging>  (1) 
0.00011155638353850814

>  <r_epik_Ionization_Penalty_Neutral>  (1) 
0.00034246368195269732

>  <r_epik_State_Penalty>  (1) 
-0

>  <r_glide_ring_energy>  (1) 
0

>  <r_i_docking_score>  (1) 
-6.0310687312334679

>  <r_i_glide_ecoul>  (1) 
-6.8867697738816585

>  <r_i_glide_eff_state_penalty>  (1) 
-0

>  <r_i_glide_einternal>  (1) 
12.223894565778084

>  <r_i_glide_emodel>  (1) 
-61.334756548522378

>  <r_i_glide_emodel_strain>  (1) 
0.55499621133434829

>  <r_i_glide_energy>  (1) 
-50.113375695798076

>  <r_i_glide_erotb>  (1) 
1.0579039017731899

>  <r_i_glide_esite>  (1) 
-0.14874659458576076

>  <r_i_glide_evdw>  (1) 
-43.226605921916416

>  <r_i_glide_gscore>  (1) 
-6.0310687312334679

>  <r_i_glide_gscore_strain>  (1) 
0

>  <r_i_glide_hbond>  (1) 
-0.16

>  <r_i_glide_ligand_efficiency>  (1) 
-0.16752968697870743

>  <r_i_glide_ligand_efficiency_ln>  (1) 
-1.3158162565081368

>  <r_i_glide_ligand_efficiency_sa>  (1) 
-0.55317083843378156

>  <r_i_glide_lipo>  (1) 
-2.3379625544600353

>  <r_i_glide_metal>  (1) 
-0

>  <r_i_glide_rewards>  (1) 
-1.2479177217827926

>  <r_lp_Energy>  (1) 
21.957920999999999

>  <r_lp_tautomer_probability>  (1) 
1

>  <s_epik_cmdline>  (1) 
J2VwaWtfcHl0aG9uJywgJy1waHQnLCAnMS4wJywgJy1waCcsICc3LjQnLCAnLXRuJywgJzgnLCAnLW1hJywgJzUwMCcsICctaW1hZScsICc8aW5maWxlLm1hZT4nLCAnLW9tYWUnLCAnPG91dGZpbGUubWFlPic=

>  <s_epik_input>  (1) 
W0NIM11bQ0hdKFtDSDNdKVtDQEhdKFtPSF0pW0NIMl1bQ0BASF0oW0NIM10pW0NIMl1bTkhdQyg9TylbQ0gyXVtDSDJdT1tQQEBdKD1PKShbT0hdKU9bQ0gyXVtDQF0oTzEpKEMoPU8pW05IXUMoPU8pW0NIXShGKUYpW0NIMl1bQ0BASF0oW0NIMl0yKVtDQF0xMltDSDJdW0NIM10=

>  <s_glide_docking_method>  (1) 
confgen

>  <s_i_glide_gridfile>  (1) 
gpcr_5ht2c_6bqh_protein_autoprepared_prepared

>  <s_lp_Force_Field>  (1) 
S-OPLS

>  <s_lp_Variant>  (1) 
DiffSBDD_9_num_sample_50-1

>  <s_m_source_file>  (1) 
generated__ligand_DiffSBDD_2026-05-06_prepared.sdf

>  <GenAI_Model>  (1) 
DiffSBDD

>  <Protein>  (1) 
GPCR_5HT2C

$$$$
DiffSBDD_32_num_sample_50
     RDKit          3D

  0  0  0  0  0  0  0  0  0  0999 V3000
M  V30 BEGIN CTAB
M  V30 COUNTS 52 55 0 0 1
M  V30 BEGIN ATOM
M  V30 1 C 40.464104 30.980705 62.509676 0
M  V30 2 O 38.063494 26.825309 53.604409 0
M  V30 3 C 38.723602 30.220473 57.037651 0
M  V30 4 C 38.900092 29.281770 54.948420 0
M  V30 5 C 39.867327 29.791687 51.281308 0
M  V30 6 C 41.162557 30.647494 66.625397 0
M  V30 7 N 40.667430 32.039263 64.684525 0
M  V30 8 C 38.866632 27.596367 51.489702 0
M  V30 9 C 38.689194 30.581454 55.673568 0
M  V30 10 C 40.911625 30.784973 65.137391 0
M  V30 11 C 39.066131 29.035094 53.479713 0
M  V30 12 C 39.146632 27.611323 59.453745 0
M  V30 13 C 39.662059 30.023103 52.655425 0
M  V30 14 N 38.629475 31.012380 58.042806 0 CHG=1
M  V30 15 N 40.712017 29.731616 62.964314 0
M  V30 16 N 38.889200 29.014272 57.326764 0
M  V30 17 C 40.444366 32.119744 63.355688 0
M  V30 18 C 39.467479 28.585416 50.704280 0
M  V30 19 C 38.512712 31.894576 54.935656 0
M  V30 20 C 38.664595 27.804404 52.868589 0
M  V30 21 C 40.938110 29.646082 64.296592 0
M  V30 22 F 41.196767 28.431222 64.837084 0
M  V30 23 C 38.769021 30.782719 60.578294 0
M  V30 24 C 40.524956 30.847446 50.427550 0
M  V30 25 C 38.942225 28.875858 58.703009 0
M  V30 26 C 38.772618 30.225065 59.189025 0
M  V30 27 C 40.217726 31.102842 61.015068 0
M  V30 28 S 39.027398 27.866054 56.139484 0
M  V30 29 N 40.192016 33.386973 62.835190 0
M  V30 30 H 37.711434 26.127114 53.071165 0
M  V30 31 H 42.176470 30.288582 66.804397 0
M  V30 32 H 41.037221 31.597367 67.145751 0
M  V30 33 H 40.464274 29.929978 67.057886 0
M  V30 34 H 38.556665 26.669756 51.033157 0
M  V30 35 H 39.323825 27.828197 60.507536 0
M  V30 36 H 38.267884 26.974027 59.367800 0
M  V30 37 H 40.010861 27.074966 59.061129 0
M  V30 38 H 39.988186 30.955218 53.085305 0
M  V30 39 H 39.618389 28.421371 49.650836 0
M  V30 40 H 37.892118 32.565133 55.530595 0
M  V30 41 H 39.467522 32.387086 54.767102 0
M  V30 42 H 38.002035 31.751812 53.983539 0
M  V30 43 H 38.126391 31.660448 60.648108 0
M  V30 44 H 38.338110 30.023953 61.233433 0
M  V30 45 H 39.834701 31.672682 50.257151 0
M  V30 46 H 41.417473 31.221473 50.926170 0
M  V30 47 H 40.829448 30.450152 49.458333 0
M  V30 48 H 40.905668 30.395527 60.547240 0
M  V30 49 H 40.526556 32.081261 60.652632 0
M  V30 50 H 40.019423 33.531393 61.852306 0
M  V30 51 H 40.184390 34.205237 63.427343 0
M  V30 52 H 38.491766 32.014865 58.013225 0
M  V30 END ATOM
M  V30 BEGIN BOND
M  V30 1 1 9 3
M  V30 2 2 9 4
M  V30 3 1 10 6
M  V30 4 2 10 7
M  V30 5 1 11 4
M  V30 6 2 13 5
M  V30 7 1 13 11
M  V30 8 2 14 3
M  V30 9 1 15 1
M  V30 10 1 16 3
M  V30 11 2 17 1
M  V30 12 1 17 7
M  V30 13 1 18 5
M  V30 14 2 18 8
M  V30 15 1 19 9
M  V30 16 1 20 2
M  V30 17 1 20 8
M  V30 18 2 20 11
M  V30 19 1 21 10
M  V30 20 2 21 15
M  V30 21 1 22 21
M  V30 22 1 24 5
M  V30 23 1 25 12
M  V30 24 1 25 16
M  V30 25 1 26 14
M  V30 26 1 26 23
M  V30 27 2 26 25
M  V30 28 1 27 1
M  V30 29 1 27 23
M  V30 30 1 28 4
M  V30 31 1 28 16
M  V30 32 1 29 17
M  V30 33 1 30 2
M  V30 34 1 31 6
M  V30 35 1 32 6
M  V30 36 1 33 6
M  V30 37 1 34 8
M  V30 38 1 35 12
M  V30 39 1 36 12
M  V30 40 1 37 12
M  V30 41 1 38 13
M  V30 42 1 39 18
M  V30 43 1 40 19
M  V30 44 1 41 19
M  V30 45 1 42 19
M  V30 46 1 43 23
M  V30 47 1 44 23
M  V30 48 1 45 24
M  V30 49 1 46 24
M  V30 50 1 47 24
M  V30 51 1 48 27
M  V30 52 1 49 27
M  V30 53 1 50 29
M  V30 54 1 51 29
M  V30 55 1 52 14
M  V30 END BOND
M  V30 END CTAB
M  END
>  <i_epik_Tot_Q>  (1) 
1

>  <i_epik_Tot_abs_Q>  (1) 
1

>  <i_i_glide_confnum>  (1) 
2

>  <i_i_glide_lignum>  (1) 
85

>  <i_i_glide_posenum>  (1) 
351

>  <i_i_glide_rotatable_bonds>  (1) 
5

>  <i_lp_mmshare_version>  (1) 
72125

>  <i_m_source_file_index>  (1) 
33

>  <i_f3d_flags>  (1) 
0

>  <num_sample>  (1) 
50

>  <b_lp_Chiralities_Consistent>  (1) 
1

>  <r_epik_Charging_Adjusted_Penalty>  (1) 
0.70840898770903482

>  <r_epik_Ionization_Penalty>  (1) 
0.71036238548422381

>  <r_epik_Ionization_Penalty_Charging>  (1) 
0

>  <r_epik_Ionization_Penalty_Neutral>  (1) 
0.71036238548422381

>  <r_epik_State_Penalty>  (1) 
0.70840898770903482

>  <r_glide_ring_energy>  (1) 
0

>  <r_i_docking_score>  (1) 
-6.0002245205771816

>  <r_i_glide_ecoul>  (1) 
-1.6688918207355521

>  <r_i_glide_eff_state_penalty>  (1) 
0.70840898770903482

>  <r_i_glide_einternal>  (1) 
1.6510586944457692

>  <r_i_glide_emodel>  (1) 
-67.313705771302764

>  <r_i_glide_emodel_strain>  (1) 
0.4908535432112302

>  <r_i_glide_energy>  (1) 
-46.581128736667182

>  <r_i_glide_erotb>  (1) 
0.46353657378789748

>  <r_i_glide_esite>  (1) 
-0.10402990669138686

>  <r_i_glide_evdw>  (1) 
-44.912236915931629

>  <r_i_glide_gscore>  (1) 
-6.7086335082862165

>  <r_i_glide_gscore_strain>  (1) 
0

>  <r_i_glide_hbond>  (1) 
0

>  <r_i_glide_ligand_efficiency>  (1) 
-0.20690429381300626

>  <r_i_glide_ligand_efficiency_ln>  (1) 
-1.3738992626464153

>  <r_i_glide_ligand_efficiency_sa>  (1) 
-0.6356755431883474

>  <r_i_glide_lipo>  (1) 
-3.4671932135695784

>  <r_i_glide_metal>  (1) 
-0

>  <r_i_glide_rewards>  (1) 
-1.1050013429062351

>  <r_lp_Energy>  (1) 
27.758326

>  <r_lp_tautomer_probability>  (1) 
0.99999990127737282

>  <s_epik_cmdline>  (1) 
J2VwaWtfcHl0aG9uJywgJy1waHQnLCAnMS4wJywgJy1waCcsICc3LjQnLCAnLXRuJywgJzgnLCAnLW1hJywgJzUwMCcsICctaW1hZScsICc8aW5maWxlLm1hZT4nLCAnLW9tYWUnLCAnPG91dGZpbGUubWFlPic=

>  <s_epik_input>  (1) 
W05IMl1jMW5jKFtDSDNdKWMoRiluYzFbQ0gyXVtDSDJdYyhuMiljKFtDSDNdKW4oYzIzKXNjKGMzW0NIM10pLWMoW2NIXWM0W0NIM10pYyhbT0hdKVtjSF1bY0hdNA==

>  <s_glide_docking_method>  (1) 
confgen

>  <s_i_glide_gridfile>  (1) 
gpcr_5ht2c_6bqh_protein_autoprepared_prepared

>  <s_lp_Force_Field>  (1) 
S-OPLS

>  <s_lp_Variant>  (1) 
DiffSBDD_32_num_sample_50-2

>  <s_m_source_file>  (1) 
generated__ligand_DiffSBDD_2026-05-06_prepared.sdf

>  <GenAI_Model>  (1) 
DiffSBDD

>  <Protein>  (1) 
GPCR_5HT2C

$$$$
DiffSBDD_30_num_sample_50
     RDKit          3D

  0  0  0  0  0  0  0  0  0  0999 V3000
M  V30 BEGIN CTAB
M  V30 COUNTS 68 67 0 0 1
M  V30 BEGIN ATOM
M  V30 1 C 38.924089 29.899885 53.853217 0
M  V30 2 C 37.553295 33.285829 60.488987 0 CFG=2
M  V30 3 C 37.892333 34.768000 60.225047 0
M  V30 4 O 41.692415 34.899204 63.940054 0
M  V30 5 C 40.590739 36.437928 62.456034 0
M  V30 6 C 38.263890 31.090822 61.670776 0
M  V30 7 C 38.640294 26.871370 54.441944 0
M  V30 8 C 39.116678 27.554053 50.660015 0
M  V30 9 C 38.044858 32.584127 58.014587 0
M  V30 10 C 38.710508 32.486864 61.173532 0 CFG=2
M  V30 11 C 38.478373 28.821787 52.825732 0 CFG=1
M  V30 12 C 39.363655 33.280963 62.333342 0
M  V30 13 C 39.596644 28.456679 51.802906 0 CFG=2
M  V30 14 C 38.539664 31.308692 55.923277 0
M  V30 15 C 39.431525 30.147479 62.001047 0
M  V30 16 C 37.037045 32.630837 59.186452 0
M  V30 17 C 41.067461 35.058524 62.892770 0
M  V30 18 C 40.735810 33.879763 61.970654 0 CFG=1
M  V30 19 C 38.020735 30.133227 55.072716 0
M  V30 20 C 40.488808 29.625554 51.294590 0
M  V30 21 O 38.281157 30.226516 58.012648 0 CHG=-1
M  V30 22 C 40.019376 30.429960 50.075570 0
M  V30 23 N 37.867409 31.281655 57.271069 0 CFG=1 CHG=1
M  V30 24 C 41.841787 32.806465 61.972079 0
M  V30 25 C 37.961427 27.556002 53.505278 0
M  V30 26 H 39.919211 29.651709 54.223764 0
M  V30 27 H 39.015199 30.857958 53.341545 0
M  V30 28 H 36.711157 33.287531 61.182849 0
M  V30 29 H 38.907659 34.872694 59.853472 0
M  V30 30 H 37.216922 35.216260 59.495422 0
M  V30 31 H 37.815337 35.372263 61.128680 0
M  V30 32 H 40.841953 36.610437 61.409763 0
M  V30 33 H 39.510841 36.521373 62.576764 0
M  V30 34 H 41.067048 37.214349 63.053511 0
M  V30 35 H 37.621243 31.208434 62.541800 0
M  V30 36 H 37.668098 30.583041 60.916278 0
M  V30 37 H 39.617553 27.195012 54.770341 0
M  V30 38 H 38.225444 25.980177 54.889906 0
M  V30 39 H 38.667405 28.126870 49.854866 0
M  V30 40 H 39.960850 27.000671 50.253482 0
M  V30 41 H 38.383701 26.821394 50.991752 0
M  V30 42 H 39.088460 32.630406 58.313527 0
M  V30 43 H 37.843405 33.397361 57.316315 0
M  V30 44 H 39.476534 32.311443 60.421010 0
M  V30 45 H 37.630542 29.221405 52.273403 0
M  V30 46 H 38.682406 34.064509 62.653482 0
M  V30 47 H 39.481542 32.662021 63.222431 0
M  V30 48 H 40.267388 27.809282 52.360362 0
M  V30 49 H 39.612290 31.257429 56.111397 0
M  V30 50 H 38.302174 32.260410 55.446690 0
M  V30 51 H 39.067372 29.152603 62.253481 0
M  V30 52 H 40.096586 30.037007 61.144685 0
M  V30 53 H 40.022299 30.498999 62.846089 0
M  V30 54 H 36.154190 33.174130 58.845494 0
M  V30 55 H 36.646764 31.637599 59.397862 0
M  V30 56 H 40.674278 34.296747 60.966990 0
M  V30 57 H 36.994578 30.331180 54.759338 0
M  V30 58 H 37.988886 29.230334 55.681270 0
M  V30 59 H 40.667425 30.337397 52.092418 0
M  V30 60 H 41.468568 29.221606 51.053534 0
M  V30 61 H 40.738273 31.219267 49.853917 0
M  V30 62 H 39.934406 29.814204 49.180666 0
M  V30 63 H 39.067376 30.917216 50.253467 0
M  V30 64 H 42.800268 33.221388 61.673912 0
M  V30 65 H 41.963763 32.352930 62.956292 0
M  V30 66 H 41.618597 32.008852 61.265610 0
M  V30 67 H 36.987178 27.207608 53.195980 0
M  V30 68 H 36.837802 31.252464 57.056023 0
M  V30 END ATOM
M  V30 BEGIN BOND
M  V30 1 1 3 2
M  V30 2 1 10 2
M  V30 3 1 10 6
M  V30 4 1 11 1
M  V30 5 1 12 10
M  V30 6 1 13 8
M  V30 7 1 13 11
M  V30 8 1 15 6
M  V30 9 1 16 2
M  V30 10 1 16 9
M  V30 11 2 17 4
M  V30 12 1 17 5
M  V30 13 1 18 12
M  V30 14 1 18 17
M  V30 15 1 19 1
M  V30 16 1 19 14
M  V30 17 1 20 13
M  V30 18 1 22 20
M  V30 19 1 23 9
M  V30 20 1 23 14
M  V30 21 1 23 21
M  V30 22 1 24 18
M  V30 23 2 25 7
M  V30 24 1 25 11
M  V30 25 1 26 1
M  V30 26 1 27 1
M  V30 27 1 2 28 CFG=1
M  V30 28 1 29 3
M  V30 29 1 30 3
M  V30 30 1 31 3
M  V30 31 1 32 5
M  V30 32 1 33 5
M  V30 33 1 34 5
M  V30 34 1 35 6
M  V30 35 1 36 6
M  V30 36 1 37 7
M  V30 37 1 38 7
M  V30 38 1 39 8
M  V30 39 1 40 8
M  V30 40 1 41 8
M  V30 41 1 42 9
M  V30 42 1 43 9
M  V30 43 1 10 44 CFG=3
M  V30 44 1 11 45 CFG=3
M  V30 45 1 46 12
M  V30 46 1 47 12
M  V30 47 1 13 48 CFG=1
M  V30 48 1 49 14
M  V30 49 1 50 14
M  V30 50 1 51 15
M  V30 51 1 52 15
M  V30 52 1 53 15
M  V30 53 1 54 16
M  V30 54 1 55 16
M  V30 55 1 18 56 CFG=3
M  V30 56 1 57 19
M  V30 57 1 58 19
M  V30 58 1 59 20
M  V30 59 1 60 20
M  V30 60 1 61 22
M  V30 61 1 62 22
M  V30 62 1 63 22
M  V30 63 1 64 24
M  V30 64 1 65 24
M  V30 65 1 66 24
M  V30 66 1 67 25
M  V30 67 1 23 68 CFG=3
M  V30 END BOND
M  V30 END CTAB
M  END
>  <i_epik_Tot_Q>  (1) 
0

>  <i_epik_Tot_abs_Q>  (1) 
2

>  <i_i_glide_confnum>  (1) 
603

>  <i_i_glide_lignum>  (1) 
80

>  <i_i_glide_posenum>  (1) 
298

>  <i_i_glide_rotatable_bonds>  (1) 
15

>  <i_lp_mmshare_version>  (1) 
72125

>  <i_m_source_file_index>  (1) 
31

>  <i_f3d_flags>  (1) 
0

>  <num_sample>  (1) 
50

>  <b_lp_Chiralities_Consistent>  (1) 
1

>  <r_epik_Charging_Adjusted_Penalty>  (1) 
0.52251968911758562

>  <r_epik_Ionization_Penalty>  (1) 
0.019979657236955634

>  <r_epik_Ionization_Penalty_Charging>  (1) 
0.019979657236557934

>  <r_epik_Ionization_Penalty_Neutral>  (1) 
3.9770064437045143e-13

>  <r_epik_State_Penalty>  (1) 
0.50254003188102769

>  <r_glide_ring_energy>  (1) 
0

>  <r_i_docking_score>  (1) 
-5.9997310461448814

>  <r_i_glide_ecoul>  (1) 
-3.8542111456823616

>  <r_i_glide_eff_state_penalty>  (1) 
0.50254003188102769

>  <r_i_glide_einternal>  (1) 
8.7615819714072138

>  <r_i_glide_emodel>  (1) 
-50.339731395691174

>  <r_i_glide_emodel_strain>  (1) 
4.2986507865137717

>  <r_i_glide_energy>  (1) 
-42.317674375064001

>  <r_i_glide_erotb>  (1) 
1.833058027080513

>  <r_i_glide_esite>  (1) 
-0.10000000000000001

>  <r_i_glide_evdw>  (1) 
-38.463463229381638

>  <r_i_glide_gscore>  (1) 
-6.5022710780259088

>  <r_i_glide_gscore_strain>  (1) 
0.074662696628442937

>  <r_i_glide_hbond>  (1) 
-0.16

>  <r_i_glide_ligand_efficiency>  (1) 
-0.23998924184579526

>  <r_i_glide_ligand_efficiency_ln>  (1) 
-1.4221160553670278

>  <r_i_glide_ligand_efficiency_sa>  (1) 
-0.70173280013736283

>  <r_i_glide_lipo>  (1) 
-3.9445408369742747

>  <r_i_glide_metal>  (1) 
-0

>  <r_i_glide_rewards>  (1) 
-1.7041461314391548

>  <r_lp_Energy>  (1) 
19.406434000000001

>  <s_epik_cmdline>  (1) 
J2VwaWtfcHl0aG9uJywgJy1waHQnLCAnMS4wJywgJy1waCcsICc3LjQnLCAnLXRuJywgJzgnLCAnLW1hJywgJzUwMCcsICctaW1hZScsICc8aW5maWxlLm1hZT4nLCAnLW9tYWUnLCAnPG91dGZpbGUubWFlPic=

>  <s_epik_input>  (1) 
W0NIM11bQ0gyXVtDQEhdKFtDSDNdKVtDQEBIXShbQ0hdPVtDSDJdKVtDSDJdW0NIMl1bQ0gyXU4oW09IXSlbQ0gyXVtDSDJdW0NASF0oW0NIM10pW0NASF0oW0NIMl1bQ0gzXSlbQ0gyXVtDQEhdKFtDSDNdKUMoPU8pW0NIM10=

>  <s_glide_docking_method>  (1) 
confgen

>  <s_i_glide_gridfile>  (1) 
gpcr_5ht2c_6bqh_protein_autoprepared_prepared

>  <s_lp_Force_Field>  (1) 
S-OPLS

>  <s_lp_Variant>  (1) 
DiffSBDD_30_num_sample_50-4

>  <s_m_source_file>  (1) 
generated__ligand_DiffSBDD_2026-05-06_prepared.sdf

>  <GenAI_Model>  (1) 
DiffSBDD

>  <Protein>  (1) 
GPCR_5HT2C

$$$$
DiffSBDD_5_num_sample_50
     RDKit          3D

  0  0  0  0  0  0  0  0  0  0999 V3000
M  V30 BEGIN CTAB
M  V30 COUNTS 79 81 0 0 1
M  V30 BEGIN ATOM
M  V30 1 C 39.018538 29.065469 57.937649 0
M  V30 2 C 38.479829 26.922680 56.977605 0 CFG=2
M  V30 3 N 37.758586 35.740854 61.533390 0
M  V30 4 F 40.678916 29.621433 49.053658 0
M  V30 5 C 38.647466 30.229824 61.130595 0
M  V30 6 N 38.463718 29.975966 58.668708 0 CHG=1
M  V30 7 C 39.641631 32.454065 62.174420 0 CFG=1
M  V30 8 C 39.534911 29.565072 50.997155 0 CFG=2
M  V30 9 C 37.733170 24.715906 56.288095 0
M  V30 10 C 39.314589 30.440974 59.775807 0 CFG=2
M  V30 11 N 40.216831 28.762799 58.346731 0
M  V30 12 C 39.044894 24.138043 56.893265 0
M  V30 13 C 38.375161 27.972341 54.339712 0 CFG=2
M  V30 14 C 37.154318 23.860361 55.152696 0
M  V30 15 N 38.574365 27.577859 51.948823 0 CHG=1
M  V30 16 C 38.861326 34.844941 61.854503 0
M  V30 17 C 37.863616 26.622634 58.328543 0
M  V30 18 C 40.632079 29.497474 59.549613 0
M  V30 19 C 38.349191 28.425652 56.768124 0 CFG=2
M  V30 20 C 39.350091 28.065260 50.805160 0
M  V30 21 O 38.948304 37.631584 61.862211 0
M  V30 22 C 40.759949 30.110245 50.285870 0
M  V30 23 C 36.648406 37.897108 61.258042 0
M  V30 24 C 37.889903 37.074019 61.577493 0
M  V30 25 S 39.472447 29.921916 52.747609 0
M  V30 26 C 38.997876 28.823629 55.468417 0
M  V30 27 C 38.505440 26.450110 54.654538 0
M  V30 28 C 42.000188 32.728027 62.297604 0
M  V30 29 O 40.860460 32.600412 61.456631 0
M  V30 30 O 37.273408 32.991955 61.853579 0
M  V30 31 N 37.826690 26.146365 55.919905 0
M  V30 32 C 38.587315 33.369517 61.492959 0 CFG=2
M  V30 33 N 39.067028 28.303044 53.109270 0
M  V30 34 C 39.326899 30.941876 62.311584 0
M  V30 35 H 39.545319 26.691058 56.979735 0
M  V30 36 H 36.868836 35.331554 61.287206 0
M  V30 37 H 38.668352 29.161806 61.347512 0
M  V30 38 H 37.595912 30.517595 61.075157 0
M  V30 39 H 39.774715 32.815650 63.195788 0
M  V30 40 H 38.667337 30.045852 50.615711 0
M  V30 41 H 36.966667 24.654374 57.061657 0
M  V30 42 H 39.467368 31.497226 59.586435 0
M  V30 43 H 40.805074 28.065320 57.909309 0
M  V30 44 H 38.873447 23.221781 57.453468 0
M  V30 45 H 39.783831 24.028986 56.116939 0
M  V30 46 H 39.562556 24.735004 57.635684 0
M  V30 47 H 37.321309 28.238093 54.230185 0
M  V30 48 H 36.863146 22.872052 55.503696 0
M  V30 49 H 36.263828 24.315339 54.719228 0
M  V30 50 H 37.888632 23.714848 54.367372 0
M  V30 51 H 38.705275 26.588614 52.106272 0
M  V30 52 H 39.068893 34.948545 62.922370 0
M  V30 53 H 39.762647 35.168512 61.332245 0
M  V30 54 H 38.279392 27.242608 59.124178 0
M  V30 55 H 36.790664 26.767030 58.253496 0
M  V30 56 H 38.012376 25.606830 58.665421 0
M  V30 57 H 41.564781 30.019996 59.377847 0
M  V30 58 H 40.790023 28.799727 60.372194 0
M  V30 59 H 37.303891 28.732247 56.762412 0
M  V30 60 H 38.872054 27.834795 49.857906 0
M  V30 61 H 40.332686 27.610648 50.807113 0
M  V30 62 H 40.756486 31.199058 50.219235 0
M  V30 63 H 41.697448 29.787081 50.737885 0
M  V30 64 H 36.163051 37.537167 60.350752 0
M  V30 65 H 35.935017 37.848807 62.081003 0
M  V30 66 H 36.904710 38.945262 61.110917 0
M  V30 67 H 38.824876 29.891962 55.336906 0
M  V30 68 H 40.075087 28.669787 55.528788 0
M  V30 69 H 38.043820 25.873618 53.853776 0
M  V30 70 H 39.555096 26.150183 54.702102 0
M  V30 71 H 42.906910 32.783712 61.693659 0
M  V30 72 H 41.940471 33.637877 62.896793 0
M  V30 73 H 42.095047 31.874809 62.968418 0
M  V30 74 H 37.159905 33.172234 62.775079 0
M  V30 75 H 38.636972 33.272983 60.408514 0
M  V30 76 H 40.244253 30.408327 62.564212 0
M  V30 77 H 38.683805 30.804943 63.180159 0
M  V30 78 H 37.593224 27.808482 51.843267 0
M  V30 79 H 37.540345 30.359246 58.495399 0
M  V30 END ATOM
M  V30 BEGIN BOND
M  V30 1 2 6 1
M  V30 2 1 10 5
M  V30 3 1 10 6
M  V30 4 1 11 1
M  V30 5 1 12 9
M  V30 6 1 14 9
M  V30 7 1 16 3
M  V30 8 1 17 2
M  V30 9 1 18 10
M  V30 10 1 18 11
M  V30 11 1 19 1
M  V30 12 1 19 2
M  V30 13 1 20 8
M  V30 14 1 20 15
M  V30 15 1 22 4
M  V30 16 1 22 8
M  V30 17 1 24 3
M  V30 18 2 24 21
M  V30 19 1 24 23
M  V30 20 1 25 8
M  V30 21 1 26 13
M  V30 22 1 26 19
M  V30 23 1 27 13
M  V30 24 1 29 7
M  V30 25 1 29 28
M  V30 26 1 31 2
M  V30 27 1 31 9
M  V30 28 1 31 27
M  V30 29 1 32 7
M  V30 30 1 32 16
M  V30 31 1 32 30
M  V30 32 1 33 13
M  V30 33 1 33 15
M  V30 34 1 33 25
M  V30 35 1 34 5
M  V30 36 1 34 7
M  V30 37 1 2 35 CFG=1
M  V30 38 1 36 3
M  V30 39 1 37 5
M  V30 40 1 38 5
M  V30 41 1 7 39 CFG=1
M  V30 42 1 8 40 CFG=3
M  V30 43 1 41 9
M  V30 44 1 10 42 CFG=3
M  V30 45 1 43 11
M  V30 46 1 44 12
M  V30 47 1 45 12
M  V30 48 1 46 12
M  V30 49 1 13 47 CFG=3
M  V30 50 1 48 14
M  V30 51 1 49 14
M  V30 52 1 50 14
M  V30 53 1 51 15
M  V30 54 1 52 16
M  V30 55 1 53 16
M  V30 56 1 54 17
M  V30 57 1 55 17
M  V30 58 1 56 17
M  V30 59 1 57 18
M  V30 60 1 58 18
M  V30 61 1 19 59 CFG=3
M  V30 62 1 60 20
M  V30 63 1 61 20
M  V30 64 1 62 22
M  V30 65 1 63 22
M  V30 66 1 64 23
M  V30 67 1 65 23
M  V30 68 1 66 23
M  V30 69 1 67 26
M  V30 70 1 68 26
M  V30 71 1 69 27
M  V30 72 1 70 27
M  V30 73 1 71 28
M  V30 74 1 72 28
M  V30 75 1 73 28
M  V30 76 1 74 30
M  V30 77 1 32 75 CFG=3
M  V30 78 1 76 34
M  V30 79 1 77 34
M  V30 80 1 78 15
M  V30 81 1 79 6
M  V30 END BOND
M  V30 END CTAB
M  END
>  <i_epik_Tot_Q>  (1) 
2

>  <i_epik_Tot_abs_Q>  (1) 
2

>  <i_i_glide_confnum>  (1) 
12

>  <i_i_glide_lignum>  (1) 
18

>  <i_i_glide_posenum>  (1) 
122

>  <i_i_glide_rotatable_bonds>  (1) 
13

>  <i_lp_mmshare_version>  (1) 
72125

>  <i_m_source_file_index>  (1) 
6

>  <i_f3d_flags>  (1) 
0

>  <num_sample>  (1) 
50

>  <b_lp_Chiralities_Consistent>  (1) 
1

>  <r_epik_Charging_Adjusted_Penalty>  (1) 
1.2202907703101018

>  <r_epik_Ionization_Penalty>  (1) 
1.220291206888735

>  <r_epik_Ionization_Penalty_Charging>  (1) 
0.00010224848283174563

>  <r_epik_Ionization_Penalty_Neutral>  (1) 
1.2201889584059034

>  <r_epik_State_Penalty>  (1) 
1.2201885218272701

>  <r_glide_ring_energy>  (1) 
0

>  <r_i_docking_score>  (1) 
-5.9882888540176324

>  <r_i_glide_ecoul>  (1) 
-3.3246228255186567

>  <r_i_glide_eff_state_penalty>  (1) 
1.2201885218272701

>  <r_i_glide_einternal>  (1) 
5.5430449464917615

>  <r_i_glide_emodel>  (1) 
-55.909379631751833

>  <r_i_glide_emodel_strain>  (1) 
2.4741675501702929

>  <r_i_glide_energy>  (1) 
-36.762492369423391

>  <r_i_glide_erotb>  (1) 
0.64218136225351719

>  <r_i_glide_esite>  (1) 
-0.0077196166092738218

>  <r_i_glide_evdw>  (1) 
-33.437869543904732

>  <r_i_glide_gscore>  (1) 
-7.208477375844903

>  <r_i_glide_gscore_strain>  (1) 
0

>  <r_i_glide_hbond>  (1) 
0

>  <r_i_glide_ligand_efficiency>  (1) 
-0.17612614276522448

>  <r_i_glide_ligand_efficiency_ln>  (1) 
-1.322980973665469

>  <r_i_glide_ligand_efficiency_sa>  (1) 
-0.57058033061570412

>  <r_i_glide_lipo>  (1) 
-4.5730860726464417

>  <r_i_glide_metal>  (1) 
-0

>  <r_i_glide_rewards>  (1) 
-1.0992661478196684

>  <r_lp_Energy>  (1) 
23.621561999999997

>  <s_epik_Chemistry_Notes>  (1) 
This compound has an imine and may undergo hydrolysis. This compound has a N-S or N-O group and may undergo hydrolysis at high or low pH.

>  <s_epik_cmdline>  (1) 
J2VwaWtfcHl0aG9uJywgJy1waHQnLCAnMS4wJywgJy1waCcsICc3LjQnLCAnLXRuJywgJzgnLCAnLW1hJywgJzUwMCcsICctaW1hZScsICc8aW5maWxlLm1hZT4nLCAnLW9tYWUnLCAnPG91dGZpbGUubWFlPic=

>  <s_epik_input>  (1) 
RltDSDJdW0NASF0xW0NIMl1bTkhdTihTMSlbQ0BASF0oW0NIMl1OMltDSF0oW0NIM10pW0NIM10pW0NIMl1bQ0BASF0oW0NASF0yW0NIM10pQzM9TltDQEhdKFtDSDJdW05IXTMpW0NIMl1bQ0gyXVtDQEBIXShPW0NIM10pW0NAQEhdKFtPSF0pW0NIMl1bTkhdQyg9TylbQ0gzXQ==

>  <s_glide_docking_method>  (1) 
confgen

>  <s_i_glide_gridfile>  (1) 
gpcr_5ht2c_6bqh_protein_autoprepared_prepared

>  <s_lp_Force_Field>  (1) 
S-OPLS

>  <s_lp_Variant>  (1) 
DiffSBDD_5_num_sample_50-5

>  <s_m_source_file>  (1) 
generated__ligand_DiffSBDD_2026-05-06_prepared.sdf

>  <GenAI_Model>  (1) 
DiffSBDD

>  <Protein>  (1) 
GPCR_5HT2C

$$$$
DiffSBDD_27_num_sample_50
     RDKit          3D

  0  0  0  0  0  0  0  0  0  0999 V3000
M  V30 BEGIN CTAB
M  V30 COUNTS 64 66 0 0 1
M  V30 BEGIN ATOM
M  V30 1 C 38.206651 35.394528 61.876671 0
M  V30 2 C 39.907809 36.473508 65.532189 0
M  V30 3 C 35.576120 37.013176 63.374920 0
M  V30 4 C 40.682134 35.565979 66.284604 0
M  V30 5 O 37.511649 37.655195 60.376446 0
M  V30 6 C 40.743266 35.496377 63.469722 0
M  V30 7 N 42.134256 33.621594 67.719416 0
M  V30 8 C 37.127784 33.640103 60.443938 0 CFG=1
M  V30 9 C 38.442633 28.210075 57.192018 0
M  V30 10 C 38.398302 30.969890 59.494590 0
M  V30 11 C 41.529068 34.587395 64.202003 0
M  V30 12 C 38.636818 31.177923 57.022342 0
M  V30 13 C 41.494961 34.605386 65.616015 0
M  V30 14 C 41.844339 28.371971 58.250517 0
M  V30 15 O 39.165386 37.247348 63.376401 0
M  V30 16 C 37.515965 32.429285 61.345960 0
M  V30 17 C 40.734715 35.473565 61.971715 0
M  V30 18 N 39.446552 34.963864 61.475342 0 CHG=1
M  V30 19 C 38.935531 30.298857 55.793487 0
M  V30 20 C 38.762783 30.424669 58.350451 0
M  V30 21 O 43.064485 32.817951 65.833780 0
M  V30 22 C 42.307685 33.601175 66.398137 0
M  V30 23 C 39.939793 36.419839 64.122478 0
M  V30 24 C 38.104782 31.144849 60.765208 0
M  V30 25 C 38.187449 28.955834 55.873212 0
M  V30 26 O 35.402448 32.155291 59.453789 0
M  V30 27 C 36.677170 37.938519 61.232412 0
M  V30 28 C 35.723839 33.493539 59.782790 0
M  V30 29 C 38.030540 36.522912 62.926875 0 CFG=1
M  V30 30 O 38.039443 27.061280 57.366426 0
M  V30 31 C 39.210294 28.958245 58.288082 0 CFG=2
M  V30 32 C 40.670738 28.716075 58.233410 0
M  V30 33 N 37.097974 34.798777 61.368364 0
M  V30 34 C 36.854492 37.483365 62.678784 0 CFG=2
M  V30 35 H 39.287260 37.203678 66.034505 0
M  V30 36 H 34.721749 37.638514 63.123215 0
M  V30 37 H 35.351221 35.992912 63.081841 0
M  V30 38 H 35.683341 37.020042 64.461366 0
M  V30 39 H 40.648484 35.604391 67.365842 0
M  V30 40 H 42.641589 32.971112 68.300763 0
M  V30 41 H 41.495188 34.281412 68.132937 0
M  V30 42 H 37.882230 33.799175 59.668068 0
M  V30 43 H 42.140846 33.864155 63.680522 0
M  V30 44 H 39.260392 32.075911 57.028991 0
M  V30 45 H 37.603914 31.528510 56.930238 0
M  V30 46 H 42.838500 27.981961 58.331330 0
M  V30 47 H 36.636243 32.128344 61.911324 0
M  V30 48 H 38.219737 32.750422 62.111638 0
M  V30 49 H 41.546594 34.846782 61.605912 0
M  V30 50 H 40.919277 36.477288 61.583743 0
M  V30 51 H 40.009735 30.137121 55.677439 0
M  V30 52 H 38.607164 30.821683 54.892526 0
M  V30 53 H 38.276356 30.346800 61.473783 0
M  V30 54 H 38.425307 28.305860 55.033018 0
M  V30 55 H 37.123066 29.178530 55.816652 0
M  V30 56 H 35.459392 32.021405 58.492413 0
M  V30 57 H 35.777041 38.519334 61.028935 0
M  V30 58 H 34.927155 33.854061 60.439280 0
M  V30 59 H 35.658126 34.088763 58.870853 0
M  V30 60 H 37.706709 36.021980 63.830094 0
M  V30 61 H 38.932859 28.494666 59.234987 0
M  V30 62 H 36.189696 35.111461 61.686620 0
M  V30 63 H 37.057306 38.395079 63.211449 0
M  V30 64 H 39.494337 34.230990 60.784465 0
M  V30 END ATOM
M  V30 BEGIN BOND
M  V30 1 2 4 2
M  V30 2 1 11 6
M  V30 3 1 13 4
M  V30 4 2 13 11
M  V30 5 1 16 8
M  V30 6 1 17 6
M  V30 7 2 18 1
M  V30 8 1 18 17
M  V30 9 1 19 12
M  V30 10 2 20 10
M  V30 11 1 20 12
M  V30 12 1 22 7
M  V30 13 1 22 13
M  V30 14 2 22 21
M  V30 15 1 23 2
M  V30 16 2 23 6
M  V30 17 1 23 15
M  V30 18 2 24 10
M  V30 19 1 24 16
M  V30 20 1 25 9
M  V30 21 1 25 19
M  V30 22 2 27 5
M  V30 23 1 28 8
M  V30 24 1 28 26
M  V30 25 1 29 1
M  V30 26 1 29 15
M  V30 27 2 30 9
M  V30 28 1 31 9
M  V30 29 1 31 20
M  V30 30 3 32 14
M  V30 31 1 32 31
M  V30 32 1 33 1
M  V30 33 1 33 8
M  V30 34 1 34 3
M  V30 35 1 34 27
M  V30 36 1 34 29
M  V30 37 1 35 2
M  V30 38 1 36 3
M  V30 39 1 37 3
M  V30 40 1 38 3
M  V30 41 1 39 4
M  V30 42 1 40 7
M  V30 43 1 41 7
M  V30 44 1 8 42 CFG=3
M  V30 45 1 43 11
M  V30 46 1 44 12
M  V30 47 1 45 12
M  V30 48 1 46 14
M  V30 49 1 47 16
M  V30 50 1 48 16
M  V30 51 1 49 17
M  V30 52 1 50 17
M  V30 53 1 51 19
M  V30 54 1 52 19
M  V30 55 1 53 24
M  V30 56 1 54 25
M  V30 57 1 55 25
M  V30 58 1 56 26
M  V30 59 1 57 27
M  V30 60 1 58 28
M  V30 61 1 59 28
M  V30 62 1 29 60 CFG=1
M  V30 63 1 31 61 CFG=1
M  V30 64 1 62 33
M  V30 65 1 34 63 CFG=1
M  V30 66 1 64 18
M  V30 END BOND
M  V30 END CTAB
M  END
>  <i_epik_Tot_Q>  (1) 
1

>  <i_epik_Tot_abs_Q>  (1) 
1

>  <i_i_glide_confnum>  (1) 
105

>  <i_i_glide_lignum>  (1) 
70

>  <i_i_glide_posenum>  (1) 
351

>  <i_i_glide_rotatable_bonds>  (1) 
10

>  <i_lp_mmshare_version>  (1) 
72125

>  <i_m_source_file_index>  (1) 
28

>  <i_f3d_flags>  (1) 
0

>  <num_sample>  (1) 
50

>  <b_lp_Chiralities_Consistent>  (1) 
1

>  <r_epik_Charging_Adjusted_Penalty>  (1) 
0.046741104871076994

>  <r_epik_Ionization_Penalty>  (1) 
0.019812372092419556

>  <r_epik_Ionization_Penalty_Charging>  (1) 
0.019701646860550703

>  <r_epik_Ionization_Penalty_Neutral>  (1) 
0.00011072523186885321

>  <r_epik_State_Penalty>  (1) 
0.027039458010526287

>  <r_glide_ring_energy>  (1) 
1.1279086995901264

>  <r_i_docking_score>  (1) 
-5.985357578764309

>  <r_i_glide_ecoul>  (1) 
-7.5461082426199546

>  <r_i_glide_eff_state_penalty>  (1) 
0.027039458010526287

>  <r_i_glide_einternal>  (1) 
8.0007553852675972

>  <r_i_glide_emodel>  (1) 
-52.587054722767427

>  <r_i_glide_emodel_strain>  (1) 
4.4130276593459712

>  <r_i_glide_energy>  (1) 
-43.620328297152057

>  <r_i_glide_erotb>  (1) 
0.65393697564197784

>  <r_i_glide_esite>  (1) 
0

>  <r_i_glide_evdw>  (1) 
-36.074220054532098

>  <r_i_glide_gscore>  (1) 
-6.0123970367748356

>  <r_i_glide_gscore_strain>  (1) 
0.1032569148364928

>  <r_i_glide_hbond>  (1) 
-0.16

>  <r_i_glide_ligand_efficiency>  (1) 
-0.17603992878718555

>  <r_i_glide_ligand_efficiency_ln>  (1) 
-1.3223333727425239

>  <r_i_glide_ligand_efficiency_sa>  (1) 
-0.57030103079501415

>  <r_i_glide_lipo>  (1) 
-2.0500858962129631

>  <r_i_glide_metal>  (1) 
-0

>  <r_i_glide_rewards>  (1) 
-1.6238777919207443

>  <r_lp_Energy>  (1) 
12.568142999999999

>  <r_lp_tautomer_probability>  (1) 
0.99985000999950013

>  <s_epik_Chemistry_Notes>  (1) 
This compound has an imine and may undergo hydrolysis.

>  <s_epik_cmdline>  (1) 
J2VwaWtfcHl0aG9uJywgJy1waHQnLCAnMS4wJywgJy1waCcsICc3LjQnLCAnLXRuJywgJzgnLCAnLW1hJywgJzUwMCcsICctaW1hZScsICc8aW5maWxlLm1hZT4nLCAnLW9tYWUnLCAnPG91dGZpbGUubWFlPic=

>  <s_epik_input>  (1) 
W05IMl1DKD1PKWMoW2NIXTEpW2NIXVtjSF1jKGMxMilPW0NAQEhdKFtDQEhdKFtDSDNdKVtDSF09TylDKD1OW0NIMl0yKVtOSF1bQ0BIXShbQ0gyXVtPSF0pW0NIMl1bQ0hdPUM9QyhbQ0BASF0zQyNbQ0hdKVtDSDJdW0NIMl1bQ0gyXUMzPU8=

>  <s_glide_docking_method>  (1) 
confgen

>  <s_i_glide_gridfile>  (1) 
gpcr_5ht2c_6bqh_protein_autoprepared_prepared

>  <s_lp_Force_Field>  (1) 
S-OPLS

>  <s_lp_Variant>  (1) 
DiffSBDD_27_num_sample_50-1

>  <s_m_source_file>  (1) 
generated__ligand_DiffSBDD_2026-05-06_prepared.sdf

>  <GenAI_Model>  (1) 
DiffSBDD

>  <Protein>  (1) 
GPCR_5HT2C

$$$$
DiffSBDD_13_num_sample_50
     RDKit          3D

  0  0  0  0  0  0  0  0  0  0999 V3000
M  V30 BEGIN CTAB
M  V30 COUNTS 68 71 0 0 1
M  V30 BEGIN ATOM
M  V30 1 C 40.922817 28.388041 59.006420 0
M  V30 2 C 38.341834 25.643282 56.572737 0
M  V30 3 N 36.997868 32.545255 61.538541 0
M  V30 4 C 38.622728 27.617097 54.583766 0
M  V30 5 C 37.017744 34.728859 61.403441 0
M  V30 6 N 39.407744 29.966467 53.908142 0 CFG=1 CHG=1
M  V30 7 F 39.067464 23.623649 57.453517 0
M  V30 8 C 39.434334 32.050423 61.266233 0
M  V30 9 C 40.306257 30.071138 51.582265 0 CFG=1
M  V30 10 C 40.027558 28.657648 62.098016 0
M  V30 11 C 39.859160 30.862600 52.808825 0
M  V30 12 C 38.241153 33.036458 61.365991 0
M  V30 13 C 39.675097 29.116128 59.581384 0 CFG=1
M  V30 14 N 36.584251 31.494615 60.699446 0
M  V30 15 N 39.270855 29.158178 51.175724 0
M  V30 16 O 40.590773 32.435506 61.085305 0
M  V30 17 O 40.584416 27.503076 57.960525 0
M  V30 18 C 38.737462 28.681330 53.492631 0 CFG=1
M  V30 19 C 39.382177 30.352634 57.404345 0
M  V30 20 C 38.165123 24.580586 57.624511 0
M  V30 21 C 37.874404 27.882159 55.742962 0
M  V30 22 C 40.532644 30.814252 50.288099 0
M  V30 23 C 37.738503 26.896174 56.739085 0
M  V30 24 C 40.267290 29.998578 55.114485 0
M  V30 25 N 38.453406 34.285628 61.298313 0
M  V30 26 C 40.269440 29.718268 49.258653 0
M  V30 27 C 39.251162 26.360710 54.432217 0
M  V30 28 C 39.106027 25.379811 55.421735 0
M  V30 29 O 36.090956 33.587645 61.579834 0
M  V30 30 C 39.467172 30.740845 56.157270 0
M  V30 31 C 40.011394 29.715704 60.985032 0 CFG=1
M  V30 32 O 39.085475 30.737498 61.387601 0
M  V30 33 C 39.258121 28.102808 52.156818 0
M  V30 34 C 39.066362 30.188599 58.664864 0
M  V30 35 O 39.840200 28.594453 50.001627 0
M  V30 36 H 41.413428 27.788677 59.772957 0
M  V30 37 H 41.671751 29.100365 58.656926 0
M  V30 38 H 36.895065 35.419848 62.238996 0
M  V30 39 H 36.729651 35.277928 60.505547 0
M  V30 40 H 41.195169 29.487265 51.800695 0
M  V30 41 H 40.788358 27.898676 61.927104 0
M  V30 42 H 40.240054 29.110467 63.067137 0
M  V30 43 H 39.067447 28.148545 62.174177 0
M  V30 44 H 39.067437 31.567434 52.590222 0
M  V30 45 H 40.671858 31.502100 53.125708 0
M  V30 46 H 38.880285 28.383398 59.729643 0
M  V30 47 H 35.580496 31.365354 60.809036 0
M  V30 48 H 36.748999 31.765050 59.731520 0
M  V30 49 H 40.004992 27.943440 57.357448 0
M  V30 50 H 37.706335 28.977690 53.290899 0
M  V30 51 H 38.267465 24.997976 58.626374 0
M  V30 52 H 37.181834 24.119171 57.537846 0
M  V30 53 H 37.399561 28.843335 55.868451 0
M  V30 54 H 39.816160 31.626653 50.166159 0
M  V30 55 H 41.539910 31.221197 50.219399 0
M  V30 56 H 37.155476 27.102172 57.625564 0
M  V30 57 H 41.182139 30.558834 54.934441 0
M  V30 58 H 40.580590 29.012140 55.454219 0
M  V30 59 H 41.143463 29.491116 48.653577 0
M  V30 60 H 39.467424 30.021412 48.594787 0
M  V30 61 H 39.833570 26.138369 53.554195 0
M  V30 62 H 39.576655 24.421512 55.292829 0
M  V30 63 H 38.947966 31.629019 55.822494 0
M  V30 64 H 41.018048 30.131747 60.933536 0
M  V30 65 H 38.594617 27.311667 51.801741 0
M  V30 66 H 40.257066 27.674202 52.247321 0
M  V30 67 H 38.340022 30.833268 59.114265 0
M  V30 68 H 38.610482 30.477599 54.260494 0
M  V30 END ATOM
M  V30 BEGIN BOND
M  V30 1 1 11 6
M  V30 2 1 11 9
M  V30 3 1 12 3
M  V30 4 1 12 8
M  V30 5 1 13 1
M  V30 6 1 14 3
M  V30 7 1 15 9
M  V30 8 2 16 8
M  V30 9 1 17 1
M  V30 10 1 18 4
M  V30 11 1 18 6
M  V30 12 1 20 2
M  V30 13 1 20 7
M  V30 14 1 21 4
M  V30 15 1 22 9
M  V30 16 1 23 2
M  V30 17 2 23 21
M  V30 18 1 24 6
M  V30 19 1 25 5
M  V30 20 2 25 12
M  V30 21 1 26 22
M  V30 22 2 27 4
M  V30 23 2 28 2
M  V30 24 1 28 27
M  V30 25 1 29 3
M  V30 26 1 29 5
M  V30 27 2 30 19
M  V30 28 1 30 24
M  V30 29 1 31 10
M  V30 30 1 31 13
M  V30 31 1 32 8
M  V30 32 1 32 31
M  V30 33 1 33 15
M  V30 34 1 33 18
M  V30 35 1 34 13
M  V30 36 2 34 19
M  V30 37 1 35 15
M  V30 38 1 35 26
M  V30 39 1 36 1
M  V30 40 1 37 1
M  V30 41 1 38 5
M  V30 42 1 39 5
M  V30 43 1 9 40 CFG=1
M  V30 44 1 41 10
M  V30 45 1 42 10
M  V30 46 1 43 10
M  V30 47 1 44 11
M  V30 48 1 45 11
M  V30 49 1 13 46 CFG=1
M  V30 50 1 47 14
M  V30 51 1 48 14
M  V30 52 1 49 17
M  V30 53 1 18 50 CFG=3
M  V30 54 1 51 20
M  V30 55 1 52 20
M  V30 56 1 53 21
M  V30 57 1 54 22
M  V30 58 1 55 22
M  V30 59 1 56 23
M  V30 60 1 57 24
M  V30 61 1 58 24
M  V30 62 1 59 26
M  V30 63 1 60 26
M  V30 64 1 61 27
M  V30 65 1 62 28
M  V30 66 1 63 30
M  V30 67 1 31 64 CFG=3
M  V30 68 1 65 33
M  V30 69 1 66 33
M  V30 70 1 67 34
M  V30 71 1 6 68 CFG=1
M  V30 END BOND
M  V30 END CTAB
M  END
>  <i_epik_Tot_Q>  (1) 
1

>  <i_epik_Tot_abs_Q>  (1) 
1

>  <i_i_glide_confnum>  (1) 
956

>  <i_i_glide_lignum>  (1) 
43

>  <i_i_glide_posenum>  (1) 
3

>  <i_i_glide_rotatable_bonds>  (1) 
11

>  <i_lp_mmshare_version>  (1) 
72125

>  <i_m_source_file_index>  (1) 
14

>  <i_f3d_flags>  (1) 
0

>  <num_sample>  (1) 
50

>  <b_lp_Chiralities_Consistent>  (1) 
1

>  <r_epik_Charging_Adjusted_Penalty>  (1) 
1.4651263053542571

>  <r_epik_Ionization_Penalty>  (1) 
0.72306607658712641

>  <r_epik_Ionization_Penalty_Charging>  (1) 
0.72300917426663169

>  <r_epik_Ionization_Penalty_Neutral>  (1) 
5.6902320494737884e-05

>  <r_epik_State_Penalty>  (1) 
0.74211713108762534

>  <r_glide_ring_energy>  (1) 
0

>  <r_i_docking_score>  (1) 
-5.9761174070913077

>  <r_i_glide_ecoul>  (1) 
-0.92497199350767145

>  <r_i_glide_eff_state_penalty>  (1) 
0.74211713108762534

>  <r_i_glide_einternal>  (1) 
13.987818129762941

>  <r_i_glide_emodel>  (1) 
-54.779631402972448

>  <r_i_glide_emodel_strain>  (1) 
7.3450386913221593

>  <r_i_glide_energy>  (1) 
-42.380885607062147

>  <r_i_glide_erotb>  (1) 
0.76112016271400151

>  <r_i_glide_esite>  (1) 
0

>  <r_i_glide_evdw>  (1) 
-41.455913613554479

>  <r_i_glide_gscore>  (1) 
-6.7182345381789332

>  <r_i_glide_gscore_strain>  (1) 
0.83625967283053981

>  <r_i_glide_hbond>  (1) 
0

>  <r_i_glide_ligand_efficiency>  (1) 
-0.17074621163118023

>  <r_i_glide_ligand_efficiency_ln>  (1) 
-1.3118904036363275

>  <r_i_glide_ligand_efficiency_sa>  (1) 
-0.55852218045908486

>  <r_i_glide_lipo>  (1) 
-4.2676201821290176

>  <r_i_glide_metal>  (1) 
-0

>  <r_i_glide_rewards>  (1) 
-1.8364527118905818

>  <r_lp_Energy>  (1) 
-4.4146960000000002

>  <s_epik_Chemistry_Notes>  (1) 
This compound has an ester and may undergo hydrolysis at high or low pH. This compound has an imine and may undergo hydrolysis. This compound contains an acetal/aminal-like group ( X-CH(R)-Y where X, Y are N, S, or O) that may be acid/base labile, releasing an aldehyde. This compound has a N-S or N-O group and may undergo hydrolysis at high or low pH.

>  <s_epik_cmdline>  (1) 
J2VwaWtfcHl0aG9uJywgJy1waHQnLCAnMS4wJywgJy1waCcsICc3LjQnLCAnLXRuJywgJzgnLCAnLW1hJywgJzUwMCcsICctaW1hZScsICc8aW5maWxlLm1hZT4nLCAnLW9tYWUnLCAnPG91dGZpbGUubWFlPic=

>  <s_epik_input>  (1) 
TzFbQ0gyXU49QyhOMVtOSDJdKUMoPU8pT1tDQEBIXShbQ0gzXSlbQ0BIXShbQ0gyXVtPSF0pW0NIXT1DPVtDSF1bQ0gyXU4oW0NIMl0yKVtDQEhdKGMoW2NIXVtjSF0zKVtjSF1bY0hdYzNbQ0gyXUYpW0NIMl1OKFtDQEhdMjQpT1tDSDJdW0NIMl00

>  <s_glide_docking_method>  (1) 
confgen

>  <s_i_glide_gridfile>  (1) 
gpcr_5ht2c_6bqh_protein_autoprepared_prepared

>  <s_lp_Force_Field>  (1) 
S-OPLS

>  <s_lp_Variant>  (1) 
DiffSBDD_13_num_sample_50-2

>  <s_m_source_file>  (1) 
generated__ligand_DiffSBDD_2026-05-06_prepared.sdf

>  <GenAI_Model>  (1) 
DiffSBDD

>  <Protein>  (1) 
GPCR_5HT2C

$$$$
DiffSBDD_41_num_sample_50
     RDKit          3D

  0  0  0  0  0  0  0  0  0  0999 V3000
M  V30 BEGIN CTAB
M  V30 COUNTS 83 87 0 0 1
M  V30 BEGIN ATOM
M  V30 1 C 41.677437 32.018077 66.734490 0
M  V30 2 C 41.163931 31.515078 65.371515 0 CFG=1
M  V30 3 C 37.992459 31.814963 58.570545 0
M  V30 4 C 36.810764 37.636039 62.147959 0
M  V30 5 C 42.881635 29.661488 65.470285 0 CFG=1
M  V30 6 O 43.125095 28.277154 65.267915 0
M  V30 7 O 44.340109 29.548858 67.378573 0
M  V30 8 C 38.539790 26.837882 54.518735 0
M  V30 9 C 41.351763 33.778598 64.171978 0
M  V30 10 C 39.089758 30.819585 56.631729 0
M  V30 11 C 35.416567 32.180362 60.703620 0
M  V30 12 C 39.283177 32.371513 61.651661 0
M  V30 13 C 41.748761 32.354348 64.178115 0 CFG=2
M  V30 14 C 37.846849 29.313676 54.393459 0
M  V30 15 F 37.467442 26.436175 53.840210 0
M  V30 16 O 37.975306 30.593837 60.668668 0
M  V30 17 C 37.192246 32.954633 59.186810 0 CFG=2
M  V30 18 C 40.147101 31.312253 62.360980 0
M  V30 19 C 39.437014 29.692599 57.405173 0
M  V30 20 C 41.402481 29.992756 65.235655 0 CFG=1
M  V30 21 O 40.548481 29.289542 66.123385 0
M  V30 22 F 39.558260 26.021453 54.253529 0
M  V30 23 C 37.002419 35.283080 59.910460 0 CFG=1
M  V30 24 C 37.857339 31.818089 61.385688 0 CFG=2
M  V30 25 C 38.396012 30.751559 54.382668 0
M  V30 26 N 35.067577 31.234698 61.453501 0
M  V30 27 F 38.280720 26.780676 55.824948 0
M  V30 28 O 36.789150 37.617325 60.727709 0
M  V30 29 C 42.748184 31.356643 67.411356 0
M  V30 30 C 38.339261 30.678634 59.346209 0
M  V30 31 C 37.840347 34.330073 59.055080 0
M  V30 32 C 41.524867 33.621407 68.576129 0
M  V30 33 C 38.368465 31.878375 57.214309 0
M  V30 34 O 39.462780 30.883968 55.314677 0
M  V30 35 C 36.825314 32.744984 60.670490 0 CFG=2
M  V30 36 S 36.775916 34.378740 61.449214 0
M  V30 37 C 42.580859 32.972969 69.239468 0
M  V30 38 C 41.079277 34.969403 64.162196 0
M  V30 39 C 43.411969 30.145142 66.828244 0
M  V30 40 C 37.650106 36.665400 60.112951 0
M  V30 41 C 41.576395 31.738318 62.762922 0
M  V30 42 C 38.934392 28.262393 54.110820 0
M  V30 43 C 39.058658 29.621566 58.757743 0
M  V30 44 C 41.075253 33.148840 67.330028 0
M  V30 45 C 43.191726 31.845311 68.661616 0
M  V30 46 H 40.083180 31.667813 65.370281 0
M  V30 47 H 36.322480 38.545331 62.499050 0
M  V30 48 H 36.267396 36.799605 62.580891 0
M  V30 49 H 37.828268 37.621442 62.539772 0
M  V30 50 H 43.473580 30.181189 64.716924 0
M  V30 51 H 42.784257 28.024204 64.424253 0
M  V30 52 H 34.708062 32.661487 60.022973 0
M  V30 53 H 39.223661 33.262521 62.274913 0
M  V30 54 H 39.769481 32.670312 60.724214 0
M  V30 55 H 42.822068 32.398944 64.346542 0
M  V30 56 H 37.386933 29.120175 55.362083 0
M  V30 57 H 37.049653 29.214313 53.658103 0
M  V30 58 H 36.287597 33.035307 58.585490 0
M  V30 59 H 40.249214 30.459467 61.689434 0
M  V30 60 H 39.599478 30.929545 63.220506 0
M  V30 61 H 39.992232 28.881684 56.958543 0
M  V30 62 H 41.120413 29.628582 64.250932 0
M  V30 63 H 39.691272 29.209130 65.725947 0
M  V30 64 H 36.023812 35.408039 59.444081 0
M  V30 65 H 37.467523 31.568398 62.372689 0
M  V30 66 H 37.601543 31.472508 54.583548 0
M  V30 67 H 38.789865 30.992251 53.396526 0
M  V30 68 H 34.095861 30.979242 61.342931 0
M  V30 69 H 38.860677 34.302876 59.440261 0
M  V30 70 H 37.866418 34.626174 58.007268 0
M  V30 71 H 41.058641 34.486769 69.023677 0
M  V30 72 H 38.098816 32.738417 56.618990 0
M  V30 73 H 42.923306 33.340929 70.195525 0
M  V30 74 H 40.865554 36.015736 64.168605 0
M  V30 75 H 38.604056 36.587272 60.637446 0
M  V30 76 H 37.867402 37.076830 59.127194 0
M  V30 77 H 41.986317 32.406203 62.002610 0
M  V30 78 H 42.216136 30.858143 62.707326 0
M  V30 79 H 39.196360 28.289200 53.052777 0
M  V30 80 H 39.843520 28.518374 54.653542 0
M  V30 81 H 39.322718 28.755802 59.346822 0
M  V30 82 H 40.267415 33.654999 66.827302 0
M  V30 83 H 44.001211 31.350356 69.179303 0
M  V30 END ATOM
M  V30 BEGIN BOND
M  V30 1 1 2 1
M  V30 2 1 6 5
M  V30 3 1 13 2
M  V30 4 1 13 9
M  V30 5 1 15 8
M  V30 6 1 17 3
M  V30 7 1 18 12
M  V30 8 1 19 10
M  V30 9 1 20 2
M  V30 10 1 20 5
M  V30 11 1 21 20
M  V30 12 1 22 8
M  V30 13 1 24 12
M  V30 14 1 24 16
M  V30 15 1 25 14
M  V30 16 2 26 11
M  V30 17 1 27 8
M  V30 18 1 28 4
M  V30 19 1 29 1
M  V30 20 2 30 3
M  V30 21 1 30 16
M  V30 22 1 31 17
M  V30 23 1 31 23
M  V30 24 1 33 3
M  V30 25 2 33 10
M  V30 26 1 34 10
M  V30 27 1 34 25
M  V30 28 1 35 11 CFG=3
M  V30 29 1 35 17
M  V30 30 1 35 24
M  V30 31 1 36 23
M  V30 32 1 36 35
M  V30 33 2 37 32
M  V30 34 3 38 9
M  V30 35 1 39 5
M  V30 36 2 39 7
M  V30 37 1 39 29
M  V30 38 1 40 23
M  V30 39 1 40 28
M  V30 40 1 41 13
M  V30 41 1 41 18
M  V30 42 1 42 8
M  V30 43 1 42 14
M  V30 44 2 43 19
M  V30 45 1 43 30
M  V30 46 2 44 1
M  V30 47 1 44 32
M  V30 48 2 45 29
M  V30 49 1 45 37
M  V30 50 1 2 46 CFG=1
M  V30 51 1 47 4
M  V30 52 1 48 4
M  V30 53 1 49 4
M  V30 54 1 5 50 CFG=3
M  V30 55 1 51 6
M  V30 56 1 52 11
M  V30 57 1 53 12
M  V30 58 1 54 12
M  V30 59 1 13 55 CFG=1
M  V30 60 1 56 14
M  V30 61 1 57 14
M  V30 62 1 17 58 CFG=3
M  V30 63 1 59 18
M  V30 64 1 60 18
M  V30 65 1 61 19
M  V30 66 1 20 62 CFG=3
M  V30 67 1 63 21
M  V30 68 1 23 64 CFG=3
M  V30 69 1 24 65 CFG=1
M  V30 70 1 66 25
M  V30 71 1 67 25
M  V30 72 1 68 26
M  V30 73 1 69 31
M  V30 74 1 70 31
M  V30 75 1 71 32
M  V30 76 1 72 33
M  V30 77 1 73 37
M  V30 78 1 74 38
M  V30 79 1 75 40
M  V30 80 1 76 40
M  V30 81 1 77 41
M  V30 82 1 78 41
M  V30 83 1 79 42
M  V30 84 1 80 42
M  V30 85 1 81 43
M  V30 86 1 82 44
M  V30 87 1 83 45
M  V30 END BOND
M  V30 END CTAB
M  END
>  <i_epik_Tot_Q>  (1) 
0

>  <i_epik_Tot_abs_Q>  (1) 
0

>  <i_i_glide_confnum>  (1) 
2352

>  <i_i_glide_lignum>  (1) 
98

>  <i_i_glide_posenum>  (1) 
235

>  <i_i_glide_rotatable_bonds>  (1) 
16

>  <i_lp_mmshare_version>  (1) 
72125

>  <i_m_source_file_index>  (1) 
42

>  <i_f3d_flags>  (1) 
0

>  <num_sample>  (1) 
50

>  <b_lp_Chiralities_Consistent>  (1) 
1

>  <r_epik_Charging_Adjusted_Penalty>  (1) 
0.41067983895260396

>  <r_epik_Ionization_Penalty>  (1) 
0.0048607436090088536

>  <r_epik_Ionization_Penalty_Charging>  (1) 
0

>  <r_epik_Ionization_Penalty_Neutral>  (1) 
0.0048607436090088536

>  <r_epik_State_Penalty>  (1) 
0.41067983895260396

>  <r_glide_ring_energy>  (1) 
1.8793194922327006

>  <r_i_docking_score>  (1) 
-5.9602887476584741

>  <r_i_glide_ecoul>  (1) 
-4.2926123208040217

>  <r_i_glide_eff_state_penalty>  (1) 
0.41067983895260396

>  <r_i_glide_einternal>  (1) 
13.164345823190814

>  <r_i_glide_emodel>  (1) 
-60.599976958065945

>  <r_i_glide_emodel_strain>  (1) 
0.52107540497151916

>  <r_i_glide_energy>  (1) 
-50.089128524735386

>  <r_i_glide_erotb>  (1) 
0.41134081239429626

>  <r_i_glide_esite>  (1) 
-0.037194083564395339

>  <r_i_glide_evdw>  (1) 
-45.796516203931368

>  <r_i_glide_gscore>  (1) 
-6.3709685866110783

>  <r_i_glide_gscore_strain>  (1) 
0

>  <r_i_glide_hbond>  (1) 
-0.35719939431607489

>  <r_i_glide_ligand_efficiency>  (1) 
-0.13245086105907719

>  <r_i_glide_ligand_efficiency_ln>  (1) 
-1.2400056713662204

>  <r_i_glide_ligand_efficiency_sa>  (1) 
-0.47111358087497535

>  <r_i_glide_lipo>  (1) 
-3.7121005097569557

>  <r_i_glide_metal>  (1) 
-0

>  <r_i_glide_rewards>  (1) 
0.25790224694922292

>  <r_lp_Energy>  (1) 
42.813420999999998

>  <r_lp_tautomer_probability>  (1) 
0.5

>  <s_epik_Chemistry_Notes>  (1) 
This compound has an imine and may undergo hydrolysis.

>  <s_epik_cmdline>  (1) 
J2VwaWtfcHl0aG9uJywgJy1waHQnLCAnMS4wJywgJy1waCcsICc3LjQnLCAnLXRuJywgJzgnLCAnLW1hJywgJzUwMCcsICctaW1hZScsICc8aW5maWxlLm1hZT4nLCAnLW9tYWUnLCAnPG91dGZpbGUubWFlPic=

>  <s_epik_input>  (1) 
W2NIXTFbY0hdW2NIXVtjSF1jKGMxMilDKD1PKVtDQEBIXShbT0hdKVtDQEBIXShbT0hdKVtDQEBIXTJbQ0BASF0oQyNbQ0hdKVtDSDJdW0NIMl1bQ0gyXVtDQEBIXTNPYyhjNFtDQEBIXShbQ0BAXTM1L1tDSF09Ti9bSF0pW0NIMl1bQ0BASF0oUzUpW0NIMl1PW0NIM10pW2NIXVtjSF1jKFtjSF00KU9bQ0gyXVtDSDJdW0NIMl1DKEYpKEYpRg==

>  <s_glide_docking_method>  (1) 
confgen

>  <s_i_glide_gridfile>  (1) 
gpcr_5ht2c_6bqh_protein_autoprepared_prepared

>  <s_lp_Force_Field>  (1) 
S-OPLS

>  <s_lp_Variant>  (1) 
DiffSBDD_41_num_sample_50-3

>  <s_m_source_file>  (1) 
generated__ligand_DiffSBDD_2026-05-06_prepared.sdf

>  <GenAI_Model>  (1) 
DiffSBDD

>  <Protein>  (1) 
GPCR_5HT2C

$$$$
DiffSBDD_40_num_sample_50
     RDKit          3D

  0  0  0  0  0  0  0  0  0  0999 V3000
M  V30 BEGIN CTAB
M  V30 COUNTS 66 69 0 0 1
M  V30 BEGIN ATOM
M  V30 1 C 37.662447 30.763991 60.302059 0
M  V30 2 C 37.885389 31.589105 55.274011 0
M  V30 3 O 37.867395 24.078246 57.853502 0 CHG=-1
M  V30 4 C 37.867417 28.435760 55.662702 0
M  V30 5 O 38.480270 27.320636 56.260390 0
M  V30 6 C 40.005032 29.918311 52.687697 0 CFG=2
M  V30 7 C 39.083784 30.687371 55.585911 0 CFG=2
M  V30 8 O 36.685782 25.723629 56.050713 0
M  V30 9 C 38.958110 29.277254 54.989801 0 CFG=2
M  V30 10 C 38.722908 31.177596 59.288640 0 CFG=1
M  V30 11 C 37.568810 26.456321 56.912302 0 CFG=1
M  V30 12 C 39.035927 27.995582 52.694333 0
M  V30 13 C 38.828270 29.307710 53.462218 0 CFG=2
M  V30 14 C 39.955942 31.147857 51.823166 0
M  V30 15 O 38.386472 30.661920 57.995908 0
M  V30 16 O 35.444773 31.221472 61.053506 0
M  V30 17 C 40.054259 28.694286 51.790648 0 CFG=1
M  V30 18 C 38.835159 32.727773 59.298426 0
M  V30 19 P 37.961758 24.708277 56.521198 0
M  V30 20 C 36.662911 34.822814 61.456545 0
M  V30 21 O 37.024951 33.479202 61.213446 0
M  V30 22 N 37.867403 32.777635 56.140668 0 CHG=1
M  V30 23 O 37.566000 33.301435 58.997304 0
M  V30 24 C 39.465833 30.707160 57.072006 0
M  V30 25 C 36.359547 31.518184 60.034272 0 CFG=1
M  V30 26 C 39.683477 29.134495 50.390964 0
M  V30 27 O 39.204012 24.821430 55.727043 0
M  V30 28 C 36.599338 33.036080 59.964618 0 CFG=1
M  V30 29 C 39.831640 30.669784 50.366488 0
M  V30 30 C 38.443662 33.994032 55.589303 0
M  V30 31 H 38.018476 30.980195 61.310589 0
M  V30 32 H 37.499262 29.687759 60.253310 0
M  V30 33 H 37.858848 31.874820 54.222727 0
M  V30 34 H 36.962692 31.041579 55.453494 0
M  V30 35 H 37.345010 28.999226 56.433760 0
M  V30 36 H 37.131231 28.110813 54.926058 0
M  V30 37 H 40.812545 30.021427 53.398690 0
M  V30 38 H 39.937034 31.150957 55.091030 0
M  V30 39 H 39.906180 28.786321 55.215665 0
M  V30 40 H 39.654650 30.719606 59.619880 0
M  V30 41 H 37.095938 26.803597 57.828169 0
M  V30 42 H 39.480007 27.204342 53.301286 0
M  V30 43 H 38.143485 27.639163 52.177585 0
M  V30 44 H 37.889942 29.750621 53.133196 0
M  V30 45 H 40.925449 31.621430 51.903427 0
M  V30 46 H 39.223486 31.886703 52.149454 0
M  V30 47 H 34.635803 31.670698 60.860902 0
M  V30 48 H 41.034422 28.226403 51.837423 0
M  V30 49 H 39.198461 33.069500 60.268024 0
M  V30 50 H 39.544080 33.133899 58.584563 0
M  V30 51 H 37.271288 35.245643 62.253483 0
M  V30 52 H 36.781470 35.460523 60.578525 0
M  V30 53 H 35.621925 34.821440 61.777620 0
M  V30 54 H 36.869340 32.952925 56.259838 0
M  V30 55 H 39.867403 31.700097 57.148093 0
M  V30 56 H 40.244855 29.986742 57.324133 0
M  V30 57 H 35.938894 31.199795 59.078605 0
M  V30 58 H 40.295232 28.665560 49.626230 0
M  V30 59 H 38.667400 28.822445 50.180240 0
M  V30 60 H 35.672935 33.533504 59.664688 0
M  V30 61 H 40.742434 30.936066 49.826313 0
M  V30 62 H 39.014283 31.169243 49.853430 0
M  V30 63 H 38.267404 34.821424 56.268658 0
M  V30 64 H 39.512419 33.878819 55.453473 0
M  V30 65 H 37.932997 34.194230 54.653503 0
M  V30 66 H 38.224285 32.552159 57.059148 0
M  V30 END ATOM
M  V30 BEGIN BOND
M  V30 1 1 5 4
M  V30 2 1 7 2
M  V30 3 1 9 4
M  V30 4 1 9 7
M  V30 5 1 10 1
M  V30 6 1 11 5
M  V30 7 1 11 8
M  V30 8 1 13 6
M  V30 9 1 13 9
M  V30 10 1 13 12
M  V30 11 1 14 6
M  V30 12 1 15 10
M  V30 13 1 17 6
M  V30 14 1 17 12
M  V30 15 1 18 10
M  V30 16 1 19 3
M  V30 17 1 19 8
M  V30 18 1 19 11
M  V30 19 1 21 20
M  V30 20 1 22 2
M  V30 21 1 23 18
M  V30 22 1 24 7
M  V30 23 1 24 15
M  V30 24 1 25 1
M  V30 25 1 25 16
M  V30 26 1 26 17
M  V30 27 2 27 19
M  V30 28 1 28 21
M  V30 29 1 28 23
M  V30 30 1 28 25
M  V30 31 1 29 14
M  V30 32 1 29 26
M  V30 33 1 30 22
M  V30 34 1 31 1
M  V30 35 1 32 1
M  V30 36 1 33 2
M  V30 37 1 34 2
M  V30 38 1 35 4
M  V30 39 1 36 4
M  V30 40 1 6 37 CFG=1
M  V30 41 1 7 38 CFG=3
M  V30 42 1 9 39 CFG=3
M  V30 43 1 10 40 CFG=1
M  V30 44 1 11 41 CFG=1
M  V30 45 1 42 12
M  V30 46 1 43 12
M  V30 47 1 13 44 CFG=1
M  V30 48 1 45 14
M  V30 49 1 46 14
M  V30 50 1 47 16
M  V30 51 1 17 48 CFG=3
M  V30 52 1 49 18
M  V30 53 1 50 18
M  V30 54 1 51 20
M  V30 55 1 52 20
M  V30 56 1 53 20
M  V30 57 1 54 22
M  V30 58 1 55 24
M  V30 59 1 56 24
M  V30 60 1 25 57 CFG=3
M  V30 61 1 58 26
M  V30 62 1 59 26
M  V30 63 1 28 60 CFG=3
M  V30 64 1 61 29
M  V30 65 1 62 29
M  V30 66 1 63 30
M  V30 67 1 64 30
M  V30 68 1 65 30
M  V30 69 1 66 22
M  V30 END BOND
M  V30 END CTAB
M  END
>  <i_epik_Tot_Q>  (1) 
0

>  <i_epik_Tot_abs_Q>  (1) 
2

>  <i_i_glide_confnum>  (1) 
483

>  <i_i_glide_lignum>  (1) 
95

>  <i_i_glide_posenum>  (1) 
44

>  <i_i_glide_rotatable_bonds>  (1) 
12

>  <i_lp_mmshare_version>  (1) 
72125

>  <i_m_source_file_index>  (1) 
41

>  <i_f3d_flags>  (1) 
0

>  <num_sample>  (1) 
50

>  <b_lp_Chiralities_Consistent>  (1) 
1

>  <r_epik_Charging_Adjusted_Penalty>  (1) 
0.001220089536417487

>  <r_epik_Ionization_Penalty>  (1) 
0.0012207097255128069

>  <r_epik_Ionization_Penalty_Charging>  (1) 
0.001220089536417487

>  <r_epik_Ionization_Penalty_Neutral>  (1) 
6.2018909532001439e-07

>  <r_epik_State_Penalty>  (1) 
-0

>  <r_glide_ring_energy>  (1) 
0.75368377756619043

>  <r_i_docking_score>  (1) 
-5.9578157153584783

>  <r_i_glide_ecoul>  (1) 
-5.4133113252648188

>  <r_i_glide_eff_state_penalty>  (1) 
-0

>  <r_i_glide_einternal>  (1) 
29.85257461682388

>  <r_i_glide_emodel>  (1) 
-31.834035496448784

>  <r_i_glide_emodel_strain>  (1) 
5.457337392732974

>  <r_i_glide_energy>  (1) 
-33.00435921635092

>  <r_i_glide_erotb>  (1) 
0.69437166535620165

>  <r_i_glide_esite>  (1) 
-0.13776413236450566

>  <r_i_glide_evdw>  (1) 
-27.591047891086102

>  <r_i_glide_gscore>  (1) 
-5.9578157153584783

>  <r_i_glide_gscore_strain>  (1) 
0.36433434818324351

>  <r_i_glide_hbond>  (1) 
-0.57394958693600584

>  <r_i_glide_ligand_efficiency>  (1) 
-0.19859385717861594

>  <r_i_glide_ligand_efficiency_ln>  (1) 
-1.3536806461309967

>  <r_i_glide_ligand_efficiency_sa>  (1) 
-0.61707728850815358

>  <r_i_glide_lipo>  (1) 
-2.4342972537726597

>  <r_i_glide_metal>  (1) 
-0

>  <r_i_glide_rewards>  (1) 
-1.6789616624807246

>  <r_lp_Energy>  (1) 
50.841352000000001

>  <r_lp_tautomer_probability>  (1) 
1

>  <s_epik_Chemistry_Notes>  (1) 
This compound contains an acetal/aminal-like group ( X-CH(R)-Y where X, Y are N, S, or O) that may be acid/base labile, releasing an aldehyde.

>  <s_epik_cmdline>  (1) 
J2VwaWtfcHl0aG9uJywgJy1waHQnLCAnMS4wJywgJy1waCcsICc3LjQnLCAnLXRuJywgJzgnLCAnLW1hJywgJzUwMCcsICctaW1hZScsICc8aW5maWxlLm1hZT4nLCAnLW9tYWUnLCAnPG91dGZpbGUubWFlPic=

>  <s_epik_input>  (1) 
W0NIMl0xT1tDQEhdKE9bQ0gzXSlbQ0BIXShbT0hdKVtDSDJdW0NASF0xT1tDSDJdW0NASF0oW0NIMl1bTkhdW0NIM10pW0NAQEhdKFtDSDJdT1tDQEhdMk9bUEBdMig9TylbT0hdKVtDQEBIXTNbQ0gyXVtDQEhdKFtDQEhdMzQpW0NIMl1bQ0gyXVtDSDJdNA==

>  <s_glide_docking_method>  (1) 
confgen

>  <s_i_glide_gridfile>  (1) 
gpcr_5ht2c_6bqh_protein_autoprepared_prepared

>  <s_lp_Force_Field>  (1) 
S-OPLS

>  <s_lp_Variant>  (1) 
DiffSBDD_40_num_sample_50-2

>  <s_m_source_file>  (1) 
generated__ligand_DiffSBDD_2026-05-06_prepared.sdf

>  <GenAI_Model>  (1) 
DiffSBDD

>  <Protein>  (1) 
GPCR_5HT2C

$$$$
DiffSBDD_12_num_sample_50
     RDKit          3D

  0  0  0  0  0  0  0  0  0  0999 V3000
M  V30 BEGIN CTAB
M  V30 COUNTS 70 72 0 0 1
M  V30 BEGIN ATOM
M  V30 1 C 40.459412 35.962082 61.595579 0
M  V30 2 C 38.489988 28.295447 56.542530 0
M  V30 3 C 38.267327 30.765838 58.812603 0
M  V30 4 O 37.794271 33.174193 59.053999 0
M  V30 5 N 38.295555 29.678381 56.475968 0
M  V30 6 F 39.467402 28.821402 49.853503 0
M  V30 7 N 38.355575 29.894754 59.724716 0
M  V30 8 C 38.023072 36.688485 61.887485 0
M  V30 9 C 37.252497 25.448415 57.275518 0
M  V30 10 C 39.491711 36.995095 62.106058 0
M  V30 11 C 39.494264 34.964691 60.956162 0
M  V30 12 C 37.001815 34.770404 60.629364 0
M  V30 13 C 39.497680 28.758743 51.185553 0
M  V30 14 C 39.467405 30.425140 53.143456 0
M  V30 15 N 38.188708 27.706080 57.759058 0
M  V30 16 N 38.634444 30.383854 55.323440 0
M  V30 17 C 38.806209 32.176070 58.980106 0
M  V30 18 C 37.437549 37.630545 60.805373 0
M  V30 19 N 38.925253 27.616235 55.526050 0
M  V30 20 O 34.875953 33.720036 59.383080 0
M  V30 21 C 39.064217 27.334987 53.195404 0
M  V30 22 C 37.597168 30.487643 57.479685 0
M  V30 23 O 37.526135 24.079957 57.458939 0
M  V30 24 C 37.059498 33.273431 60.270117 0 CFG=1
M  V30 25 C 37.234596 36.821439 63.206446 0
M  V30 26 C 39.055274 28.205144 54.256262 0
M  V30 27 C 39.096278 27.626811 51.760174 0
M  V30 28 C 39.064775 29.705940 54.201522 0
M  V30 29 C 40.052237 29.909122 51.893161 0
M  V30 30 C 33.526439 33.354830 59.210886 0
M  V30 31 C 38.336355 26.275448 57.985297 0
M  V30 32 C 35.637770 32.728952 60.053530 0
M  V30 33 O 39.867403 38.021410 62.653493 0
M  V30 34 N 38.124626 35.259621 61.465006 0 CFG=2 CHG=1
M  V30 35 H 41.001812 35.524879 62.434172 0
M  V30 36 H 41.170511 36.384706 60.885112 0
M  V30 37 H 38.831448 30.225784 60.552254 0
M  V30 38 H 36.607793 30.062788 57.651741 0
M  V30 39 H 36.266578 25.677583 57.678544 0
M  V30 40 H 37.221393 25.649272 56.204692 0
M  V30 41 H 39.778701 33.947118 61.219391 0
M  V30 42 H 39.534581 35.052583 59.870927 0
M  V30 43 H 36.913780 35.343493 59.705132 0
M  V30 44 H 36.094566 34.960774 61.202382 0
M  V30 45 H 39.431913 31.503447 53.217473 0
M  V30 46 H 37.895840 28.248219 58.565344 0
M  V30 47 H 38.503811 31.385960 55.315290 0
M  V30 48 H 39.467384 32.224163 59.845204 0
M  V30 49 H 37.594663 38.679516 61.062277 0
M  V30 50 H 37.882853 37.468116 59.823678 0
M  V30 51 H 36.360919 37.494875 60.696893 0
M  V30 52 H 38.982994 26.289399 53.452680 0
M  V30 53 H 39.409585 32.420552 58.104203 0
M  V30 54 H 37.467406 31.467982 57.022847 0
M  V30 55 H 38.394920 23.904958 57.132282 0
M  V30 56 H 37.537946 32.708472 61.072062 0
M  V30 57 H 37.017323 37.864743 63.433672 0
M  V30 58 H 36.276026 36.303813 63.161049 0
M  V30 59 H 37.786111 36.421428 64.057618 0
M  V30 60 H 38.772518 26.836059 51.098614 0
M  V30 61 H 41.067403 29.621449 52.092039 0
M  V30 62 H 40.099228 30.741352 51.190667 0
M  V30 63 H 32.997153 34.126179 58.653511 0
M  V30 64 H 33.469640 32.425401 58.653506 0
M  V30 65 H 33.025580 33.221538 60.167686 0
M  V30 66 H 39.329897 25.965770 57.655669 0
M  V30 67 H 38.296703 26.089383 59.055342 0
M  V30 68 H 35.645734 31.791977 59.496707 0
M  V30 69 H 35.180217 32.527707 61.023671 0
M  V30 70 H 38.071417 34.746303 62.333031 0
M  V30 END ATOM
M  V30 BEGIN BOND
M  V30 1 1 5 2
M  V30 2 2 7 3
M  V30 3 1 10 1
M  V30 4 1 10 8
M  V30 5 1 11 1
M  V30 6 1 13 6
M  V30 7 1 15 2
M  V30 8 1 16 5
M  V30 9 1 17 3
M  V30 10 1 17 4
M  V30 11 1 18 8
M  V30 12 2 19 2
M  V30 13 1 22 3
M  V30 14 1 22 5
M  V30 15 1 23 9
M  V30 16 1 24 4
M  V30 17 1 24 12
M  V30 18 1 25 8
M  V30 19 1 26 19
M  V30 20 2 26 21
M  V30 21 2 27 13
M  V30 22 1 27 21
M  V30 23 2 28 14
M  V30 24 1 28 16
M  V30 25 1 28 26
M  V30 26 1 29 13
M  V30 27 1 29 14
M  V30 28 1 30 20
M  V30 29 1 31 9
M  V30 30 1 31 15
M  V30 31 1 32 20
M  V30 32 1 32 24
M  V30 33 2 33 10
M  V30 34 1 34 8
M  V30 35 1 34 11
M  V30 36 1 34 12
M  V30 37 1 35 1
M  V30 38 1 36 1
M  V30 39 1 37 7
M  V30 40 1 38 22
M  V30 41 1 39 9
M  V30 42 1 40 9
M  V30 43 1 41 11
M  V30 44 1 42 11
M  V30 45 1 43 12
M  V30 46 1 44 12
M  V30 47 1 45 14
M  V30 48 1 46 15
M  V30 49 1 47 16
M  V30 50 1 48 17
M  V30 51 1 49 18
M  V30 52 1 50 18
M  V30 53 1 51 18
M  V30 54 1 52 21
M  V30 55 1 53 17
M  V30 56 1 54 22
M  V30 57 1 55 23
M  V30 58 1 24 56 CFG=1
M  V30 59 1 57 25
M  V30 60 1 58 25
M  V30 61 1 59 25
M  V30 62 1 60 27
M  V30 63 1 61 29
M  V30 64 1 62 29
M  V30 65 1 63 30
M  V30 66 1 64 30
M  V30 67 1 65 30
M  V30 68 1 66 31
M  V30 69 1 67 31
M  V30 70 1 68 32
M  V30 71 1 69 32
M  V30 72 1 34 70 CFG=1
M  V30 END BOND
M  V30 END CTAB
M  END
>  <i_epik_Tot_Q>  (1) 
1

>  <i_epik_Tot_abs_Q>  (1) 
1

>  <i_i_glide_confnum>  (1) 
2309

>  <i_i_glide_lignum>  (1) 
41

>  <i_i_glide_posenum>  (1) 
202

>  <i_i_glide_rotatable_bonds>  (1) 
13

>  <i_lp_mmshare_version>  (1) 
72125

>  <i_m_source_file_index>  (1) 
13

>  <i_f3d_flags>  (1) 
0

>  <num_sample>  (1) 
50

>  <b_lp_Chiralities_Consistent>  (1) 
1

>  <r_epik_Charging_Adjusted_Penalty>  (1) 
2.2216491605189868

>  <r_epik_Ionization_Penalty>  (1) 
0.91881204336881139

>  <r_epik_Ionization_Penalty_Charging>  (1) 
0.90548466078319156

>  <r_epik_Ionization_Penalty_Neutral>  (1) 
0.013327382585619883

>  <r_epik_State_Penalty>  (1) 
1.3161644997357953

>  <r_glide_ring_energy>  (1) 
0

>  <r_i_docking_score>  (1) 
-5.9542706490246777

>  <r_i_glide_ecoul>  (1) 
-0.50520764739034751

>  <r_i_glide_eff_state_penalty>  (1) 
1.3161644997357953

>  <r_i_glide_einternal>  (1) 
10.525844618488607

>  <r_i_glide_emodel>  (1) 
-65.216474545488438

>  <r_i_glide_emodel_strain>  (1) 
1.3008607075902603

>  <r_i_glide_energy>  (1) 
-50.190275665480627

>  <r_i_glide_erotb>  (1) 
0.96958307808003152

>  <r_i_glide_esite>  (1) 
-0.065284362262403348

>  <r_i_glide_evdw>  (1) 
-49.685068018090277

>  <r_i_glide_gscore>  (1) 
-7.2704351487604733

>  <r_i_glide_gscore_strain>  (1) 
0

>  <r_i_glide_hbond>  (1) 
0

>  <r_i_glide_ligand_efficiency>  (1) 
-0.17512560732425522

>  <r_i_glide_ligand_efficiency_ln>  (1) 
-1.3154653980041955

>  <r_i_glide_ligand_efficiency_sa>  (1) 
-0.56733898419354378

>  <r_i_glide_lipo>  (1) 
-4.1325187310133495

>  <r_i_glide_metal>  (1) 
-0

>  <r_i_glide_rewards>  (1) 
-1.4821805855516852

>  <r_lp_Energy>  (1) 
33.115794999999999

>  <r_lp_tautomer_probability>  (1) 
0.49996700039999997

>  <s_epik_Chemistry_Notes>  (1) 
This compound has an imine and may undergo hydrolysis.

>  <s_epik_cmdline>  (1) 
J2VwaWtfcHl0aG9uJywgJy1waHQnLCAnMS4wJywgJy1waCcsICc3LjQnLCAnLXRuJywgJzgnLCAnLW1hJywgJzUwMCcsICctaW1hZScsICc8aW5maWxlLm1hZT4nLCAnLW9tYWUnLCAnPG91dGZpbGUubWFlPic=

>  <s_epik_input>  (1) 
W0NIM11DMShbQ0gzXSlDKD1PKVtDSDJdW0NIMl1OMVtDSDJdW0NAQEhdKFtDSDJdT1tDSDNdKU8vW0NIXT1DKFxbTkgyXSlbQ0gyXU4oQyg9TjIpW05IXVtDSDJdW0NIMl1bT0hdKVtOSF1DKEMyMyk9W0NIXVtDSDJdQyhGKT1bQ0hdW0NIXT0z

>  <s_glide_docking_method>  (1) 
confgen

>  <s_i_glide_gridfile>  (1) 
gpcr_5ht2c_6bqh_protein_autoprepared_prepared

>  <s_lp_Force_Field>  (1) 
S-OPLS

>  <s_lp_Variant>  (1) 
DiffSBDD_12_num_sample_50-3

>  <s_m_source_file>  (1) 
generated__ligand_DiffSBDD_2026-05-06_prepared.sdf

>  <GenAI_Model>  (1) 
DiffSBDD

>  <Protein>  (1) 
GPCR_5HT2C

$$$$
DiffSBDD_47_num_sample_50
     RDKit          3D

  0  0  0  0  0  0  0  0  0  0999 V3000
M  V30 BEGIN CTAB
M  V30 COUNTS 47 49 0 0 1
M  V30 BEGIN ATOM
M  V30 1 C 40.498635 31.785644 62.241974 0
M  V30 2 C 40.111709 34.205033 61.544534 0
M  V30 3 C 41.467400 35.156085 63.818318 0
M  V30 4 C 38.466875 28.924310 54.146471 0
M  V30 5 C 38.267410 27.052689 55.681244 0
M  V30 6 N 40.830907 29.496311 63.049224 0
M  V30 7 C 39.809243 29.874672 60.889944 0
M  V30 8 C 40.272600 29.036453 61.914199 0
M  V30 9 C 37.397047 30.927876 55.093590 0
M  V30 10 C 38.319210 27.608468 54.356399 0
M  V30 11 O 37.219153 30.608977 59.815078 0
M  V30 12 N 37.786283 30.021427 57.702762 0
M  V30 13 C 38.652754 29.325825 56.724022 0 CFG=2
M  V30 14 C 38.583830 29.962314 55.266928 0
M  V30 15 C 41.329607 33.768306 63.614704 0
M  V30 16 O 42.128690 35.621430 64.918375 0
M  V30 17 C 40.253630 35.588194 61.761865 0
M  V30 18 C 37.984985 30.029462 59.046719 0
M  V30 19 C 39.919605 31.270033 61.053505 0
M  V30 20 C 39.218292 29.275701 59.611842 0
M  V30 21 C 38.410256 27.816344 56.771692 0
M  V30 22 C 40.647378 33.264324 62.469034 0
M  V30 23 C 40.929331 36.060674 62.893856 0
M  V30 24 C 40.935102 30.835388 63.206648 0
M  V30 25 C 39.867405 30.778522 55.008631 0
M  V30 26 H 39.586562 33.868345 60.668328 0
M  V30 27 H 38.500408 29.300188 53.133903 0
M  V30 28 H 38.109042 25.990728 55.799837 0
M  V30 29 H 40.206919 27.963099 61.814334 0
M  V30 30 H 37.467404 31.775883 55.776929 0
M  V30 31 H 37.368529 31.348774 54.089419 0
M  V30 32 H 36.445256 30.421430 55.263736 0
M  V30 33 H 38.234810 26.947145 53.505924 0
M  V30 34 H 36.980374 30.521975 57.335617 0
M  V30 35 H 39.694231 29.441232 57.004510 0
M  V30 36 H 41.752538 33.092725 64.336753 0
M  V30 37 H 42.171557 36.573293 64.951972 0
M  V30 38 H 39.839115 36.288690 61.053500 0
M  V30 39 H 39.575302 31.928796 60.276060 0
M  V30 40 H 40.069432 29.221735 58.943416 0
M  V30 41 H 38.912638 28.248950 59.814678 0
M  V30 42 H 38.365753 27.360293 57.748594 0
M  V30 43 H 41.035389 37.123857 63.053501 0
M  V30 44 H 41.380611 31.156040 64.131717 0
M  V30 45 H 39.986345 31.573445 55.746094 0
M  V30 46 H 40.754747 30.147313 55.053488 0
M  V30 47 H 39.855837 31.247650 54.023842 0
M  V30 END ATOM
M  V30 BEGIN BOND
M  V30 1 2 8 6
M  V30 2 1 8 7
M  V30 3 2 10 4
M  V30 4 1 10 5
M  V30 5 1 13 12
M  V30 6 1 14 4
M  V30 7 1 14 9
M  V30 8 1 14 13
M  V30 9 2 15 3
M  V30 10 1 16 3
M  V30 11 1 17 2
M  V30 12 2 18 11
M  V30 13 1 18 12
M  V30 14 1 19 1
M  V30 15 2 19 7
M  V30 16 1 20 7
M  V30 17 1 20 18
M  V30 18 2 21 5
M  V30 19 1 21 13
M  V30 20 1 22 1
M  V30 21 2 22 2
M  V30 22 1 22 15
M  V30 23 1 23 3
M  V30 24 2 23 17
M  V30 25 2 24 1
M  V30 26 1 24 6
M  V30 27 1 25 14
M  V30 28 1 26 2
M  V30 29 1 27 4
M  V30 30 1 28 5
M  V30 31 1 29 8
M  V30 32 1 30 9
M  V30 33 1 31 9
M  V30 34 1 32 9
M  V30 35 1 33 10
M  V30 36 1 34 12
M  V30 37 1 13 35 CFG=1
M  V30 38 1 36 15
M  V30 39 1 37 16
M  V30 40 1 38 17
M  V30 41 1 39 19
M  V30 42 1 40 20
M  V30 43 1 41 20
M  V30 44 1 42 21
M  V30 45 1 43 23
M  V30 46 1 44 24
M  V30 47 1 45 25
M  V30 48 1 46 25
M  V30 49 1 47 25
M  V30 END BOND
M  V30 END CTAB
M  END
>  <i_epik_Tot_Q>  (1) 
0

>  <i_epik_Tot_abs_Q>  (1) 
0

>  <i_i_glide_confnum>  (1) 
41

>  <i_i_glide_lignum>  (1) 
108

>  <i_i_glide_posenum>  (1) 
327

>  <i_i_glide_rotatable_bonds>  (1) 
6

>  <i_lp_mmshare_version>  (1) 
72125

>  <i_m_source_file_index>  (1) 
48

>  <i_f3d_flags>  (1) 
0

>  <num_sample>  (1) 
50

>  <b_lp_Chiralities_Consistent>  (1) 
1

>  <r_epik_Charging_Adjusted_Penalty>  (1) 
0.0032589894025149397

>  <r_epik_Ionization_Penalty>  (1) 
0.0038156857198904941

>  <r_epik_Ionization_Penalty_Charging>  (1) 
0

>  <r_epik_Ionization_Penalty_Neutral>  (1) 
0.0038156857198904941

>  <r_epik_State_Penalty>  (1) 
0.0032589894025149397

>  <r_glide_ring_energy>  (1) 
0.22159941248723586

>  <r_i_docking_score>  (1) 
-5.9508391612695553

>  <r_i_glide_ecoul>  (1) 
-6.2799693578354692

>  <r_i_glide_eff_state_penalty>  (1) 
0.0032589894025149397

>  <r_i_glide_einternal>  (1) 
5.5629338418337522

>  <r_i_glide_emodel>  (1) 
-60.2935277593877

>  <r_i_glide_emodel_strain>  (1) 
1.9087065597406294

>  <r_i_glide_energy>  (1) 
-47.318054309366346

>  <r_i_glide_erotb>  (1) 
0.84319913175930694

>  <r_i_glide_esite>  (1) 
-0.081157005010211836

>  <r_i_glide_evdw>  (1) 
-41.038084951530877

>  <r_i_glide_gscore>  (1) 
-5.9540981506720705

>  <r_i_glide_gscore_strain>  (1) 
0

>  <r_i_glide_hbond>  (1) 
-0.42105589449503128

>  <r_i_glide_ligand_efficiency>  (1) 
-0.23803356645078222

>  <r_i_glide_ligand_efficiency_ln>  (1) 
-1.4105272134800177

>  <r_i_glide_ligand_efficiency_sa>  (1) 
-0.6960143705921582

>  <r_i_glide_lipo>  (1) 
-3.192402206521836

>  <r_i_glide_metal>  (1) 
-0

>  <r_i_glide_rewards>  (1) 
-0.10878252515243414

>  <r_lp_Energy>  (1) 
36.557407999999995

>  <r_lp_tautomer_probability>  (1) 
0.99999999999736477

>  <s_epik_cmdline>  (1) 
J2VwaWtfcHl0aG9uJywgJy1waHQnLCAnMS4wJywgJy1waCcsICc3LjQnLCAnLXRuJywgJzgnLCAnLW1hJywgJzUwMCcsICctaW1hZScsICc8aW5maWxlLm1hZT4nLCAnLW9tYWUnLCAnPG91dGZpbGUubWFlPic=

>  <s_epik_input>  (1) 
W09IXWMxW2NIXWMoW2NIXVtjSF1bY0hdMSktYzJbY0hdYyhbY0hdbltjSF0yKVtDSDJdQyg9TylbTkhdW0NAQEhdM1tDSF09W0NIXVtDSF09W0NIXUMzKFtDSDNdKVtDSDNd

>  <s_glide_docking_method>  (1) 
confgen

>  <s_i_glide_gridfile>  (1) 
gpcr_5ht2c_6bqh_protein_autoprepared_prepared

>  <s_lp_Force_Field>  (1) 
S-OPLS

>  <s_lp_Variant>  (1) 
DiffSBDD_47_num_sample_50-2

>  <s_m_source_file>  (1) 
generated__ligand_DiffSBDD_2026-05-06_prepared.sdf

>  <GenAI_Model>  (1) 
DiffSBDD

>  <Protein>  (1) 
GPCR_5HT2C

$$$$
DiffSBDD_11_num_sample_50
     RDKit          3D

  0  0  0  0  0  0  0  0  0  0999 V3000
M  V30 BEGIN CTAB
M  V30 COUNTS 37 39 0 0 1
M  V30 BEGIN ATOM
M  V30 1 C 38.383361 28.180343 51.689700 0
M  V30 2 C 39.702033 26.856309 57.701402 0 CFG=2
M  V30 3 C 39.979783 28.773913 59.306014 0 CFG=2
M  V30 4 O 40.267405 25.571250 57.642984 0
M  V30 5 C 39.674350 27.332433 59.143518 0 CFG=1
M  V30 6 C 38.276739 27.824687 54.190646 0 CFG=1
M  V30 7 C 39.202279 27.290282 55.300869 0
M  V30 8 C 39.341052 28.013846 50.509945 0
M  V30 9 C 38.579655 27.051874 56.695856 0 CFG=1
M  V30 10 N 37.585721 25.919028 56.755310 0 CHG=1
M  V30 11 O 38.663863 28.275596 59.564516 0
M  V30 12 O 37.067157 25.680543 57.837811 0 CHG=-1
M  V30 13 O 37.360220 25.302542 55.718503 0
M  V30 14 C 37.807449 29.262076 54.495789 0
M  V30 15 C 40.628451 27.962631 58.191294 0 CFG=2
M  V30 16 C 42.135206 27.765239 58.134635 0
M  V30 17 O 40.787734 28.893368 60.455180 0
M  V30 18 N 39.048478 27.750998 52.929286 0 CHG=1
M  V30 19 H 37.467421 27.621071 51.529350 0
M  V30 20 H 38.097929 29.221432 51.769835 0
M  V30 21 H 41.119682 25.621385 57.222805 0
M  V30 22 H 37.402043 27.183055 54.081650 0
M  V30 23 H 39.660453 26.354263 54.974598 0
M  V30 24 H 40.031274 27.991401 55.410635 0
M  V30 25 H 38.907335 28.421651 49.600772 0
M  V30 26 H 39.569739 26.963119 50.328318 0
M  V30 27 H 40.279241 28.542426 50.679575 0
M  V30 28 H 38.004155 27.923985 57.003663 0
M  V30 29 H 37.325956 29.334221 55.470054 0
M  V30 30 H 37.067594 29.608230 53.777660 0
M  V30 31 H 38.637494 29.969774 54.491425 0
M  V30 32 H 42.643092 28.722385 58.253943 0
M  V30 33 H 42.427532 27.347778 57.170845 0
M  V30 34 H 42.474992 27.095887 58.924315 0
M  V30 35 H 41.005445 28.024813 60.761443 0
M  V30 36 H 39.333139 26.790379 52.799424 0
M  V30 37 H 39.874481 28.319233 53.037484 0
M  V30 END ATOM
M  V30 BEGIN BOND
M  V30 1 1 2 4 CFG=1
M  V30 2 1 5 2
M  V30 3 1 5 3
M  V30 4 1 7 6
M  V30 5 1 8 1
M  V30 6 1 9 2
M  V30 7 1 9 7
M  V30 8 1 10 9
M  V30 9 1 11 3
M  V30 10 1 5 11 CFG=1
M  V30 11 1 12 10
M  V30 12 2 13 10
M  V30 13 1 14 6
M  V30 14 1 15 2
M  V30 15 1 15 3
M  V30 16 1 15 5
M  V30 17 1 15 16 CFG=1
M  V30 18 1 3 17 CFG=1
M  V30 19 1 18 1
M  V30 20 1 18 6
M  V30 21 1 19 1
M  V30 22 1 20 1
M  V30 23 1 21 4
M  V30 24 1 6 22 CFG=3
M  V30 25 1 23 7
M  V30 26 1 24 7
M  V30 27 1 25 8
M  V30 28 1 26 8
M  V30 29 1 27 8
M  V30 30 1 9 28 CFG=1
M  V30 31 1 29 14
M  V30 32 1 30 14
M  V30 33 1 31 14
M  V30 34 1 32 16
M  V30 35 1 33 16
M  V30 36 1 34 16
M  V30 37 1 35 17
M  V30 38 1 36 18
M  V30 39 1 37 18
M  V30 END BOND
M  V30 END CTAB
M  END
>  <i_epik_Tot_Q>  (1) 
1

>  <i_epik_Tot_abs_Q>  (1) 
3

>  <i_i_glide_confnum>  (1) 
40

>  <i_i_glide_lignum>  (1) 
38

>  <i_i_glide_posenum>  (1) 
221

>  <i_i_glide_rotatable_bonds>  (1) 
8

>  <i_lp_mmshare_version>  (1) 
72125

>  <i_m_source_file_index>  (1) 
12

>  <i_f3d_flags>  (1) 
2

>  <num_sample>  (1) 
50

>  <b_lp_Chiralities_Consistent>  (1) 
0

>  <r_epik_Charging_Adjusted_Penalty>  (1) 
0.0033658080042713689

>  <r_epik_Ionization_Penalty>  (1) 
0.035780381166706003

>  <r_epik_Ionization_Penalty_Charging>  (1) 
0.0033658080042713689

>  <r_epik_Ionization_Penalty_Neutral>  (1) 
0.032414573162434637

>  <r_epik_State_Penalty>  (1) 
-0

>  <r_glide_ring_energy>  (1) 
0

>  <r_i_docking_score>  (1) 
-5.9422959008371414

>  <r_i_glide_ecoul>  (1) 
-4.9072775731023865

>  <r_i_glide_eff_state_penalty>  (1) 
-0

>  <r_i_glide_einternal>  (1) 
1.293649709595275

>  <r_i_glide_emodel>  (1) 
-41.339810821505267

>  <r_i_glide_emodel_strain>  (1) 
1.9469814092124338

>  <r_i_glide_energy>  (1) 
-28.852500894732543

>  <r_i_glide_erotb>  (1) 
1.0519887520240689

>  <r_i_glide_esite>  (1) 
0

>  <r_i_glide_evdw>  (1) 
-23.945223321630156

>  <r_i_glide_gscore>  (1) 
-5.9422959008371414

>  <r_i_glide_gscore_strain>  (1) 
0

>  <r_i_glide_hbond>  (1) 
-0.37420220930449644

>  <r_i_glide_ligand_efficiency>  (1) 
-0.33012755004650784

>  <r_i_glide_ligand_efficiency_ln>  (1) 
-1.5274365203727001

>  <r_i_glide_ligand_efficiency_sa>  (1) 
-0.8651789357756523

>  <r_i_glide_lipo>  (1) 
-2.4964406444792164

>  <r_i_glide_metal>  (1) 
-0

>  <r_i_glide_rewards>  (1) 
-2.1902889970306325

>  <r_lp_Energy>  (1) 
94.058552999999989

>  <r_lp_tautomer_probability>  (1) 
1

>  <s_epik_cmdline>  (1) 
J2VwaWtfcHl0aG9uJywgJy1waHQnLCAnMS4wJywgJy1waCcsICc3LjQnLCAnLXRuJywgJzgnLCAnLW1hJywgJzUwMCcsICctaW1hZScsICc8aW5maWxlLm1hZT4nLCAnLW9tYWUnLCAnPG91dGZpbGUubWFlPic=

>  <s_epik_input>  (1) 
W0NIM11bQ0gyXVtOSF1bQ0BIXShbQ0gzXSlbQ0gyXVtDQEBIXShbTitdKFtPLV0pPU8pW0NAXTEoW09IXSlDMihbQ0gzXSlDKFtDQEBdMTIzKShPMylbT0hd

>  <s_glide_docking_method>  (1) 
confgen

>  <s_i_glide_gridfile>  (1) 
gpcr_5ht2c_6bqh_protein_autoprepared_prepared

>  <s_lp_Force_Field>  (1) 
S-OPLS

>  <s_lp_Variant>  (1) 
DiffSBDD_11_num_sample_50-1

>  <s_m_source_file>  (1) 
generated__ligand_DiffSBDD_2026-05-06_prepared.sdf

>  <GenAI_Model>  (1) 
DiffSBDD

>  <Protein>  (1) 
GPCR_5HT2C

$$$$
DiffSBDD_40_num_sample_50
     RDKit          3D

  0  0  0  0  0  0  0  0  0  0999 V3000
M  V30 BEGIN CTAB
M  V30 COUNTS 66 69 0 0 1
M  V30 BEGIN ATOM
M  V30 1 C 39.114235 27.927133 54.520112 0
M  V30 2 C 38.698767 31.739817 57.421700 0
M  V30 3 O 41.351997 30.144451 65.044313 0 CHG=-1
M  V30 4 C 39.292820 30.324369 60.607145 0
M  V30 5 O 39.111724 30.423361 62.005355 0
M  V30 6 C 36.312849 32.914460 59.834828 0 CFG=2
M  V30 7 C 38.142607 30.585418 58.293519 0 CFG=2
M  V30 8 O 41.467399 30.290220 62.336988 0
M  V30 9 C 38.046417 30.821526 59.838844 0 CFG=2
M  V30 10 C 39.570460 28.023437 55.977506 0 CFG=1
M  V30 11 C 40.170820 29.810029 62.720089 0 CFG=1
M  V30 12 C 37.241503 32.525152 61.706041 0
M  V30 13 C 37.657956 32.259376 60.253847 0 CFG=2
M  V30 14 C 36.244516 34.021619 58.788294 0
M  V30 15 O 38.833449 29.115535 56.524286 0
M  V30 16 O 37.067401 27.621409 53.229449 0
M  V30 17 C 36.280268 33.592381 61.198982 0 CFG=1
M  V30 18 C 39.263588 26.681593 56.673894 0
M  V30 19 P 41.066370 30.966124 63.848620 0
M  V30 20 C 37.374587 24.021774 55.156788 0
M  V30 21 O 37.874219 25.250262 54.653529 0
M  V30 22 N 37.867404 31.910696 56.215315 0 CHG=1
M  V30 23 O 37.857353 26.452554 56.618312 0
M  V30 24 C 38.888830 29.287026 57.926881 0
M  V30 25 C 37.610758 27.634963 54.528251 0 CFG=1
M  V30 26 C 36.734013 35.028232 61.003680 0
M  V30 27 O 40.267503 32.212774 63.826917 0
M  V30 28 C 37.333149 26.334809 55.326807 0 CFG=1
M  V30 29 C 36.409740 35.360067 59.535333 0
M  V30 30 C 38.256042 33.052089 55.371446 0
M  V30 31 H 39.658226 27.142380 53.991924 0
M  V30 32 H 39.316713 28.864893 54.001016 0
M  V30 33 H 38.777255 32.684427 57.948515 0
M  V30 34 H 39.707524 31.517127 57.070317 0
M  V30 35 H 39.485987 29.271793 60.400565 0
M  V30 36 H 40.173147 30.888176 60.300578 0
M  V30 37 H 35.528556 32.161269 59.731247 0
M  V30 38 H 37.103566 30.436648 57.991224 0
M  V30 39 H 37.241346 30.165786 60.175772 0
M  V30 40 H 40.638397 28.239576 56.029083 0
M  V30 41 H 40.145448 28.726063 62.816492 0
M  V30 42 H 36.727859 31.676033 62.153277 0
M  V30 43 H 38.046595 32.888351 62.345687 0
M  V30 44 H 38.475914 32.950992 60.046640 0
M  V30 45 H 35.285645 34.016731 58.269790 0
M  V30 46 H 37.007124 33.920894 58.023821 0
M  V30 47 H 37.314323 26.812052 52.802419 0
M  V30 48 H 35.290392 33.518867 61.653257 0
M  V30 49 H 39.806736 25.864773 56.195700 0
M  V30 50 H 39.590391 26.683426 57.713363 0
M  V30 51 H 37.867327 23.198659 54.653529 0
M  V30 52 H 37.563618 23.916618 56.225876 0
M  V30 53 H 36.302411 23.924557 54.977373 0
M  V30 54 H 37.928233 31.058035 55.676830 0
M  V30 55 H 38.418154 28.449095 58.441625 0
M  V30 56 H 39.938775 29.332391 58.220896 0
M  V30 57 H 37.089039 28.449365 55.029417 0
M  V30 58 H 36.267424 35.716275 61.706026 0
M  V30 59 H 37.810033 35.107578 61.162321 0
M  V30 60 H 36.267403 26.182662 55.453504 0
M  V30 61 H 35.474312 35.915577 59.471260 0
M  V30 62 H 37.179444 35.983655 59.080213 0
M  V30 63 H 37.618692 33.096976 54.487841 0
M  V30 64 H 38.151829 33.993711 55.911748 0
M  V30 65 H 39.291373 32.943302 55.053520 0
M  V30 66 H 36.884861 32.021447 56.500465 0
M  V30 END ATOM
M  V30 BEGIN BOND
M  V30 1 1 5 4
M  V30 2 1 7 2
M  V30 3 1 9 4
M  V30 4 1 9 7
M  V30 5 1 10 1
M  V30 6 1 11 5
M  V30 7 1 11 8
M  V30 8 1 13 6
M  V30 9 1 13 9
M  V30 10 1 13 12
M  V30 11 1 14 6
M  V30 12 1 15 10
M  V30 13 1 17 6
M  V30 14 1 17 12
M  V30 15 1 18 10
M  V30 16 1 19 3
M  V30 17 1 19 8
M  V30 18 1 19 11
M  V30 19 1 21 20
M  V30 20 1 22 2
M  V30 21 1 23 18
M  V30 22 1 24 7
M  V30 23 1 24 15
M  V30 24 1 25 1
M  V30 25 1 25 16
M  V30 26 1 26 17
M  V30 27 2 27 19
M  V30 28 1 28 21
M  V30 29 1 28 23
M  V30 30 1 28 25
M  V30 31 1 29 14
M  V30 32 1 29 26
M  V30 33 1 30 22
M  V30 34 1 31 1
M  V30 35 1 32 1
M  V30 36 1 33 2
M  V30 37 1 34 2
M  V30 38 1 35 4
M  V30 39 1 36 4
M  V30 40 1 6 37 CFG=1
M  V30 41 1 7 38 CFG=3
M  V30 42 1 9 39 CFG=1
M  V30 43 1 10 40 CFG=3
M  V30 44 1 11 41 CFG=1
M  V30 45 1 42 12
M  V30 46 1 43 12
M  V30 47 1 13 44 CFG=3
M  V30 48 1 45 14
M  V30 49 1 46 14
M  V30 50 1 47 16
M  V30 51 1 17 48 CFG=1
M  V30 52 1 49 18
M  V30 53 1 50 18
M  V30 54 1 51 20
M  V30 55 1 52 20
M  V30 56 1 53 20
M  V30 57 1 54 22
M  V30 58 1 55 24
M  V30 59 1 56 24
M  V30 60 1 25 57 CFG=1
M  V30 61 1 58 26
M  V30 62 1 59 26
M  V30 63 1 28 60 CFG=1
M  V30 64 1 61 29
M  V30 65 1 62 29
M  V30 66 1 63 30
M  V30 67 1 64 30
M  V30 68 1 65 30
M  V30 69 1 66 22
M  V30 END BOND
M  V30 END CTAB
M  END
>  <i_epik_Tot_Q>  (1) 
0

>  <i_epik_Tot_abs_Q>  (1) 
2

>  <i_i_glide_confnum>  (1) 
869

>  <i_i_glide_lignum>  (1) 
95

>  <i_i_glide_posenum>  (1) 
191

>  <i_i_glide_rotatable_bonds>  (1) 
12

>  <i_lp_mmshare_version>  (1) 
72125

>  <i_m_source_file_index>  (1) 
41

>  <i_f3d_flags>  (1) 
0

>  <num_sample>  (1) 
50

>  <b_lp_Chiralities_Consistent>  (1) 
1

>  <r_epik_Charging_Adjusted_Penalty>  (1) 
0.001220089536417487

>  <r_epik_Ionization_Penalty>  (1) 
0.0012207097255128069

>  <r_epik_Ionization_Penalty_Charging>  (1) 
0.001220089536417487

>  <r_epik_Ionization_Penalty_Neutral>  (1) 
6.2018909532001439e-07

>  <r_epik_State_Penalty>  (1) 
-0

>  <r_glide_ring_energy>  (1) 
0.75368377756619043

>  <r_i_docking_score>  (1) 
-5.9321924150772727

>  <r_i_glide_ecoul>  (1) 
-9.5494345444662585

>  <r_i_glide_eff_state_penalty>  (1) 
-0

>  <r_i_glide_einternal>  (1) 
31.620025444955289

>  <r_i_glide_emodel>  (1) 
-43.689341544595166

>  <r_i_glide_emodel_strain>  (1) 
3.7858357157008697

>  <r_i_glide_energy>  (1) 
-44.154521329208727

>  <r_i_glide_erotb>  (1) 
0.69437166535620165

>  <r_i_glide_esite>  (1) 
-0.13696814460360288

>  <r_i_glide_evdw>  (1) 
-34.605086784742468

>  <r_i_glide_gscore>  (1) 
-5.9321924150772727

>  <r_i_glide_gscore_strain>  (1) 
0

>  <r_i_glide_hbond>  (1) 
-0.54485294914763471

>  <r_i_glide_ligand_efficiency>  (1) 
-0.19773974716924242

>  <r_i_glide_ligand_efficiency_ln>  (1) 
-1.347858753118889

>  <r_i_glide_ligand_efficiency_sa>  (1) 
-0.61442337012336767

>  <r_i_glide_lipo>  (1) 
-1.7388588405222531

>  <r_i_glide_metal>  (1) 
-0

>  <r_i_glide_rewards>  (1) 
-1.0432146252529213

>  <r_lp_Energy>  (1) 
50.841352000000001

>  <r_lp_tautomer_probability>  (1) 
1

>  <s_epik_Chemistry_Notes>  (1) 
This compound contains an acetal/aminal-like group ( X-CH(R)-Y where X, Y are N, S, or O) that may be acid/base labile, releasing an aldehyde.

>  <s_epik_cmdline>  (1) 
J2VwaWtfcHl0aG9uJywgJy1waHQnLCAnMS4wJywgJy1waCcsICc3LjQnLCAnLXRuJywgJzgnLCAnLW1hJywgJzUwMCcsICctaW1hZScsICc8aW5maWxlLm1hZT4nLCAnLW9tYWUnLCAnPG91dGZpbGUubWFlPic=

>  <s_epik_input>  (1) 
W0NIMl0xT1tDQEhdKE9bQ0gzXSlbQ0BIXShbT0hdKVtDSDJdW0NASF0xT1tDSDJdW0NASF0oW0NIMl1bTkhdW0NIM10pW0NAQEhdKFtDSDJdT1tDQEhdMk9bUEBdMig9TylbT0hdKVtDQEBIXTNbQ0gyXVtDQEhdKFtDQEhdMzQpW0NIMl1bQ0gyXVtDSDJdNA==

>  <s_glide_docking_method>  (1) 
confgen

>  <s_i_glide_gridfile>  (1) 
gpcr_5ht2c_6bqh_protein_autoprepared_prepared

>  <s_lp_Force_Field>  (1) 
S-OPLS

>  <s_lp_Variant>  (1) 
DiffSBDD_40_num_sample_50-2

>  <s_m_source_file>  (1) 
generated__ligand_DiffSBDD_2026-05-06_prepared.sdf

>  <GenAI_Model>  (1) 
DiffSBDD

>  <Protein>  (1) 
GPCR_5HT2C

$$$$
DiffSBDD_30_num_sample_50
     RDKit          3D

  0  0  0  0  0  0  0  0  0  0999 V3000
M  V30 BEGIN CTAB
M  V30 COUNTS 68 67 0 0 1
M  V30 BEGIN ATOM
M  V30 1 C 38.076514 29.528819 54.220044 0
M  V30 2 C 37.305621 33.312288 59.908370 0 CFG=2
M  V30 3 C 36.555600 34.545965 59.359873 0
M  V30 4 O 39.475502 37.789545 62.208994 0
M  V30 5 C 39.456811 36.866185 64.429716 0
M  V30 6 C 38.745977 32.572282 61.922172 0
M  V30 7 C 39.185941 28.511326 50.952477 0
M  V30 8 C 39.548289 27.053816 55.513596 0
M  V30 9 C 37.958940 32.780232 57.411611 0
M  V30 10 C 38.593269 33.592181 60.756364 0 CFG=2
M  V30 11 C 38.826374 28.410149 53.452478 0 CFG=1
M  V30 12 C 38.631814 35.044814 61.316956 0
M  V30 13 C 38.828112 27.020322 54.150249 0 CFG=2
M  V30 14 C 38.266099 31.999342 55.053037 0
M  V30 15 C 38.730070 31.076470 61.575904 0
M  V30 16 C 37.526863 32.258047 58.794098 0
M  V30 17 C 39.561124 36.784730 62.911145 0
M  V30 18 C 39.776673 35.397197 62.298060 0 CFG=2
M  V30 19 C 38.838650 30.871788 54.167231 0
M  V30 20 C 37.428280 26.371171 54.231644 0
M  V30 21 O 39.289806 30.871176 56.903673 0 CHG=-1
M  V30 22 C 37.363490 25.053436 55.023868 0
M  V30 23 N 38.210575 31.589985 56.512426 0 CFG=1 CHG=1
M  V30 24 C 41.165328 35.315308 61.652766 0
M  V30 25 C 38.375765 28.310843 52.003901 0
M  V30 26 H 37.058375 29.643243 53.852796 0
M  V30 27 H 37.960679 29.241631 55.263011 0
M  V30 28 H 36.588437 32.866051 60.597548 0
M  V30 29 H 37.197840 35.184337 58.753674 0
M  V30 30 H 35.715644 34.241517 58.734356 0
M  V30 31 H 36.132666 35.152051 60.160710 0
M  V30 32 H 40.281569 36.335971 64.903656 0
M  V30 33 H 39.487480 37.903170 64.761273 0
M  V30 34 H 38.521977 36.422026 64.769998 0
M  V30 35 H 39.693540 32.748733 62.428685 0
M  V30 36 H 37.963725 32.758177 62.654727 0
M  V30 37 H 40.227301 28.761739 51.090854 0
M  V30 38 H 38.816585 28.426518 49.941155 0
M  V30 39 H 38.933909 27.501560 56.295139 0
M  V30 40 H 39.806404 26.045590 55.839080 0
M  V30 41 H 40.479438 27.617321 55.459491 0
M  V30 42 H 38.880314 33.361165 57.440490 0
M  V30 43 H 37.170185 33.372195 56.946037 0
M  V30 44 H 39.454910 33.481904 60.096214 0
M  V30 45 H 39.867404 28.719948 53.399042 0
M  V30 46 H 38.682984 35.743677 60.480707 0
M  V30 47 H 37.688648 35.248363 61.825659 0
M  V30 48 H 39.434804 26.371490 53.517955 0
M  V30 49 H 38.905076 32.880378 55.006315 0
M  V30 50 H 37.253928 32.281685 54.757778 0
M  V30 51 H 38.943242 30.479255 62.462525 0
M  V30 52 H 37.754044 30.759015 61.207523 0
M  V30 53 H 39.484595 30.825848 60.829034 0
M  V30 54 H 36.595588 31.714384 58.664021 0
M  V30 55 H 38.241723 31.504598 59.106679 0
M  V30 56 H 39.754055 34.709427 63.142253 0
M  V30 57 H 39.877454 30.707895 54.456937 0
M  V30 58 H 38.888746 31.218517 53.136031 0
M  V30 59 H 36.715916 27.078371 54.653508 0
M  V30 60 H 37.067449 26.167982 53.223493 0
M  V30 61 H 36.380805 24.591025 54.927096 0
M  V30 62 H 38.101530 24.334600 54.667540 0
M  V30 63 H 37.536514 25.216904 56.087927 0
M  V30 64 H 41.912335 35.734603 62.324906 0
M  V30 65 H 41.444727 34.280652 61.455936 0
M  V30 66 H 41.214930 35.867082 60.713376 0
M  V30 67 H 37.338558 28.060986 51.836617 0
M  V30 68 H 37.330855 31.028438 56.580035 0
M  V30 END ATOM
M  V30 BEGIN BOND
M  V30 1 1 3 2
M  V30 2 1 10 2
M  V30 3 1 10 6
M  V30 4 1 11 1
M  V30 5 1 12 10
M  V30 6 1 13 8
M  V30 7 1 13 11
M  V30 8 1 15 6
M  V30 9 1 16 2
M  V30 10 1 16 9
M  V30 11 2 17 4
M  V30 12 1 17 5
M  V30 13 1 18 12
M  V30 14 1 18 17
M  V30 15 1 19 1
M  V30 16 1 19 14
M  V30 17 1 20 13
M  V30 18 1 22 20
M  V30 19 1 23 9
M  V30 20 1 23 14
M  V30 21 1 23 21
M  V30 22 1 24 18
M  V30 23 2 25 7
M  V30 24 1 25 11
M  V30 25 1 26 1
M  V30 26 1 27 1
M  V30 27 1 2 28 CFG=1
M  V30 28 1 29 3
M  V30 29 1 30 3
M  V30 30 1 31 3
M  V30 31 1 32 5
M  V30 32 1 33 5
M  V30 33 1 34 5
M  V30 34 1 35 6
M  V30 35 1 36 6
M  V30 36 1 37 7
M  V30 37 1 38 7
M  V30 38 1 39 8
M  V30 39 1 40 8
M  V30 40 1 41 8
M  V30 41 1 42 9
M  V30 42 1 43 9
M  V30 43 1 10 44 CFG=3
M  V30 44 1 11 45 CFG=3
M  V30 45 1 46 12
M  V30 46 1 47 12
M  V30 47 1 13 48 CFG=3
M  V30 48 1 49 14
M  V30 49 1 50 14
M  V30 50 1 51 15
M  V30 51 1 52 15
M  V30 52 1 53 15
M  V30 53 1 54 16
M  V30 54 1 55 16
M  V30 55 1 18 56 CFG=1
M  V30 56 1 57 19
M  V30 57 1 58 19
M  V30 58 1 59 20
M  V30 59 1 60 20
M  V30 60 1 61 22
M  V30 61 1 62 22
M  V30 62 1 63 22
M  V30 63 1 64 24
M  V30 64 1 65 24
M  V30 65 1 66 24
M  V30 66 1 67 25
M  V30 67 1 23 68 CFG=3
M  V30 END BOND
M  V30 END CTAB
M  END
>  <i_epik_Tot_Q>  (1) 
0

>  <i_epik_Tot_abs_Q>  (1) 
2

>  <i_i_glide_confnum>  (1) 
2102

>  <i_i_glide_lignum>  (1) 
82

>  <i_i_glide_posenum>  (1) 
241

>  <i_i_glide_rotatable_bonds>  (1) 
15

>  <i_lp_mmshare_version>  (1) 
72125

>  <i_m_source_file_index>  (1) 
31

>  <i_f3d_flags>  (1) 
0

>  <num_sample>  (1) 
50

>  <b_lp_Chiralities_Consistent>  (1) 
1

>  <r_epik_Charging_Adjusted_Penalty>  (1) 
0.52251968911758562

>  <r_epik_Ionization_Penalty>  (1) 
0.019979657236955634

>  <r_epik_Ionization_Penalty_Charging>  (1) 
0.019979657236557934

>  <r_epik_Ionization_Penalty_Neutral>  (1) 
3.9770064437045143e-13

>  <r_epik_State_Penalty>  (1) 
0.50254003188102769

>  <r_glide_ring_energy>  (1) 
0

>  <r_i_docking_score>  (1) 
-5.9262294222128222

>  <r_i_glide_ecoul>  (1) 
-4.7502544492933572

>  <r_i_glide_eff_state_penalty>  (1) 
0.50254003188102769

>  <r_i_glide_einternal>  (1) 
12.84277848861182

>  <r_i_glide_emodel>  (1) 
-48.921913909044051

>  <r_i_glide_emodel_strain>  (1) 
1.1248710012261434

>  <r_i_glide_energy>  (1) 
-41.674945140272143

>  <r_i_glide_erotb>  (1) 
1.833058027080513

>  <r_i_glide_esite>  (1) 
-0.10000000000000001

>  <r_i_glide_evdw>  (1) 
-36.924690690978785

>  <r_i_glide_gscore>  (1) 
-6.4287694540938496

>  <r_i_glide_gscore_strain>  (1) 
0

>  <r_i_glide_hbond>  (1) 
-0.055204181487862443

>  <r_i_glide_ligand_efficiency>  (1) 
-0.2370491768885129

>  <r_i_glide_ligand_efficiency_ln>  (1) 
-1.4046939678292047

>  <r_i_glide_ligand_efficiency_sa>  (1) 
-0.69313599805077108

>  <r_i_glide_lipo>  (1) 
-3.6017059255933921

>  <r_i_glide_metal>  (1) 
-0

>  <r_i_glide_rewards>  (1) 
-1.9461446721501643

>  <r_lp_Energy>  (1) 
17.351582999999998

>  <s_epik_cmdline>  (1) 
J2VwaWtfcHl0aG9uJywgJy1waHQnLCAnMS4wJywgJy1waCcsICc3LjQnLCAnLXRuJywgJzgnLCAnLW1hJywgJzUwMCcsICctaW1hZScsICc8aW5maWxlLm1hZT4nLCAnLW9tYWUnLCAnPG91dGZpbGUubWFlPic=

>  <s_epik_input>  (1) 
W0NIM11bQ0gyXVtDQEhdKFtDSDNdKVtDQEBIXShbQ0hdPVtDSDJdKVtDSDJdW0NIMl1bQ0gyXU4oW09IXSlbQ0gyXVtDSDJdW0NASF0oW0NIM10pW0NASF0oW0NIMl1bQ0gzXSlbQ0gyXVtDQEhdKFtDSDNdKUMoPU8pW0NIM10=

>  <s_glide_docking_method>  (1) 
confgen

>  <s_i_glide_gridfile>  (1) 
gpcr_5ht2c_6bqh_protein_autoprepared_prepared

>  <s_lp_Force_Field>  (1) 
S-OPLS

>  <s_lp_Variant>  (1) 
DiffSBDD_30_num_sample_50-6

>  <s_m_source_file>  (1) 
generated__ligand_DiffSBDD_2026-05-06_prepared.sdf

>  <GenAI_Model>  (1) 
DiffSBDD

>  <Protein>  (1) 
GPCR_5HT2C

$$$$
DiffSBDD_6_num_sample_50
     RDKit          3D

  0  0  0  0  0  0  0  0  0  0999 V3000
M  V30 BEGIN CTAB
M  V30 COUNTS 65 68 0 0 1
M  V30 BEGIN ATOM
M  V30 1 N 38.434104 28.595330 56.470053 0
M  V30 2 N 38.095878 31.303032 57.008976 0 CHG=1
M  V30 3 C 37.867409 32.643845 57.053588 0
M  V30 4 C 38.656829 25.008809 55.178419 0
M  V30 5 C 43.115685 28.661828 63.987794 0
M  V30 6 N 39.244243 32.032097 60.253441 0
M  V30 7 N 38.221405 33.056181 58.295448 0
M  V30 8 N 38.562225 30.457230 62.007013 0
M  V30 9 C 39.359807 27.187116 58.229228 0
M  V30 10 C 44.421711 30.413601 65.768323 0
M  V30 11 N 38.982148 29.607796 58.550287 0
M  V30 12 O 41.573912 30.439831 63.417319 0
M  V30 13 C 39.600800 34.074449 61.234675 0
M  V30 14 C 39.380747 37.221378 63.528675 0
M  V30 15 F 45.051647 31.255294 66.622801 0
M  V30 16 C 38.667404 31.981191 58.990855 0
M  V30 17 C 42.652750 29.989370 64.139505 0
M  V30 18 C 37.796588 27.717336 54.288346 0
M  V30 19 C 39.899709 36.346607 62.385431 0
M  V30 20 F 42.494132 27.818325 63.130826 0
M  V30 21 C 44.229882 28.217024 64.725053 0
M  V30 22 C 39.448988 29.443729 59.944296 0
M  V30 23 C 38.357310 27.496081 55.682004 0
M  V30 24 C 44.881700 29.091817 65.615011 0
M  V30 25 C 39.280268 26.059448 57.398227 0
M  V30 26 C 39.067961 35.067750 62.254927 0
M  V30 27 C 39.453812 30.716011 60.889215 0 CFG=1
M  V30 28 C 38.766283 26.210085 56.102519 0
M  V30 29 O 38.675608 33.001244 61.117463 0
M  V30 30 F 42.868483 32.134790 65.177805 0
M  V30 31 C 39.191485 30.664185 63.304450 0
M  V30 32 C 43.308629 30.862097 65.030974 0
M  V30 33 C 38.588606 30.910716 58.209170 0
M  V30 34 C 40.365953 29.713494 63.594006 0
M  V30 35 C 38.921782 28.443881 57.729834 0
M  V30 36 H 37.471197 33.254503 56.260046 0
M  V30 37 H 38.177911 34.007462 58.635774 0
M  V30 38 H 38.442063 24.109238 55.756465 0
M  V30 39 H 39.599733 24.852796 54.653688 0
M  V30 40 H 37.858787 25.111472 54.444696 0
M  V30 41 H 38.275100 29.490361 61.978561 0
M  V30 42 H 39.749049 27.088296 59.228794 0
M  V30 43 H 40.576490 33.705190 61.559371 0
M  V30 44 H 39.739284 34.563429 60.268507 0
M  V30 45 H 39.872809 38.192110 63.535460 0
M  V30 46 H 39.557575 36.749857 64.495893 0
M  V30 47 H 38.308754 37.395144 63.433778 0
M  V30 48 H 38.470166 27.316411 53.531170 0
M  V30 49 H 37.654397 28.778109 54.082798 0
M  V30 50 H 36.827049 27.229859 54.189023 0
M  V30 51 H 39.857585 36.907087 61.453482 0
M  V30 52 H 40.949045 36.104929 62.557476 0
M  V30 53 H 44.585547 27.204937 64.605923 0
M  V30 54 H 40.476489 29.079801 59.895444 0
M  V30 55 H 38.869143 28.647724 60.412601 0
M  V30 56 H 45.737085 28.749942 66.178708 0
M  V30 57 H 39.607222 25.092100 57.752694 0
M  V30 58 H 39.067462 34.559440 63.209921 0
M  V30 59 H 38.033741 35.321418 62.021201 0
M  V30 60 H 40.473890 30.783132 61.262082 0
M  V30 61 H 39.466987 31.708206 63.453416 0
M  V30 62 H 38.421359 30.421428 64.031356 0
M  V30 63 H 40.324323 28.829353 62.957279 0
M  V30 64 H 40.288844 29.369244 64.627388 0
M  V30 65 H 37.922350 30.697649 56.214767 0
M  V30 END ATOM
M  V30 BEGIN BOND
M  V30 1 2 3 2
M  V30 2 1 7 3
M  V30 3 1 15 10
M  V30 4 1 16 6
M  V30 5 1 16 7
M  V30 6 2 17 5
M  V30 7 1 17 12
M  V30 8 1 19 14
M  V30 9 1 20 5
M  V30 10 1 21 5
M  V30 11 1 22 11
M  V30 12 1 23 1
M  V30 13 1 23 18
M  V30 14 1 24 10
M  V30 15 2 24 21
M  V30 16 2 25 9
M  V30 17 1 26 13
M  V30 18 1 26 19
M  V30 19 1 27 6
M  V30 20 1 27 8
M  V30 21 1 27 22
M  V30 22 1 28 4
M  V30 23 2 28 23
M  V30 24 1 28 25
M  V30 25 1 29 6
M  V30 26 1 29 13
M  V30 27 1 31 8
M  V30 28 2 32 10
M  V30 29 1 32 17
M  V30 30 1 32 30
M  V30 31 1 33 2
M  V30 32 1 33 11
M  V30 33 2 33 16
M  V30 34 1 34 12
M  V30 35 1 34 31
M  V30 36 2 35 1
M  V30 37 1 35 9
M  V30 38 1 35 11
M  V30 39 1 36 3
M  V30 40 1 37 7
M  V30 41 1 38 4
M  V30 42 1 39 4
M  V30 43 1 40 4
M  V30 44 1 41 8
M  V30 45 1 42 9
M  V30 46 1 43 13
M  V30 47 1 44 13
M  V30 48 1 45 14
M  V30 49 1 46 14
M  V30 50 1 47 14
M  V30 51 1 48 18
M  V30 52 1 49 18
M  V30 53 1 50 18
M  V30 54 1 51 19
M  V30 55 1 52 19
M  V30 56 1 53 21
M  V30 57 1 54 22
M  V30 58 1 55 22
M  V30 59 1 56 24
M  V30 60 1 57 25
M  V30 61 1 58 26
M  V30 62 1 59 26
M  V30 63 1 27 60 CFG=1
M  V30 64 1 61 31
M  V30 65 1 62 31
M  V30 66 1 63 34
M  V30 67 1 64 34
M  V30 68 1 65 2
M  V30 END BOND
M  V30 END CTAB
M  END
>  <i_epik_Tot_Q>  (1) 
1

>  <i_epik_Tot_abs_Q>  (1) 
1

>  <i_i_glide_confnum>  (1) 
837

>  <i_i_glide_lignum>  (1) 
20

>  <i_i_glide_posenum>  (1) 
381

>  <i_i_glide_rotatable_bonds>  (1) 
10

>  <i_lp_mmshare_version>  (1) 
72125

>  <i_m_source_file_index>  (1) 
7

>  <i_f3d_flags>  (1) 
0

>  <num_sample>  (1) 
50

>  <b_lp_Chiralities_Consistent>  (1) 
1

>  <r_epik_Charging_Adjusted_Penalty>  (1) 
0.17211517054128123

>  <r_epik_Ionization_Penalty>  (1) 
0.10319272176977491

>  <r_epik_Ionization_Penalty_Charging>  (1) 
0

>  <r_epik_Ionization_Penalty_Neutral>  (1) 
0.10319272176977491

>  <r_epik_State_Penalty>  (1) 
0.17211517054128123

>  <r_glide_ring_energy>  (1) 
0

>  <r_i_docking_score>  (1) 
-5.9241247997516444

>  <r_i_glide_ecoul>  (1) 
-3.3441621467017493

>  <r_i_glide_eff_state_penalty>  (1) 
0.17211517054128123

>  <r_i_glide_einternal>  (1) 
8.5732455116821793

>  <r_i_glide_emodel>  (1) 
-54.150433152839405

>  <r_i_glide_emodel_strain>  (1) 
0.73853396289706552

>  <r_i_glide_energy>  (1) 
-39.134699560697328

>  <r_i_glide_erotb>  (1) 
0.67408029721787976

>  <r_i_glide_esite>  (1) 
-0.25775351447326944

>  <r_i_glide_evdw>  (1) 
-35.79053741399558

>  <r_i_glide_gscore>  (1) 
-6.0962399702929257

>  <r_i_glide_gscore_strain>  (1) 
0

>  <r_i_glide_hbond>  (1) 
0

>  <r_i_glide_ligand_efficiency>  (1) 
-0.1692607085643327

>  <r_i_glide_ligand_efficiency_ln>  (1) 
-1.3004768724115225

>  <r_i_glide_ligand_efficiency_sa>  (1) 
-0.55366300142343805

>  <r_i_glide_lipo>  (1) 
-3.390325974880112

>  <r_i_glide_metal>  (1) 
-0

>  <r_i_glide_rewards>  (1) 
-0.8310895854523821

>  <r_lp_Energy>  (1) 
50.162378999999994

>  <r_lp_tautomer_probability>  (1) 
0.70072779002327656

>  <s_epik_Chemistry_Notes>  (1) 
This compound contains an acetal/aminal-like group ( X-CH(R)-Y where X, Y are N, S, or O) that may be acid/base labile, releasing an aldehyde. This compound has a N-S or N-O group and may undergo hydrolysis at high or low pH.

>  <s_epik_cmdline>  (1) 
J2VwaWtfcHl0aG9uJywgJy1waHQnLCAnMS4wJywgJy1waCcsICc3LjQnLCAnLXRuJywgJzgnLCAnLW1hJywgJzUwMCcsICctaW1hZScsICc8aW5maWxlLm1hZT4nLCAnLW9tYWUnLCAnPG91dGZpbGUubWFlPic=

>  <s_epik_input>  (1) 
W0NIM11jMVtjSF1bY0hdYyhuYzFbQ0gzXSlOKEMoQzIzKT1OW0NIMl1OPTMpW0NIMl1bQ0BASF0oTjJPW0NIMl1bQ0gyXVtDSDJdW0NIM10pW05IXVtDSDJdW0NIMl1PYyhjNEYpYyhGKWMoRilbY0hdW2NIXTQ=

>  <s_glide_docking_method>  (1) 
confgen

>  <s_i_glide_gridfile>  (1) 
gpcr_5ht2c_6bqh_protein_autoprepared_prepared

>  <s_lp_Force_Field>  (1) 
S-OPLS

>  <s_lp_Variant>  (1) 
DiffSBDD_6_num_sample_50-1

>  <s_m_source_file>  (1) 
generated__ligand_DiffSBDD_2026-05-06_prepared.sdf

>  <GenAI_Model>  (1) 
DiffSBDD

>  <Protein>  (1) 
GPCR_5HT2C

$$$$
DiffSBDD_3_num_sample_50
     RDKit          3D

  0  0  0  0  0  0  0  0  0  0999 V3000
M  V30 BEGIN CTAB
M  V30 COUNTS 73 76 0 0 1
M  V30 BEGIN ATOM
M  V30 1 C 35.693790 34.212150 60.601998 0
M  V30 2 N 39.867449 37.558912 62.253119 0
M  V30 3 C 37.903184 35.004059 61.600061 0
M  V30 4 C 38.847285 29.036766 56.688699 0 CFG=2
M  V30 5 C 38.715055 29.803967 59.849544 0
M  V30 6 S 42.751310 30.530252 65.324947 0
M  V30 7 C 39.299158 33.735659 60.024754 0
M  V30 8 C 40.365803 36.513808 62.201221 0
M  V30 9 C 39.557585 30.698827 52.975524 0
M  V30 10 C 41.419504 31.494313 66.084665 0 CFG=1
M  V30 11 C 39.062341 29.673891 55.367348 0 CFG=1
M  V30 12 C 36.528311 34.378380 61.847740 0
M  V30 13 C 37.177756 32.287867 59.616494 0 CFG=2
M  V30 14 C 37.758950 30.066544 58.697314 0
M  V30 15 C 37.593346 29.086341 57.562420 0
M  V30 16 C 40.511919 31.980249 64.953293 0
M  V30 17 N 38.893121 33.941976 61.418002 0
M  V30 18 C 40.978815 35.173442 62.135072 0
M  V30 19 O 39.516810 30.361800 56.497324 0
M  V30 20 C 40.688144 32.619256 62.448327 0
M  V30 21 C 42.298033 31.040437 63.647119 0
M  V30 22 C 39.993614 34.003534 62.394469 0 CFG=2
M  V30 23 C 38.084910 31.963820 55.060571 0
M  V30 24 C 39.138285 28.333442 59.986803 0
M  V30 25 N 37.067409 31.168900 58.653568 0 CHG=1
M  V30 26 C 38.658880 29.888019 53.903325 0 CFG=1
M  V30 27 C 35.760979 32.797437 60.032435 0 CFG=2
M  V30 28 C 38.141169 33.375453 59.065211 0
M  V30 29 C 41.426859 32.296693 63.762909 0 CFG=2
M  V30 30 O 34.750700 32.821455 59.053510 0
M  V30 31 N 37.911685 30.509164 54.947875 0
M  V30 32 F 40.734268 30.766594 66.965326 0
M  V30 33 O 39.870577 29.939101 51.827446 0
M  V30 34 H 34.667315 34.376672 60.893791 0
M  V30 35 H 35.899065 34.988373 59.864311 0
M  V30 36 H 37.906108 35.718119 60.774505 0
M  V30 37 H 38.127747 35.584045 62.494373 0
M  V30 38 H 39.535909 28.230770 56.929678 0
M  V30 39 H 38.255347 30.058651 60.803171 0
M  V30 40 H 40.003016 32.908964 59.985276 0
M  V30 41 H 39.837075 34.610346 59.663633 0
M  V30 42 H 39.067405 31.617296 52.653503 0
M  V30 43 H 40.478413 30.976599 53.490530 0
M  V30 44 H 41.851864 32.338349 66.621966 0
M  V30 45 H 35.965961 34.999320 62.549503 0
M  V30 46 H 36.640464 33.386945 62.278494 0
M  V30 47 H 37.619507 31.916470 60.532813 0
M  V30 48 H 39.604710 30.422132 59.727171 0
M  V30 49 H 37.361035 28.089849 57.938038 0
M  V30 50 H 39.833166 31.173975 64.678447 0
M  V30 51 H 39.900295 32.821413 65.267994 0
M  V30 52 H 41.767937 35.167746 62.887673 0
M  V30 53 H 41.473821 35.071188 61.169341 0
M  V30 54 H 39.953672 31.830522 62.275210 0
M  V30 55 H 41.403014 32.553951 61.626186 0
M  V30 56 H 43.180921 31.203604 63.039448 0
M  V30 57 H 41.730731 30.228722 63.191380 0
M  V30 58 H 39.535897 34.165459 63.369367 0
M  V30 59 H 37.515563 32.479273 54.286422 0
M  V30 60 H 39.127018 32.279096 54.990450 0
M  V30 61 H 37.707130 32.310929 56.021311 0
M  V30 62 H 39.766383 28.209045 60.868717 0
M  V30 63 H 39.725149 27.984799 59.140675 0
M  V30 64 H 38.280228 27.675804 60.112923 0
M  V30 65 H 36.737621 29.392589 56.961051 0
M  V30 66 H 38.052452 29.119935 53.424299 0
M  V30 67 H 35.388251 32.104342 60.789598 0
M  V30 68 H 37.604910 34.267475 58.746904 0
M  V30 69 H 38.606685 33.014550 58.146425 0
M  V30 70 H 42.069747 33.136685 64.025335 0
M  V30 71 H 35.061784 32.483441 58.195894 0
M  V30 72 H 40.338630 29.159579 52.082625 0
M  V30 73 H 36.415613 31.313097 57.856598 0
M  V30 END ATOM
M  V30 BEGIN BOND
M  V30 1 3 8 2
M  V30 2 1 10 6
M  V30 3 1 11 4
M  V30 4 1 12 1
M  V30 5 1 12 3
M  V30 6 1 14 5
M  V30 7 1 15 4
M  V30 8 1 15 14
M  V30 9 1 16 10
M  V30 10 1 17 3
M  V30 11 1 17 7
M  V30 12 1 18 8
M  V30 13 1 19 4
M  V30 14 1 11 19 CFG=1
M  V30 15 1 21 6
M  V30 16 1 22 17
M  V30 17 1 22 18
M  V30 18 1 22 20
M  V30 19 1 24 5
M  V30 20 1 25 13
M  V30 21 2 25 14
M  V30 22 1 26 9
M  V30 23 1 26 11
M  V30 24 1 27 1
M  V30 25 1 27 13
M  V30 26 1 28 7
M  V30 27 1 28 13
M  V30 28 1 29 16
M  V30 29 1 29 20
M  V30 30 1 29 21
M  V30 31 1 30 27
M  V30 32 1 31 11
M  V30 33 1 31 23
M  V30 34 1 31 26
M  V30 35 1 32 10
M  V30 36 1 33 9
M  V30 37 1 34 1
M  V30 38 1 35 1
M  V30 39 1 36 3
M  V30 40 1 37 3
M  V30 41 1 4 38 CFG=3
M  V30 42 1 39 5
M  V30 43 1 40 7
M  V30 44 1 41 7
M  V30 45 1 42 9
M  V30 46 1 43 9
M  V30 47 1 10 44 CFG=1
M  V30 48 1 45 12
M  V30 49 1 46 12
M  V30 50 1 13 47 CFG=1
M  V30 51 1 48 5
M  V30 52 1 49 15
M  V30 53 1 50 16
M  V30 54 1 51 16
M  V30 55 1 52 18
M  V30 56 1 53 18
M  V30 57 1 54 20
M  V30 58 1 55 20
M  V30 59 1 56 21
M  V30 60 1 57 21
M  V30 61 1 22 58 CFG=1
M  V30 62 1 59 23
M  V30 63 1 60 23
M  V30 64 1 61 23
M  V30 65 1 62 24
M  V30 66 1 63 24
M  V30 67 1 64 24
M  V30 68 1 65 15
M  V30 69 1 26 66 CFG=3
M  V30 70 1 27 67 CFG=1
M  V30 71 1 68 28
M  V30 72 1 69 28
M  V30 73 1 29 70 CFG=1
M  V30 74 1 71 30
M  V30 75 1 72 33
M  V30 76 1 73 25
M  V30 END BOND
M  V30 END CTAB
M  END
>  <i_epik_Tot_Q>  (1) 
1

>  <i_epik_Tot_abs_Q>  (1) 
1

>  <i_i_glide_confnum>  (1) 
196

>  <i_i_glide_lignum>  (1) 
11

>  <i_i_glide_posenum>  (1) 
340

>  <i_i_glide_rotatable_bonds>  (1) 
11

>  <i_lp_mmshare_version>  (1) 
72125

>  <i_m_source_file_index>  (1) 
4

>  <i_f3d_flags>  (1) 
0

>  <num_sample>  (1) 
50

>  <b_lp_Chiralities_Consistent>  (1) 
1

>  <r_epik_Charging_Adjusted_Penalty>  (1) 
0.69158801815778803

>  <r_epik_Ionization_Penalty>  (1) 
0.18004840766126984

>  <r_epik_Ionization_Penalty_Charging>  (1) 
0.063917621844604325

>  <r_epik_Ionization_Penalty_Neutral>  (1) 
0.11613078581666553

>  <r_epik_State_Penalty>  (1) 
0.62767039631318366

>  <r_glide_ring_energy>  (1) 
0

>  <r_i_docking_score>  (1) 
-5.8892585894272393

>  <r_i_glide_ecoul>  (1) 
-11.508283952260578

>  <r_i_glide_eff_state_penalty>  (1) 
0.62767039631318366

>  <r_i_glide_einternal>  (1) 
8.4361283165355072

>  <r_i_glide_emodel>  (1) 
-48.09019087559642

>  <r_i_glide_emodel_strain>  (1) 
2.0567373938424112

>  <r_i_glide_energy>  (1) 
-40.225515950566347

>  <r_i_glide_erotb>  (1) 
0.69427784923131142

>  <r_i_glide_esite>  (1) 
-0.14329694520076827

>  <r_i_glide_evdw>  (1) 
-28.717231998305767

>  <r_i_glide_gscore>  (1) 
-6.5169289857404227

>  <r_i_glide_gscore_strain>  (1) 
0

>  <r_i_glide_hbond>  (1) 
-0.30654672942794531

>  <r_i_glide_ligand_efficiency>  (1) 
-0.17846238149779514

>  <r_i_glide_ligand_efficiency_ln>  (1) 
-1.3097406173395896

>  <r_i_glide_ligand_efficiency_sa>  (1) 
-0.57242421526698994

>  <r_i_glide_lipo>  (1) 
-2.5778731226049394

>  <r_i_glide_metal>  (1) 
-0

>  <r_i_glide_rewards>  (1) 
-1.0213858449837081

>  <r_lp_Energy>  (1) 
29.912270999999997

>  <s_epik_Chemistry_Notes>  (1) 
This compound has an imine and may undergo hydrolysis.

>  <s_epik_cmdline>  (1) 
J2VwaWtfcHl0aG9uJywgJy1waHQnLCAnMS4wJywgJy1waCcsICc3LjQnLCAnLXRuJywgJzgnLCAnLW1hJywgJzUwMCcsICctaW1hZScsICc8aW5maWxlLm1hZT4nLCAnLW9tYWUnLCAnPG91dGZpbGUubWFlPic=

>  <s_epik_input>  (1) 
RltDQEhdMVNbQ0gyXVtDQEhdKFtDSDJdMSlbQ0gyXVtDQEBIXShbQ0gyXUMjTilOKFtDSDJdW0NIMl0yKVtDSDJdW0NIMl1bQ0gyXVtDQEBIXShbT0hdKVtDQEhdMltOSF1DKD1bQ0hdXFtDSDNdKVxbQ0gyXVtDQEhdKE8zKVtDQF0zNFtDQEhdKFtDSDJdW09IXSlONFtDSDNd

>  <s_glide_docking_method>  (1) 
confgen

>  <s_i_glide_gridfile>  (1) 
gpcr_5ht2c_6bqh_protein_autoprepared_prepared

>  <s_lp_Force_Field>  (1) 
S-OPLS

>  <s_lp_Variant>  (1) 
DiffSBDD_3_num_sample_50-2

>  <s_m_source_file>  (1) 
generated__ligand_DiffSBDD_2026-05-06_prepared.sdf

>  <GenAI_Model>  (1) 
DiffSBDD

>  <Protein>  (1) 
GPCR_5HT2C

$$$$
DiffSBDD_5_num_sample_50
     RDKit          3D

  0  0  0  0  0  0  0  0  0  0999 V3000
M  V30 BEGIN CTAB
M  V30 COUNTS 80 82 0 0 1
M  V30 BEGIN ATOM
M  V30 1 C 37.512621 31.191344 59.236449 0
M  V30 2 C 38.334816 31.120804 56.835779 0 CFG=2
M  V30 3 N 40.349616 36.395188 64.055244 0
M  V30 4 F 36.268286 24.205816 54.744670 0
M  V30 5 C 38.125340 34.091992 60.764254 0
M  V30 6 N 38.312757 31.747146 60.095421 0 CHG=1
M  V30 7 C 37.770713 36.646375 61.201874 0 CFG=1
M  V30 8 C 37.273065 25.184962 56.628492 0 CFG=2
M  V30 9 C 38.807189 30.822871 54.320005 0
M  V30 10 C 37.627109 32.654490 61.043706 0 CFG=2
M  V30 11 N 36.273334 31.505731 59.453499 0
M  V30 12 C 40.250070 30.981047 53.824337 0
M  V30 13 C 39.446316 28.391035 57.312476 0 CFG=2
M  V30 14 C 38.064862 32.138115 54.088345 0
M  V30 15 N 38.649644 26.318008 58.279708 0 CHG=1
M  V30 16 C 39.028733 36.553312 63.464645 0
M  V30 17 C 39.314251 32.286292 57.053283 0
M  V30 18 C 36.077455 32.404536 60.598564 0
M  V30 19 C 37.962178 30.293949 58.101266 0 CFG=1
M  V30 20 C 38.236421 24.981683 57.802429 0
M  V30 21 O 40.671909 34.271431 63.335767 0
M  V30 22 C 37.102219 23.946856 55.743918 0
M  V30 23 C 42.428045 35.256975 64.629387 0
M  V30 24 C 41.067362 35.264577 63.946943 0
M  V30 25 S 37.940093 26.607044 55.743458 0
M  V30 26 C 39.109219 29.343621 58.491259 0
M  V30 27 C 39.682136 29.165582 55.989263 0
M  V30 28 C 36.602515 38.732097 61.232079 0
M  V30 29 O 36.722547 37.425753 61.767189 0
M  V30 30 O 39.510115 38.203231 61.853503 0
M  V30 31 N 38.660615 30.212548 55.687156 0 CFG=1 CHG=1
M  V30 32 C 39.099327 36.864272 61.970279 0 CFG=2
M  V30 33 N 38.447508 27.318851 57.221436 0
M  V30 34 C 37.196124 35.215203 61.256217 0
M  V30 35 H 37.448296 31.644265 56.541563 0
M  V30 36 H 40.742603 37.180345 64.568453 0
M  V30 37 H 38.306706 34.235091 59.697661 0
M  V30 38 H 39.097088 34.187146 61.243443 0
M  V30 39 H 37.923566 36.876366 60.145304 0
M  V30 40 H 36.297110 25.482422 57.015697 0
M  V30 41 H 38.343347 30.101582 53.645581 0
M  V30 42 H 37.800824 32.357699 62.078615 0
M  V30 43 H 35.508261 31.237523 58.838548 0
M  V30 44 H 40.283995 31.542505 52.890224 0
M  V30 45 H 40.900971 31.474537 54.542907 0
M  V30 46 H 40.667428 30.021428 53.579428 0
M  V30 47 H 40.394214 27.896736 57.535587 0
M  V30 48 H 38.267337 32.451568 53.063451 0
M  V30 49 H 36.992490 32.035055 54.253514 0
M  V30 50 H 38.423144 32.965937 54.685115 0
M  V30 51 H 39.627495 26.330261 58.535494 0
M  V30 52 H 38.454880 37.302667 64.010251 0
M  V30 53 H 38.508666 35.621445 63.581291 0
M  V30 54 H 39.467393 32.510032 58.098974 0
M  V30 55 H 40.267382 32.127670 56.563774 0
M  V30 56 H 38.914536 33.222882 56.671491 0
M  V30 57 H 35.503316 31.910601 61.382076 0
M  V30 58 H 35.544878 33.297806 60.280270 0
M  V30 59 H 37.099676 29.675374 57.844973 0
M  V30 60 H 37.792954 24.395009 58.606369 0
M  V30 61 H 39.129037 24.454814 57.458936 0
M  V30 62 H 38.042294 23.622023 55.300544 0
M  V30 63 H 36.667390 23.116845 56.302280 0
M  V30 64 H 43.034149 36.085601 64.263978 0
M  V30 65 H 42.316134 35.359632 65.708942 0
M  V30 66 H 42.960154 34.328739 64.425007 0
M  V30 67 H 39.994375 29.925144 58.743034 0
M  V30 68 H 38.848940 28.792889 59.396275 0
M  V30 69 H 40.664562 29.621365 56.042816 0
M  V30 70 H 39.765849 28.481285 55.144994 0
M  V30 71 H 35.546297 38.986934 61.151019 0
M  V30 72 H 37.067394 39.487360 61.853502 0
M  V30 73 H 37.067415 38.821087 60.253506 0
M  V30 74 H 40.279597 38.308714 62.392396 0
M  V30 75 H 39.872089 36.258240 61.496964 0
M  V30 76 H 36.827877 34.998105 62.253447 0
M  V30 77 H 36.302994 35.225574 60.633312 0
M  V30 78 H 38.074349 26.607810 59.058051 0
M  V30 79 H 39.315100 31.625537 60.097199 0
M  V30 80 H 37.801902 29.687892 55.595600 0
M  V30 END ATOM
M  V30 BEGIN BOND
M  V30 1 2 6 1
M  V30 2 1 10 5
M  V30 3 1 10 6
M  V30 4 1 11 1
M  V30 5 1 12 9
M  V30 6 1 14 9
M  V30 7 1 16 3
M  V30 8 1 17 2
M  V30 9 1 18 10
M  V30 10 1 18 11
M  V30 11 1 19 1
M  V30 12 1 19 2
M  V30 13 1 20 8
M  V30 14 1 20 15
M  V30 15 1 22 4
M  V30 16 1 22 8
M  V30 17 1 24 3
M  V30 18 2 24 21
M  V30 19 1 24 23
M  V30 20 1 25 8
M  V30 21 1 26 13
M  V30 22 1 26 19
M  V30 23 1 27 13
M  V30 24 1 29 7
M  V30 25 1 29 28
M  V30 26 1 31 2
M  V30 27 1 31 9
M  V30 28 1 31 27
M  V30 29 1 32 7
M  V30 30 1 32 16
M  V30 31 1 32 30
M  V30 32 1 33 13
M  V30 33 1 33 15
M  V30 34 1 33 25
M  V30 35 1 34 5
M  V30 36 1 34 7
M  V30 37 1 2 35 CFG=3
M  V30 38 1 36 3
M  V30 39 1 37 5
M  V30 40 1 38 5
M  V30 41 1 7 39 CFG=3
M  V30 42 1 8 40 CFG=1
M  V30 43 1 41 9
M  V30 44 1 10 42 CFG=1
M  V30 45 1 43 11
M  V30 46 1 44 12
M  V30 47 1 45 12
M  V30 48 1 46 12
M  V30 49 1 13 47 CFG=1
M  V30 50 1 48 14
M  V30 51 1 49 14
M  V30 52 1 50 14
M  V30 53 1 51 15
M  V30 54 1 52 16
M  V30 55 1 53 16
M  V30 56 1 54 17
M  V30 57 1 55 17
M  V30 58 1 56 17
M  V30 59 1 57 18
M  V30 60 1 58 18
M  V30 61 1 19 59 CFG=3
M  V30 62 1 60 20
M  V30 63 1 61 20
M  V30 64 1 62 22
M  V30 65 1 63 22
M  V30 66 1 64 23
M  V30 67 1 65 23
M  V30 68 1 66 23
M  V30 69 1 67 26
M  V30 70 1 68 26
M  V30 71 1 69 27
M  V30 72 1 70 27
M  V30 73 1 71 28
M  V30 74 1 72 28
M  V30 75 1 73 28
M  V30 76 1 74 30
M  V30 77 1 32 75 CFG=3
M  V30 78 1 76 34
M  V30 79 1 77 34
M  V30 80 1 78 15
M  V30 81 1 79 6
M  V30 82 1 31 80 CFG=3
M  V30 END BOND
M  V30 END CTAB
M  END
>  <i_epik_Tot_Q>  (1) 
3

>  <i_epik_Tot_abs_Q>  (1) 
3

>  <i_i_glide_confnum>  (1) 
1683

>  <i_i_glide_lignum>  (1) 
16

>  <i_i_glide_posenum>  (1) 
138

>  <i_i_glide_rotatable_bonds>  (1) 
13

>  <i_lp_mmshare_version>  (1) 
72125

>  <i_m_source_file_index>  (1) 
6

>  <i_f3d_flags>  (1) 
0

>  <num_sample>  (1) 
50

>  <b_lp_Chiralities_Consistent>  (1) 
1

>  <r_epik_Charging_Adjusted_Penalty>  (1) 
0.16301919670703535

>  <r_epik_Ionization_Penalty>  (1) 
0.082191666583868089

>  <r_epik_Ionization_Penalty_Charging>  (1) 
0.082191230012028396

>  <r_epik_Ionization_Penalty_Neutral>  (1) 
4.3657183969654913e-07

>  <r_epik_State_Penalty>  (1) 
0.080827966695006942

>  <r_glide_ring_energy>  (1) 
0

>  <r_i_docking_score>  (1) 
-5.8830357317291018

>  <r_i_glide_ecoul>  (1) 
-6.6657623684613547

>  <r_i_glide_eff_state_penalty>  (1) 
0.080827966695006942

>  <r_i_glide_einternal>  (1) 
28.435522542675052

>  <r_i_glide_emodel>  (1) 
-36.745572996131926

>  <r_i_glide_emodel_strain>  (1) 
7.4361182436881421

>  <r_i_glide_energy>  (1) 
-38.057715352789401

>  <r_i_glide_erotb>  (1) 
0.63983490757673345

>  <r_i_glide_esite>  (1) 
-0.18985468643240205

>  <r_i_glide_evdw>  (1) 
-31.39195298432805

>  <r_i_glide_gscore>  (1) 
-5.9638636984241087

>  <r_i_glide_gscore_strain>  (1) 
0.85902956092203553

>  <r_i_glide_hbond>  (1) 
-0.42152648313806751

>  <r_i_glide_ligand_efficiency>  (1) 
-0.17303046269791475

>  <r_i_glide_ligand_efficiency_ln>  (1) 
-1.2997276067018517

>  <r_i_glide_ligand_efficiency_sa>  (1) 
-0.56055152893666804

>  <r_i_glide_lipo>  (1) 
-3.2449370981407202

>  <r_i_glide_metal>  (1) 
-0

>  <r_i_glide_rewards>  (1) 
-1.036947894726082

>  <r_lp_Energy>  (1) 
52.952152999999996

>  <s_epik_Chemistry_Notes>  (1) 
This compound has an imine and may undergo hydrolysis. This compound has a N-S or N-O group and may undergo hydrolysis at high or low pH.

>  <s_epik_cmdline>  (1) 
J2VwaWtfcHl0aG9uJywgJy1waHQnLCAnMS4wJywgJy1waCcsICc3LjQnLCAnLXRuJywgJzgnLCAnLW1hJywgJzUwMCcsICctaW1hZScsICc8aW5maWxlLm1hZT4nLCAnLW9tYWUnLCAnPG91dGZpbGUubWFlPic=

>  <s_epik_input>  (1) 
RltDSDJdW0NASF0xW0NIMl1bTkhdTihTMSlbQ0BASF0oW0NIMl1OMltDSF0oW0NIM10pW0NIM10pW0NIMl1bQ0BASF0oW0NASF0yW0NIM10pQzM9TltDQEhdKFtDSDJdW05IXTMpW0NIMl1bQ0gyXVtDQEBIXShPW0NIM10pW0NAQEhdKFtPSF0pW0NIMl1bTkhdQyg9TylbQ0gzXQ==

>  <s_glide_docking_method>  (1) 
confgen

>  <s_i_glide_gridfile>  (1) 
gpcr_5ht2c_6bqh_protein_autoprepared_prepared

>  <s_lp_Force_Field>  (1) 
S-OPLS

>  <s_lp_Variant>  (1) 
DiffSBDD_5_num_sample_50-3

>  <s_m_source_file>  (1) 
generated__ligand_DiffSBDD_2026-05-06_prepared.sdf

>  <GenAI_Model>  (1) 
DiffSBDD

>  <Protein>  (1) 
GPCR_5HT2C

$$$$
DiffSBDD_10_num_sample_50
     RDKit          3D

  0  0  0  0  0  0  0  0  0  0999 V3000
M  V30 BEGIN CTAB
M  V30 COUNTS 64 66 0 0 1
M  V30 BEGIN ATOM
M  V30 1 C 38.101002 29.114654 59.451616 0
M  V30 2 C 39.023319 28.059560 58.859867 0
M  V30 3 C 39.324009 29.504275 52.440201 0
M  V30 4 N 38.982153 29.234714 56.694010 0
M  V30 5 O 42.201608 31.122997 63.252499 0 CHG=-1
M  V30 6 O 36.556317 32.766702 61.012806 0
M  V30 7 C 41.521248 35.271507 65.380053 0
M  V30 8 C 38.695369 28.378745 52.995641 0
M  V30 9 C 40.667034 32.601701 65.116760 0
M  V30 10 O 41.067403 30.876509 61.053510 0 CHG=-1
M  V30 11 N 41.125301 35.650164 63.021420 0
M  V30 12 C 38.549373 28.257965 54.392649 0
M  V30 13 C 38.853015 32.163459 62.598589 0
M  V30 14 C 41.103030 34.795625 64.122136 0
M  V30 15 C 38.854128 27.905111 57.332190 0 CFG=1
M  V30 16 C 39.559405 25.426268 57.185699 0
M  V30 17 C 39.058039 29.298619 55.258978 0
M  V30 18 O 42.594030 32.821430 61.453505 0
M  V30 19 C 38.218776 30.360028 57.273846 0
M  V30 20 N 37.353093 31.444207 59.340060 0
M  V30 21 C 39.954937 26.882661 56.896900 0
M  V30 22 P 41.602786 31.864436 62.075884 0
M  V30 23 C 41.081646 32.172833 67.576867 0
M  V30 24 C 41.511563 34.420831 66.499009 0
M  V30 25 C 37.423354 32.014875 60.570411 0
M  V30 26 N 38.533518 31.676695 61.252000 0
M  V30 27 C 39.794133 30.532089 53.271316 0
M  V30 28 O 37.903402 27.161084 54.888708 0
M  V30 29 F 39.467436 29.603324 51.097412 0
M  V30 30 C 39.658042 30.436573 54.668440 0
M  V30 31 C 40.667406 33.451407 63.984523 0
M  V30 32 C 38.348142 30.485561 58.811489 0 CFG=1
M  V30 33 C 40.210209 32.911384 62.616244 0 CFG=2
M  V30 34 C 41.087051 33.086894 66.369030 0
M  V30 35 H 38.267411 29.156585 60.526716 0
M  V30 36 H 37.067393 28.822503 59.284624 0
M  V30 37 H 40.051643 28.331776 59.105459 0
M  V30 38 H 38.830586 27.111796 59.359944 0
M  V30 39 H 41.852593 36.293352 65.486820 0
M  V30 40 H 38.319956 27.601335 52.346199 0
M  V30 41 H 40.342886 31.575851 65.019301 0
M  V30 42 H 41.604449 36.536818 63.088469 0
M  V30 43 H 41.042493 35.261013 62.092055 0
M  V30 44 H 38.079785 32.820223 62.985005 0
M  V30 45 H 38.915298 31.277414 63.231428 0
M  V30 46 H 37.847134 27.522832 57.171114 0
M  V30 47 H 40.267412 24.731894 56.738879 0
M  V30 48 H 39.528698 25.221663 58.253500 0
M  V30 49 H 38.577984 25.196229 56.771114 0
M  V30 50 H 38.501331 31.312158 56.826777 0
M  V30 51 H 37.170159 30.207076 57.012734 0
M  V30 52 H 36.554074 31.656282 58.752380 0
M  V30 53 H 40.202928 26.946651 55.841356 0
M  V30 54 H 40.901982 27.108737 57.388702 0
M  V30 55 H 42.050046 32.197670 68.076488 0
M  V30 56 H 40.319020 32.492785 68.286539 0
M  V30 57 H 40.873193 31.140329 67.292824 0
M  V30 58 H 41.832477 34.792416 67.456812 0
M  V30 59 H 39.219434 31.064442 60.811413 0
M  V30 60 H 40.267464 31.398677 52.835758 0
M  V30 61 H 37.597667 26.570004 54.218467 0
M  V30 62 H 40.037596 31.230295 55.295016 0
M  V30 63 H 39.364876 30.813292 59.024249 0
M  V30 64 H 40.097295 33.716004 61.893925 0
M  V30 END ATOM
M  V30 BEGIN BOND
M  V30 1 1 2 1
M  V30 2 2 8 3
M  V30 3 1 12 8
M  V30 4 1 14 7
M  V30 5 1 14 11
M  V30 6 1 15 2
M  V30 7 1 15 4
M  V30 8 1 17 4
M  V30 9 2 17 12
M  V30 10 1 19 4
M  V30 11 1 21 15
M  V30 12 1 21 16
M  V30 13 1 22 5
M  V30 14 1 22 10
M  V30 15 2 22 18
M  V30 16 2 24 7
M  V30 17 2 25 6
M  V30 18 1 25 20
M  V30 19 1 26 13
M  V30 20 1 26 25
M  V30 21 1 27 3
M  V30 22 1 28 12
M  V30 23 1 29 3
M  V30 24 1 30 17
M  V30 25 2 30 27
M  V30 26 1 31 9
M  V30 27 2 31 14
M  V30 28 1 32 1
M  V30 29 1 32 19
M  V30 30 1 32 20
M  V30 31 1 33 13
M  V30 32 1 33 22
M  V30 33 1 33 31
M  V30 34 2 34 9
M  V30 35 1 34 23
M  V30 36 1 34 24
M  V30 37 1 35 1
M  V30 38 1 36 1
M  V30 39 1 37 2
M  V30 40 1 38 2
M  V30 41 1 39 7
M  V30 42 1 40 8
M  V30 43 1 41 9
M  V30 44 1 42 11
M  V30 45 1 43 11
M  V30 46 1 44 13
M  V30 47 1 45 13
M  V30 48 1 15 46 CFG=1
M  V30 49 1 47 16
M  V30 50 1 48 16
M  V30 51 1 49 16
M  V30 52 1 50 19
M  V30 53 1 51 19
M  V30 54 1 52 20
M  V30 55 1 53 21
M  V30 56 1 54 21
M  V30 57 1 55 23
M  V30 58 1 56 23
M  V30 59 1 57 23
M  V30 60 1 58 24
M  V30 61 1 59 26
M  V30 62 1 60 27
M  V30 63 1 61 28
M  V30 64 1 62 30
M  V30 65 1 32 63 CFG=3
M  V30 66 1 33 64 CFG=3
M  V30 END BOND
M  V30 END CTAB
M  END
>  <i_epik_Tot_Q>  (1) 
-2

>  <i_epik_Tot_abs_Q>  (1) 
2

>  <i_i_glide_confnum>  (1) 
344

>  <i_i_glide_lignum>  (1) 
33

>  <i_i_glide_posenum>  (1) 
230

>  <i_i_glide_rotatable_bonds>  (1) 
10

>  <i_lp_mmshare_version>  (1) 
72125

>  <i_m_source_file_index>  (1) 
11

>  <i_f3d_flags>  (1) 
0

>  <num_sample>  (1) 
50

>  <b_lp_Chiralities_Consistent>  (1) 
1

>  <r_epik_Charging_Adjusted_Penalty>  (1) 
1.1617678045882596

>  <r_epik_Ionization_Penalty>  (1) 
0.4473271138811577

>  <r_epik_Ionization_Penalty_Charging>  (1) 
0.41559672628269745

>  <r_epik_Ionization_Penalty_Neutral>  (1) 
0.031730387598460232

>  <r_epik_State_Penalty>  (1) 
0.74617107830556217

>  <r_glide_ring_energy>  (1) 
0

>  <r_i_docking_score>  (1) 
-5.878792152078903

>  <r_i_glide_ecoul>  (1) 
-6.4695445243685956

>  <r_i_glide_eff_state_penalty>  (1) 
0.74617107830556217

>  <r_i_glide_einternal>  (1) 
15.923099106568763

>  <r_i_glide_emodel>  (1) 
-56.335453457501046

>  <r_i_glide_emodel_strain>  (1) 
2.1888430496136806

>  <r_i_glide_energy>  (1) 
-45.552864677544683

>  <r_i_glide_erotb>  (1) 
0.58773720055558498

>  <r_i_glide_esite>  (1) 
-0.088352789966390399

>  <r_i_glide_evdw>  (1) 
-39.083320153176089

>  <r_i_glide_gscore>  (1) 
-6.6249632303844654

>  <r_i_glide_gscore_strain>  (1) 
0

>  <r_i_glide_hbond>  (1) 
-0.20978996220375862

>  <r_i_glide_ligand_efficiency>  (1) 
-0.17290565153173243

>  <r_i_glide_ligand_efficiency_ln>  (1) 
-1.2987900809287454

>  <r_i_glide_ligand_efficiency_sa>  (1) 
-0.56014718920977269

>  <r_i_glide_lipo>  (1) 
-3.8791428614953158

>  <r_i_glide_metal>  (1) 
-0

>  <r_i_glide_rewards>  (1) 
-0.11081713096049384

>  <r_lp_Energy>  (1) 
49.585073000000001

>  <r_lp_tautomer_probability>  (1) 
0.99999999999736477

>  <s_epik_cmdline>  (1) 
J2VwaWtfcHl0aG9uJywgJy1waHQnLCAnMS4wJywgJy1waCcsICc3LjQnLCAnLXRuJywgJzgnLCAnLW1hJywgJzUwMCcsICctaW1hZScsICc8aW5maWxlLm1hZT4nLCAnLW9tYWUnLCAnPG91dGZpbGUubWFlPic=

>  <s_epik_input>  (1) 
RmMxW2NIXWMoW09IXSljKFtjSF1bY0hdMSlOMltDQEBIXShbQ0gyXVtDSDNdKVtDSDJdW0NIMl1bQ0BASF0oW0NIMl0yKVtOSF1DKD1PKVtOSF1bQ0gyXVtDQEhdKFAoPU8pKFtPSF0pW09IXSljM1tjSF1jKFtDSDNdKVtjSF1bY0hdYzNbTkgyXQ==

>  <s_glide_docking_method>  (1) 
confgen

>  <s_i_glide_gridfile>  (1) 
gpcr_5ht2c_6bqh_protein_autoprepared_prepared

>  <s_lp_Force_Field>  (1) 
S-OPLS

>  <s_lp_Variant>  (1) 
DiffSBDD_10_num_sample_50-2

>  <s_m_source_file>  (1) 
generated__ligand_DiffSBDD_2026-05-06_prepared.sdf

>  <GenAI_Model>  (1) 
DiffSBDD

>  <Protein>  (1) 
GPCR_5HT2C

$$$$
DiffSBDD_7_num_sample_50
     RDKit          3D

  0  0  0  0  0  0  0  0  0  0999 V3000
M  V30 BEGIN CTAB
M  V30 COUNTS 93 96 0 0 1
M  V30 BEGIN ATOM
M  V30 1 C 37.966139 25.519396 56.181538 0 CFG=1
M  V30 2 O 36.745974 31.755714 62.015744 0
M  V30 3 C 38.781427 28.795993 54.999684 0
M  V30 4 C 39.866375 33.555513 59.596695 0
M  V30 5 O 37.875315 23.864169 57.875826 0 CHG=-1
M  V30 6 N 38.618589 37.079667 61.915571 0
M  V30 7 S 41.547498 32.853275 63.428778 0
M  V30 8 N 43.352224 31.774263 66.782432 0
M  V30 9 N 38.672615 32.784031 59.231497 0 CFG=2 CHG=1
M  V30 10 S 41.392854 33.467169 66.496371 0
M  V30 11 C 37.899026 38.111944 61.450596 0
M  V30 12 C 39.863994 30.133908 52.968243 0
M  V30 13 C 35.545507 31.599263 61.251719 0
M  V30 14 C 37.730129 32.614543 61.474702 0 CFG=1
M  V30 15 C 41.606687 32.208059 65.182804 0 CFG=2
M  V30 16 N 37.382852 39.062356 61.052883 0
M  V30 17 O 40.104294 34.832446 61.613152 0
M  V30 18 C 38.929446 30.002620 55.868284 0
M  V30 19 O 45.013247 29.430728 66.415488 0
M  V30 20 C 37.216767 27.501551 53.251105 0
M  V30 21 C 38.746669 33.104420 62.551773 0 CFG=2
M  V30 22 C 44.314582 29.212401 65.192345 0 CFG=1
M  V30 23 O 39.850201 24.789093 57.406397 0
M  V30 24 C 42.948499 31.442417 65.431679 0 CFG=2
M  V30 25 O 42.943048 33.138953 68.617205 0
M  V30 26 C 39.069535 34.664750 62.559247 0 CFG=2
M  V30 27 C 38.240624 26.966340 56.502007 0
M  V30 28 C 38.621288 24.648986 57.242551 0
M  V30 29 C 37.958420 29.041735 57.953683 0
M  V30 30 C 37.785163 30.093916 56.852655 0 CFG=1
M  V30 31 C 37.684966 31.507994 57.413759 0
M  V30 32 C 38.352787 31.858261 60.319455 0
M  V30 33 C 37.695971 27.614366 57.556481 0
M  V30 34 C 42.918237 29.908333 65.228539 0
M  V30 35 C 36.456661 25.222281 56.178981 0
M  V30 36 C 37.838338 28.737460 53.818342 0 CFG=2
M  V30 37 C 39.695355 34.895701 60.253114 0
M  V30 38 C 38.036895 35.808597 62.240205 0
M  V30 39 C 38.941890 31.987953 58.029459 0
M  V30 40 O 42.545469 32.084873 62.562523 0
M  V30 41 C 39.925263 32.155517 62.929281 0
M  V30 42 C 45.200718 29.629556 63.994277 0
M  V30 43 C 39.319208 28.861591 53.584391 0 CFG=2
M  V30 44 C 42.700474 32.758846 67.473790 0
M  V30 45 O 39.760154 30.936788 62.908587 0
M  V30 46 O 36.815876 35.640883 62.201009 0
M  V30 47 O 39.129238 27.560844 55.628122 0
M  V30 48 H 38.399728 25.291920 55.211900 0
M  V30 49 H 40.266521 33.862614 58.650628 0
M  V30 50 H 40.569027 32.945070 60.172680 0
M  V30 51 H 39.621473 37.191077 61.957668 0
M  V30 52 H 44.108963 31.280672 67.237692 0
M  V30 53 H 39.080851 30.888604 52.879360 0
M  V30 54 H 40.668179 30.538115 53.579518 0
M  V30 55 H 40.252703 29.921048 51.974314 0
M  V30 56 H 34.714934 31.360222 61.914429 0
M  V30 57 H 35.259676 32.489124 60.683875 0
M  V30 58 H 35.642494 30.755843 60.568871 0
M  V30 59 H 37.197076 33.481607 61.090686 0
M  V30 60 H 40.785996 31.505537 65.310976 0
M  V30 61 H 38.920827 30.899255 55.249773 0
M  V30 62 H 39.900842 29.957885 56.361141 0
M  V30 63 H 45.947643 29.278097 66.297375 0
M  V30 64 H 37.844328 26.622482 53.401939 0
M  V30 65 H 36.268072 27.339940 53.738995 0
M  V30 66 H 37.064074 27.655967 52.185225 0
M  V30 67 H 38.266887 32.824402 63.453467 0
M  V30 68 H 44.141489 28.134524 65.094214 0
M  V30 69 H 43.722911 31.815381 64.788030 0
M  V30 70 H 39.494122 34.939071 63.514634 0
M  V30 71 H 38.918639 29.080188 58.477065 0
M  V30 72 H 37.205360 29.240403 58.718628 0
M  V30 73 H 36.841382 29.918201 56.334811 0
M  V30 74 H 36.915516 31.517652 58.184284 0
M  V30 75 H 37.466632 32.230229 56.631931 0
M  V30 76 H 37.676675 31.077647 60.000742 0
M  V30 77 H 39.239085 31.275540 60.569407 0
M  V30 78 H 37.023532 27.070058 58.199584 0
M  V30 79 H 42.363143 29.676284 64.311447 0
M  V30 80 H 42.341151 29.463297 66.042280 0
M  V30 81 H 36.009917 25.186168 57.174810 0
M  V30 82 H 35.943760 26.022885 55.698720 0
M  V30 83 H 36.227690 24.313695 55.623056 0
M  V30 84 H 37.216346 29.620414 53.688017 0
M  V30 85 H 38.709894 35.290862 59.971254 0
M  V30 86 H 40.417911 35.602146 59.855055 0
M  V30 87 H 39.520000 32.503620 57.267407 0
M  V30 88 H 39.466511 31.101945 58.337498 0
M  V30 89 H 44.615116 29.994804 63.152891 0
M  V30 90 H 45.901928 30.421567 64.246508 0
M  V30 91 H 45.800431 28.786098 63.669395 0
M  V30 92 H 39.792468 27.954916 53.211156 0
M  V30 93 H 37.894653 33.394439 59.007298 0
M  V30 END ATOM
M  V30 BEGIN BOND
M  V30 1 1 9 4
M  V30 2 1 11 6
M  V30 3 1 13 2
M  V30 4 1 14 2
M  V30 5 1 15 7
M  V30 6 1 15 10
M  V30 7 3 16 11
M  V30 8 1 18 3
M  V30 9 1 21 14
M  V30 10 1 22 19
M  V30 11 1 24 8
M  V30 12 1 24 15
M  V30 13 1 26 17
M  V30 14 1 26 21
M  V30 15 1 27 1
M  V30 16 1 28 1
M  V30 17 1 28 5
M  V30 18 2 28 23
M  V30 19 1 30 18
M  V30 20 1 30 29
M  V30 21 1 31 30
M  V30 22 1 32 9
M  V30 23 1 32 14
M  V30 24 2 33 27
M  V30 25 1 33 29
M  V30 26 1 34 22
M  V30 27 1 34 24
M  V30 28 1 35 1
M  V30 29 1 36 3
M  V30 30 1 36 20
M  V30 31 1 37 4
M  V30 32 1 37 17
M  V30 33 1 38 6
M  V30 34 1 38 26
M  V30 35 1 39 9
M  V30 36 1 39 31
M  V30 37 2 40 7
M  V30 38 1 7 41 CFG=3
M  V30 39 1 41 21
M  V30 40 1 42 22
M  V30 41 1 43 3
M  V30 42 1 43 12
M  V30 43 1 43 36
M  V30 44 1 44 8
M  V30 45 1 44 10
M  V30 46 2 44 25
M  V30 47 2 45 41
M  V30 48 2 46 38
M  V30 49 1 47 3
M  V30 50 1 47 27
M  V30 51 1 1 48 CFG=3
M  V30 52 1 49 4
M  V30 53 1 50 4
M  V30 54 1 51 6
M  V30 55 1 52 8
M  V30 56 1 53 12
M  V30 57 1 54 12
M  V30 58 1 55 12
M  V30 59 1 56 13
M  V30 60 1 57 13
M  V30 61 1 58 13
M  V30 62 1 14 59 CFG=3
M  V30 63 1 15 60 CFG=3
M  V30 64 1 61 18
M  V30 65 1 62 18
M  V30 66 1 63 19
M  V30 67 1 64 20
M  V30 68 1 65 20
M  V30 69 1 66 20
M  V30 70 1 21 67 CFG=1
M  V30 71 1 22 68 CFG=3
M  V30 72 1 24 69 CFG=3
M  V30 73 1 26 70 CFG=1
M  V30 74 1 71 29
M  V30 75 1 72 29
M  V30 76 1 30 73 CFG=3
M  V30 77 1 74 31
M  V30 78 1 75 31
M  V30 79 1 76 32
M  V30 80 1 77 32
M  V30 81 1 78 33
M  V30 82 1 79 34
M  V30 83 1 80 34
M  V30 84 1 81 35
M  V30 85 1 82 35
M  V30 86 1 83 35
M  V30 87 1 36 84 CFG=1
M  V30 88 1 85 37
M  V30 89 1 86 37
M  V30 90 1 87 39
M  V30 91 1 88 39
M  V30 92 1 89 42
M  V30 93 1 90 42
M  V30 94 1 91 42
M  V30 95 1 43 92 CFG=3
M  V30 96 1 9 93 CFG=3
M  V30 END BOND
M  V30 END CTAB
M  END
>  <i_epik_Tot_Q>  (1) 
0

>  <i_epik_Tot_abs_Q>  (1) 
2

>  <i_i_glide_confnum>  (1) 
1112

>  <i_i_glide_lignum>  (1) 
28

>  <i_i_glide_posenum>  (1) 
31

>  <i_i_glide_rotatable_bonds>  (1) 
14

>  <i_lp_mmshare_version>  (1) 
72125

>  <i_m_source_file_index>  (1) 
8

>  <i_f3d_flags>  (1) 
0

>  <num_sample>  (1) 
50

>  <b_lp_Chiralities_Consistent>  (1) 
1

>  <r_epik_Charging_Adjusted_Penalty>  (1) 
2.2678334573304797

>  <r_epik_Ionization_Penalty>  (1) 
1.1498882506810455

>  <r_epik_Ionization_Penalty_Charging>  (1) 
1.1031410554290029

>  <r_epik_Ionization_Penalty_Neutral>  (1) 
0.046747195252042517

>  <r_epik_State_Penalty>  (1) 
1.164692401901477

>  <r_glide_ring_energy>  (1) 
0

>  <r_i_docking_score>  (1) 
-5.8735492128168802

>  <r_i_glide_ecoul>  (1) 
-7.2776462110439635

>  <r_i_glide_eff_state_penalty>  (1) 
1.164692401901477

>  <r_i_glide_einternal>  (1) 
12.152082967379926

>  <r_i_glide_emodel>  (1) 
-16.81225971848226

>  <r_i_glide_emodel_strain>  (1) 
6.1944275253853647

>  <r_i_glide_energy>  (1) 
-19.220276586123354

>  <r_i_glide_erotb>  (1) 
0.2643022598508753

>  <r_i_glide_esite>  (1) 
0

>  <r_i_glide_evdw>  (1) 
-11.942630375079393

>  <r_i_glide_gscore>  (1) 
-7.0382416147183573

>  <r_i_glide_gscore_strain>  (1) 
0.54860688134634117

>  <r_i_glide_hbond>  (1) 
-0.61021216133734169

>  <r_i_glide_ligand_efficiency>  (1) 
-0.1249691321875932

>  <r_i_glide_ligand_efficiency_ln>  (1) 
-1.2110042199016773

>  <r_i_glide_ligand_efficiency_sa>  (1) 
-0.45099186345088643

>  <r_i_glide_lipo>  (1) 
-3.4453411979042321

>  <r_i_glide_metal>  (1) 
-0

>  <r_i_glide_rewards>  (1) 
-2.1068189462634357

>  <r_lp_Energy>  (1) 
32.034796

>  <s_epik_Chemistry_Notes>  (1) 
This compound contains an acetal/aminal-like group ( X-CH(R)-Y where X, Y are N, S, or O) that may be acid/base labile, releasing an aldehyde.

>  <s_epik_cmdline>  (1) 
J2VwaWtfcHl0aG9uJywgJy1waHQnLCAnMS4wJywgJy1waCcsICc3LjQnLCAnLXRuJywgJzgnLCAnLW1hJywgJzUwMCcsICctaW1hZScsICc8aW5maWxlLm1hZT4nLCAnLW9tYWUnLCAnPG91dGZpbGUubWFlPic=

>  <s_epik_input>  (1) 
W09IXUMoPU8pW0NAQEhdKFtDSDNdKUMoTzEpPVtDSF1bQ0gyXVtDQEhdKFtDSDJdW0NAXTEyW0NASF0oW0NIM10pW0NAQEhdMltDSDNdKVtDSDJdW0NIMl1OM1tDSDJdW0NIMl1PW0NAQEhdKEMoPU8pW05IXUMjTilbQ0BASF0oW0NAQEhdKFtDSDJdMylPW0NIM10pQyg9TylTKD1PKVtDQEBIXTRTQyg9TylbTkhdW0NASF00W0NIMl1bQ0BIXShbT0hdKVtDSDNd

>  <s_glide_docking_method>  (1) 
confgen

>  <s_i_glide_gridfile>  (1) 
gpcr_5ht2c_6bqh_protein_autoprepared_prepared

>  <s_lp_Force_Field>  (1) 
S-OPLS

>  <s_lp_Variant>  (1) 
DiffSBDD_7_num_sample_50-6

>  <s_m_source_file>  (1) 
generated__ligand_DiffSBDD_2026-05-06_prepared.sdf

>  <GenAI_Model>  (1) 
DiffSBDD

>  <Protein>  (1) 
GPCR_5HT2C

$$$$
DiffSBDD_30_num_sample_50
     RDKit          3D

  0  0  0  0  0  0  0  0  0  0999 V3000
M  V30 BEGIN CTAB
M  V30 COUNTS 68 67 0 0 1
M  V30 BEGIN ATOM
M  V30 1 C 39.007362 29.515395 53.975066 0
M  V30 2 C 37.333888 33.328959 60.336323 0 CFG=2
M  V30 3 C 36.834214 34.616368 59.643796 0
M  V30 4 O 38.332600 37.992108 61.453498 0
M  V30 5 C 39.098014 37.221425 63.603984 0
M  V30 6 C 39.311893 32.137398 61.534544 0
M  V30 7 C 38.144686 26.085209 54.367848 0
M  V30 8 C 39.362711 26.875547 51.083501 0
M  V30 9 C 38.010357 32.135001 58.144030 0
M  V30 10 C 38.786390 33.455104 60.903780 0 CFG=2
M  V30 11 C 38.786521 28.219217 53.164275 0 CFG=1
M  V30 12 C 38.860048 34.610303 61.929207 0
M  V30 13 C 39.604509 28.180347 51.837819 0 CFG=2
M  V30 14 C 38.544754 30.869762 56.077845 0
M  V30 15 C 40.803557 32.161064 61.911433 0
M  V30 16 C 37.115457 32.125826 59.397040 0
M  V30 17 C 38.925990 37.122225 62.089878 0
M  V30 18 C 39.518362 35.895055 61.396057 0 CFG=1
M  V30 19 C 38.255374 29.569568 55.313039 0
M  V30 20 C 39.303219 29.348007 50.887668 0
M  V30 21 O 38.312076 29.787595 58.178203 0 CHG=-1
M  V30 22 C 40.250156 30.555202 50.999582 0
M  V30 23 N 37.867404 30.821208 57.424806 0 CFG=1 CHG=1
M  V30 24 C 41.047956 35.883030 61.530039 0
M  V30 25 C 39.071829 26.993978 54.025664 0
M  V30 26 H 40.071906 29.658292 54.159593 0
M  V30 27 H 38.677116 30.371703 53.389881 0
M  V30 28 H 36.673044 33.158431 61.187815 0
M  V30 29 H 37.467405 34.896001 58.803265 0
M  V30 30 H 35.826144 34.482095 59.250738 0
M  V30 31 H 36.793566 35.467035 60.322657 0
M  V30 32 H 39.458004 36.285118 64.028429 0
M  V30 33 H 39.819881 38.001448 63.847928 0
M  V30 34 H 38.146750 37.465133 64.075986 0
M  V30 35 H 38.712680 31.878335 62.408574 0
M  V30 36 H 39.199009 31.310558 60.835474 0
M  V30 37 H 37.120384 26.181896 54.038062 0
M  V30 38 H 38.400682 25.233998 54.981802 0
M  V30 39 H 38.327518 26.787847 50.754119 0
M  V30 40 H 40.011004 26.821446 50.216618 0
M  V30 41 H 39.614396 26.021430 51.698818 0
M  V30 42 H 39.067403 32.246867 58.372414 0
M  V30 43 H 37.704793 32.919012 57.450244 0
M  V30 44 H 39.453671 33.694223 60.075396 0
M  V30 45 H 37.727554 28.181649 52.900034 0
M  V30 46 H 37.848052 34.841387 62.253502 0
M  V30 47 H 39.367386 34.302630 62.842396 0
M  V30 48 H 40.667405 28.202651 52.045576 0
M  V30 49 H 39.610594 31.012175 56.261677 0
M  V30 50 H 38.148631 31.735558 55.545526 0
M  V30 51 H 41.120364 31.180156 62.266768 0
M  V30 52 H 41.423787 32.416916 61.053483 0
M  V30 53 H 41.022656 32.873432 62.705926 0
M  V30 54 H 36.073710 32.105877 59.074870 0
M  V30 55 H 37.239217 31.199256 59.955131 0
M  V30 56 H 39.268378 35.994694 60.339378 0
M  V30 57 H 37.182501 29.475379 55.140547 0
M  V30 58 H 38.546196 28.720898 55.931566 0
M  V30 59 H 39.353964 29.011573 49.852201 0
M  V30 60 H 38.267484 29.621429 51.053478 0
M  V30 61 H 39.947014 31.340220 50.306795 0
M  V30 62 H 40.270022 30.994318 51.994689 0
M  V30 63 H 41.272456 30.275306 50.742894 0
M  V30 64 H 41.467400 36.767583 61.053591 0
M  V30 65 H 41.372398 35.874795 62.571580 0
M  V30 66 H 41.482798 35.007493 61.053501 0
M  V30 67 H 40.088365 26.870139 54.369801 0
M  V30 68 H 36.843161 30.753264 57.212748 0
M  V30 END ATOM
M  V30 BEGIN BOND
M  V30 1 1 3 2
M  V30 2 1 10 2
M  V30 3 1 10 6
M  V30 4 1 11 1
M  V30 5 1 12 10
M  V30 6 1 13 8
M  V30 7 1 13 11
M  V30 8 1 15 6
M  V30 9 1 16 2
M  V30 10 1 16 9
M  V30 11 2 17 4
M  V30 12 1 17 5
M  V30 13 1 18 12
M  V30 14 1 18 17
M  V30 15 1 19 1
M  V30 16 1 19 14
M  V30 17 1 20 13
M  V30 18 1 22 20
M  V30 19 1 23 9
M  V30 20 1 23 14
M  V30 21 1 23 21
M  V30 22 1 24 18
M  V30 23 2 25 7
M  V30 24 1 25 11
M  V30 25 1 26 1
M  V30 26 1 27 1
M  V30 27 1 2 28 CFG=1
M  V30 28 1 29 3
M  V30 29 1 30 3
M  V30 30 1 31 3
M  V30 31 1 32 5
M  V30 32 1 33 5
M  V30 33 1 34 5
M  V30 34 1 35 6
M  V30 35 1 36 6
M  V30 36 1 37 7
M  V30 37 1 38 7
M  V30 38 1 39 8
M  V30 39 1 40 8
M  V30 40 1 41 8
M  V30 41 1 42 9
M  V30 42 1 43 9
M  V30 43 1 10 44 CFG=3
M  V30 44 1 11 45 CFG=3
M  V30 45 1 46 12
M  V30 46 1 47 12
M  V30 47 1 13 48 CFG=1
M  V30 48 1 49 14
M  V30 49 1 50 14
M  V30 50 1 51 15
M  V30 51 1 52 15
M  V30 52 1 53 15
M  V30 53 1 54 16
M  V30 54 1 55 16
M  V30 55 1 18 56 CFG=3
M  V30 56 1 57 19
M  V30 57 1 58 19
M  V30 58 1 59 20
M  V30 59 1 60 20
M  V30 60 1 61 22
M  V30 61 1 62 22
M  V30 62 1 63 22
M  V30 63 1 64 24
M  V30 64 1 65 24
M  V30 65 1 66 24
M  V30 66 1 67 25
M  V30 67 1 23 68 CFG=3
M  V30 END BOND
M  V30 END CTAB
M  END
>  <i_epik_Tot_Q>  (1) 
0

>  <i_epik_Tot_abs_Q>  (1) 
2

>  <i_i_glide_confnum>  (1) 
162

>  <i_i_glide_lignum>  (1) 
80

>  <i_i_glide_posenum>  (1) 
242

>  <i_i_glide_rotatable_bonds>  (1) 
15

>  <i_lp_mmshare_version>  (1) 
72125

>  <i_m_source_file_index>  (1) 
31

>  <i_f3d_flags>  (1) 
0

>  <num_sample>  (1) 
50

>  <b_lp_Chiralities_Consistent>  (1) 
1

>  <r_epik_Charging_Adjusted_Penalty>  (1) 
0.52251968911758562

>  <r_epik_Ionization_Penalty>  (1) 
0.019979657236955634

>  <r_epik_Ionization_Penalty_Charging>  (1) 
0.019979657236557934

>  <r_epik_Ionization_Penalty_Neutral>  (1) 
3.9770064437045143e-13

>  <r_epik_State_Penalty>  (1) 
0.50254003188102769

>  <r_glide_ring_energy>  (1) 
0

>  <r_i_docking_score>  (1) 
-5.8735177481447289

>  <r_i_glide_ecoul>  (1) 
-4.3316248418832695

>  <r_i_glide_eff_state_penalty>  (1) 
0.50254003188102769

>  <r_i_glide_einternal>  (1) 
6.3115378716260828

>  <r_i_glide_emodel>  (1) 
-52.061457669962984

>  <r_i_glide_emodel_strain>  (1) 
0

>  <r_i_glide_energy>  (1) 
-38.83991473453095

>  <r_i_glide_erotb>  (1) 
1.833058027080513

>  <r_i_glide_esite>  (1) 
-0.10000000000000001

>  <r_i_glide_evdw>  (1) 
-34.508289892647682

>  <r_i_glide_gscore>  (1) 
-6.3760577800257563

>  <r_i_glide_gscore_strain>  (1) 
0

>  <r_i_glide_hbond>  (1) 
-0.13393954730124613

>  <r_i_glide_ligand_efficiency>  (1) 
-0.23494070992578917

>  <r_i_glide_ligand_efficiency_ln>  (1) 
-1.3921997214336641

>  <r_i_glide_ligand_efficiency_sa>  (1) 
-0.68697080325133109

>  <r_i_glide_lipo>  (1) 
-3.6231095699397704

>  <r_i_glide_metal>  (1) 
-0

>  <r_i_glide_rewards>  (1) 
-1.976908468950378

>  <r_lp_Energy>  (1) 
19.406434000000001

>  <s_epik_cmdline>  (1) 
J2VwaWtfcHl0aG9uJywgJy1waHQnLCAnMS4wJywgJy1waCcsICc3LjQnLCAnLXRuJywgJzgnLCAnLW1hJywgJzUwMCcsICctaW1hZScsICc8aW5maWxlLm1hZT4nLCAnLW9tYWUnLCAnPG91dGZpbGUubWFlPic=

>  <s_epik_input>  (1) 
W0NIM11bQ0gyXVtDQEhdKFtDSDNdKVtDQEBIXShbQ0hdPVtDSDJdKVtDSDJdW0NIMl1bQ0gyXU4oW09IXSlbQ0gyXVtDSDJdW0NASF0oW0NIM10pW0NASF0oW0NIMl1bQ0gzXSlbQ0gyXVtDQEhdKFtDSDNdKUMoPU8pW0NIM10=

>  <s_glide_docking_method>  (1) 
confgen

>  <s_i_glide_gridfile>  (1) 
gpcr_5ht2c_6bqh_protein_autoprepared_prepared

>  <s_lp_Force_Field>  (1) 
S-OPLS

>  <s_lp_Variant>  (1) 
DiffSBDD_30_num_sample_50-4

>  <s_m_source_file>  (1) 
generated__ligand_DiffSBDD_2026-05-06_prepared.sdf

>  <GenAI_Model>  (1) 
DiffSBDD

>  <Protein>  (1) 
GPCR_5HT2C

$$$$
DiffSBDD_48_num_sample_50
     RDKit          3D

  0  0  0  0  0  0  0  0  0  0999 V3000
M  V30 BEGIN CTAB
M  V30 COUNTS 84 87 0 0 1
M  V30 BEGIN ATOM
M  V30 1 N 38.982118 29.371695 54.895763 0
M  V30 2 C 38.380350 37.136390 62.325148 0
M  V30 3 O 41.553883 36.021489 62.697908 0
M  V30 4 C 34.687795 37.813365 63.542385 0
M  V30 5 S 36.235116 34.020288 58.979017 0
M  V30 6 C 38.304962 34.333527 60.535060 0 CFG=2
M  V30 7 C 38.469149 30.756578 61.933945 0
M  V30 8 C 39.206159 35.823179 62.403093 0 CFG=1
M  V30 9 C 37.152273 35.161126 59.972305 0
M  V30 10 C 37.786391 29.764861 59.853368 0
M  V30 11 C 38.387292 33.671135 57.170746 0
M  V30 12 C 37.454994 28.186763 52.566719 0
M  V30 13 C 36.956265 29.411354 58.611199 0
M  V30 14 C 39.416339 28.416218 55.807563 0
M  V30 15 C 39.499699 35.162831 61.037567 0
M  V30 16 C 40.676642 29.515859 61.978244 0
M  V30 17 C 37.099458 37.090204 63.188897 0
M  V30 18 C 38.742464 28.478954 57.135249 0
M  V30 19 C 35.991261 38.084317 62.784210 0
M  V30 20 N 37.293889 30.151603 56.356598 0
M  V30 21 C 38.097063 32.951902 55.861951 0
M  V30 22 C 38.984924 28.232485 52.587217 0
M  V30 23 C 37.759311 33.155352 58.473348 0 CFG=1
M  V30 24 O 40.267378 27.580657 55.517602 0
M  V30 25 C 38.094900 30.487817 55.239473 0 CFG=1
M  V30 26 C 39.845647 28.313592 59.390548 0
M  V30 27 C 39.206139 27.540661 58.230416 0
M  V30 28 N 38.756830 33.391203 59.517149 0
M  V30 29 C 39.466436 29.386517 53.504100 0
M  V30 30 C 38.969982 29.312375 60.163184 0
M  V30 31 C 40.450450 35.971883 63.278883 0
M  V30 32 N 39.417826 29.815010 61.314115 0
M  V30 33 C 39.566494 26.825286 52.821647 0
M  V30 34 C 37.211283 30.745323 60.873357 0
M  V30 35 C 38.955456 31.712365 55.598901 0
M  V30 36 C 37.721867 29.321786 57.319107 0
M  V30 37 O 40.268297 36.021476 64.514026 0 CHG=-1
M  V30 38 H 39.003508 37.981998 62.616215 0
M  V30 39 H 38.112712 37.338777 61.289725 0
M  V30 40 H 33.873146 38.421433 63.151115 0
M  V30 41 H 34.383953 36.771636 63.453495 0
M  V30 42 H 34.798398 38.031025 64.605851 0
M  V30 43 H 37.910883 33.727718 61.351117 0
M  V30 44 H 38.918074 31.746304 62.016371 0
M  V30 45 H 38.186825 30.416885 62.930298 0
M  V30 46 H 38.667439 35.078535 62.969135 0
M  V30 47 H 37.487890 35.976988 59.333439 0
M  V30 48 H 36.513971 35.578548 60.749972 0
M  V30 49 H 39.466364 33.621425 57.274926 0
M  V30 50 H 38.081776 34.705452 57.036513 0
M  V30 51 H 36.998421 28.365298 53.539437 0
M  V30 52 H 37.067481 28.907405 51.858324 0
M  V30 53 H 37.098229 27.221417 52.253443 0
M  V30 54 H 36.188467 30.181028 58.521023 0
M  V30 55 H 36.400932 28.482741 58.653534 0
M  V30 56 H 40.353614 34.489190 61.136198 0
M  V30 57 H 39.793469 35.911074 60.302974 0
M  V30 58 H 41.456347 30.177096 61.607492 0
M  V30 59 H 40.581273 29.689226 63.051337 0
M  V30 60 H 40.992055 28.481256 61.846270 0
M  V30 61 H 36.665214 36.094354 63.100712 0
M  V30 62 H 37.360352 37.207385 64.242468 0
M  V30 63 H 36.513396 30.790950 56.572926 0
M  V30 64 H 36.267417 39.120392 62.966551 0
M  V30 65 H 35.808888 38.017880 61.711758 0
M  V30 66 H 38.220965 33.653788 55.038922 0
M  V30 67 H 37.067411 32.671785 55.850744 0
M  V30 68 H 39.305363 28.499860 51.578346 0
M  V30 69 H 37.568217 32.091214 58.369809 0
M  V30 70 H 37.418792 30.716289 54.412778 0
M  V30 71 H 40.216292 27.569354 60.092450 0
M  V30 72 H 40.721847 28.851515 59.024650 0
M  V30 73 H 38.350458 26.967824 58.591571 0
M  V30 74 H 39.915049 26.803812 57.851252 0
M  V30 75 H 39.602017 33.732465 59.085387 0
M  V30 76 H 39.067601 30.284748 53.032309 0
M  V30 77 H 40.517085 29.622164 53.462567 0
M  V30 78 H 39.047383 26.306350 53.627672 0
M  V30 79 H 39.464218 26.228898 51.916678 0
M  V30 80 H 40.629041 26.821329 53.053624 0
M  V30 81 H 37.014691 31.722966 60.460312 0
M  V30 82 H 36.277419 30.421479 61.319023 0
M  V30 83 H 39.574098 31.480691 56.467549 0
M  V30 84 H 39.651786 31.933872 54.789760 0
M  V30 END ATOM
M  V30 BEGIN BOND
M  V30 1 1 8 2
M  V30 2 1 9 5
M  V30 3 1 9 6
M  V30 4 1 13 10
M  V30 5 1 14 1
M  V30 6 1 15 6
M  V30 7 1 15 8
M  V30 8 1 17 2
M  V30 9 1 18 14
M  V30 10 1 19 4
M  V30 11 1 19 17
M  V30 12 1 21 11
M  V30 13 1 22 12
M  V30 14 1 23 5
M  V30 15 1 23 11
M  V30 16 2 24 14
M  V30 17 1 25 1
M  V30 18 1 25 20
M  V30 19 1 27 18
M  V30 20 1 27 26
M  V30 21 1 28 6
M  V30 22 1 28 23
M  V30 23 1 29 1
M  V30 24 1 29 22
M  V30 25 2 30 10
M  V30 26 1 30 26
M  V30 27 2 31 3
M  V30 28 1 31 8
M  V30 29 1 32 7
M  V30 30 1 32 16
M  V30 31 1 32 30
M  V30 32 1 33 22
M  V30 33 1 34 7
M  V30 34 1 34 10
M  V30 35 1 35 21
M  V30 36 1 35 25
M  V30 37 1 36 13
M  V30 38 2 36 18
M  V30 39 1 36 20
M  V30 40 1 37 31
M  V30 41 1 38 2
M  V30 42 1 39 2
M  V30 43 1 40 4
M  V30 44 1 41 4
M  V30 45 1 42 4
M  V30 46 1 6 43 CFG=1
M  V30 47 1 44 7
M  V30 48 1 45 7
M  V30 49 1 8 46 CFG=1
M  V30 50 1 47 9
M  V30 51 1 48 9
M  V30 52 1 49 11
M  V30 53 1 50 11
M  V30 54 1 51 12
M  V30 55 1 52 12
M  V30 56 1 53 12
M  V30 57 1 54 13
M  V30 58 1 55 13
M  V30 59 1 56 15
M  V30 60 1 57 15
M  V30 61 1 58 16
M  V30 62 1 59 16
M  V30 63 1 60 16
M  V30 64 1 61 17
M  V30 65 1 62 17
M  V30 66 1 63 20
M  V30 67 1 64 19
M  V30 68 1 65 19
M  V30 69 1 66 21
M  V30 70 1 67 21
M  V30 71 1 68 22
M  V30 72 1 23 69 CFG=3
M  V30 73 1 25 70 CFG=3
M  V30 74 1 71 26
M  V30 75 1 72 26
M  V30 76 1 73 27
M  V30 77 1 74 27
M  V30 78 1 75 28
M  V30 79 1 76 29
M  V30 80 1 77 29
M  V30 81 1 78 33
M  V30 82 1 79 33
M  V30 83 1 80 33
M  V30 84 1 81 34
M  V30 85 1 82 34
M  V30 86 1 83 35
M  V30 87 1 84 35
M  V30 END BOND
M  V30 END CTAB
M  END
>  <i_epik_Tot_Q>  (1) 
-1

>  <i_epik_Tot_abs_Q>  (1) 
1

>  <i_i_glide_confnum>  (1) 
672

>  <i_i_glide_lignum>  (1) 
109

>  <i_i_glide_posenum>  (1) 
179

>  <i_i_glide_rotatable_bonds>  (1) 
12

>  <i_lp_mmshare_version>  (1) 
72125

>  <i_m_source_file_index>  (1) 
49

>  <i_f3d_flags>  (1) 
0

>  <num_sample>  (1) 
50

>  <b_lp_Chiralities_Consistent>  (1) 
1

>  <r_epik_Charging_Adjusted_Penalty>  (1) 
0.0013214273227819019

>  <r_epik_Ionization_Penalty>  (1) 
0.0045694995394012904

>  <r_epik_Ionization_Penalty_Charging>  (1) 
0.0013214273227819019

>  <r_epik_Ionization_Penalty_Neutral>  (1) 
0.0032480722166193885

>  <r_epik_State_Penalty>  (1) 
-0

>  <r_glide_ring_energy>  (1) 
1.2111851229297446

>  <r_i_docking_score>  (1) 
-5.8451828243678046

>  <r_i_glide_ecoul>  (1) 
-1.2648635003304673

>  <r_i_glide_eff_state_penalty>  (1) 
-0

>  <r_i_glide_einternal>  (1) 
4.7634435628114549

>  <r_i_glide_emodel>  (1) 
-31.403545031872603

>  <r_i_glide_emodel_strain>  (1) 
6.7087026719717073

>  <r_i_glide_energy>  (1) 
-33.49326869855512

>  <r_i_glide_erotb>  (1) 
0.6562967932688043

>  <r_i_glide_esite>  (1) 
-0.12035370652302542

>  <r_i_glide_evdw>  (1) 
-32.22840519822465

>  <r_i_glide_gscore>  (1) 
-5.8451828243678046

>  <r_i_glide_gscore_strain>  (1) 
0.67717566799292683

>  <r_i_glide_hbond>  (1) 
-0.16

>  <r_i_glide_ligand_efficiency>  (1) 
-0.15797791417210283

>  <r_i_glide_ligand_efficiency_ln>  (1) 
-1.2676831240779489

>  <r_i_glide_ligand_efficiency_sa>  (1) 
-0.52641745768172998

>  <r_i_glide_lipo>  (1) 
-3.7993146312978303

>  <r_i_glide_metal>  (1) 
-0

>  <r_i_glide_rewards>  (1) 
-1.2978371628478769

>  <r_lp_Energy>  (1) 
18.394539999999999

>  <r_lp_tautomer_probability>  (1) 
1

>  <s_epik_Chemistry_Notes>  (1) 
This compound has an imine and may undergo hydrolysis. This compound contains an acetal/aminal-like group ( X-CH(R)-Y where X, Y are N, S, or O) that may be acid/base labile, releasing an aldehyde.

>  <s_epik_cmdline>  (1) 
J2VwaWtfcHl0aG9uJywgJy1waHQnLCAnMS4wJywgJy1waCcsICc3LjQnLCAnLXRuJywgJzgnLCAnLW1hJywgJzUwMCcsICctaW1hZScsICc8aW5maWxlLm1hZT4nLCAnLW9tYWUnLCAnPG91dGZpbGUubWFlPic=

>  <s_epik_input>  (1) 
W0NIMl0xW0NIMl1OKFtDSDNdKUMoPUMxMilbQ0gyXVtDSDJdW0NAQEhdM0MoW0NIMl0yKT1OW0NASF0oTihDMz1PKVtDSDJdW0NIXShbQ0gzXSlbQ0gzXSlbQ0gyXVtDSDJdW0NIMl1bQ0BASF0oW05IXTQpU1tDSDJdW0NAQEhdNFtDSDJdW0NAQEhdKEMoPU8pW09IXSlbQ0gyXVtDSDJdW0NIMl1bQ0gzXQ==

>  <s_glide_docking_method>  (1) 
confgen

>  <s_i_glide_gridfile>  (1) 
gpcr_5ht2c_6bqh_protein_autoprepared_prepared

>  <s_lp_Force_Field>  (1) 
S-OPLS

>  <s_lp_Variant>  (1) 
DiffSBDD_48_num_sample_50-1

>  <s_m_source_file>  (1) 
generated__ligand_DiffSBDD_2026-05-06_prepared.sdf

>  <GenAI_Model>  (1) 
DiffSBDD

>  <Protein>  (1) 
GPCR_5HT2C

$$$$
DiffSBDD_23_num_sample_50
     RDKit          3D

  0  0  0  0  0  0  0  0  0  0999 V3000
M  V30 BEGIN CTAB
M  V30 COUNTS 60 64 0 0 1
M  V30 BEGIN ATOM
M  V30 1 C 38.501195 26.844435 56.005642 0
M  V30 2 C 40.832005 34.977509 66.295384 0 CFG=2
M  V30 3 C 38.638777 31.608570 56.909357 0
M  V30 4 C 39.240004 31.906474 60.719445 0 CFG=1
M  V30 5 S 43.293907 31.713207 66.397085 0
M  V30 6 C 38.993222 30.291681 57.214739 0
M  V30 7 C 39.368196 27.897658 56.618658 0
M  V30 8 N 42.922438 32.375125 68.874844 0
M  V30 9 C 42.068767 32.905380 66.794350 0
M  V30 10 C 41.076886 34.098825 68.804396 0
M  V30 11 S 41.182579 33.545577 61.906860 0
M  V30 12 O 42.097464 32.489096 61.453368 0
M  V30 13 C 38.237890 30.987809 54.598936 0
M  V30 14 C 41.225923 33.564200 65.772623 0 CFG=2
M  V30 15 N 39.631509 33.230441 61.229476 0
M  V30 16 C 38.266910 31.959587 55.609627 0
M  V30 17 C 38.976473 29.296990 56.220797 0
M  V30 18 C 37.328802 34.060460 60.733666 0
M  V30 19 C 39.155522 26.557636 54.689333 0
M  V30 20 O 39.931205 25.621192 54.588051 0
M  V30 21 Cl 38.729664 30.918508 62.119258 0
M  V30 22 C 38.517791 28.659217 53.700695 0
M  V30 23 S 38.664287 32.829886 58.163969 0
M  V30 24 N 40.794737 33.394493 63.457485 0 CHG=-1
M  V30 25 O 41.466964 34.945172 61.558477 0
M  V30 26 N 38.795962 27.406800 53.677112 0
M  V30 27 C 38.529666 34.062725 61.693587 0
M  V30 28 C 42.004392 33.136384 68.138835 0
M  V30 29 C 43.647406 31.576118 68.097081 0
M  V30 30 O 36.990481 32.739621 60.330424 0
M  V30 31 C 38.585561 29.641036 54.870019 0
M  V30 32 N 41.797805 33.607520 64.438784 0
M  V30 33 N 41.980699 35.894055 66.253420 0 CHG=1
M  V30 34 C 38.081436 32.063020 59.713627 0 CFG=2
M  V30 35 C 40.251579 34.910864 67.750341 0
M  V30 36 H 37.466036 27.155465 55.919737 0
M  V30 37 H 38.517425 25.934871 56.609500 0
M  V30 38 H 40.094801 35.434585 65.640431 0
M  V30 39 H 40.088953 31.401760 60.263809 0
M  V30 40 H 39.281621 30.035302 58.222069 0
M  V30 41 H 39.261788 27.811201 57.701215 0
M  V30 42 H 40.435154 27.756337 56.429961 0
M  V30 43 H 40.394373 33.562465 69.453035 0
M  V30 44 H 41.633830 34.769846 69.454317 0
M  V30 45 H 37.943756 31.274054 53.601753 0
M  V30 46 H 40.313882 32.964088 65.731272 0
M  V30 47 H 37.995446 32.980551 55.383904 0
M  V30 48 H 37.535205 34.683293 59.861564 0
M  V30 49 H 36.463700 34.506506 61.225452 0
M  V30 50 H 38.191274 29.115380 52.762882 0
M  V30 51 H 38.869642 35.082345 61.874542 0
M  V30 52 H 38.267369 33.632601 62.653530 0
M  V30 53 H 44.384281 30.910956 68.522370 0
M  V30 54 H 42.206780 34.511444 64.257992 0
M  V30 55 H 42.766956 35.444380 66.699326 0
M  V30 56 H 42.213265 36.118660 65.294328 0
M  V30 57 H 37.701667 31.074314 59.459245 0
M  V30 58 H 39.278480 34.423009 67.668629 0
M  V30 59 H 40.034818 35.911386 68.132584 0
M  V30 60 H 41.759443 36.756133 66.728966 0
M  V30 END ATOM
M  V30 BEGIN BOND
M  V30 1 2 6 3
M  V30 2 1 7 1
M  V30 3 1 9 5
M  V30 4 2 12 11
M  V30 5 1 14 2
M  V30 6 1 14 9
M  V30 7 1 15 4
M  V30 8 1 15 11
M  V30 9 1 16 3
M  V30 10 2 16 13
M  V30 11 1 17 6
M  V30 12 1 17 7
M  V30 13 1 19 1
M  V30 14 2 20 19
M  V30 15 1 21 4
M  V30 16 1 23 3
M  V30 17 1 24 11
M  V30 18 2 25 11
M  V30 19 1 26 19
M  V30 20 2 26 22
M  V30 21 1 27 15
M  V30 22 1 27 18
M  V30 23 1 28 8
M  V30 24 2 28 9
M  V30 25 1 28 10
M  V30 26 1 29 5
M  V30 27 2 29 8
M  V30 28 1 30 18
M  V30 29 1 31 13
M  V30 30 2 31 17
M  V30 31 1 31 22
M  V30 32 1 32 14
M  V30 33 1 32 24
M  V30 34 1 33 2
M  V30 35 1 34 4
M  V30 36 1 34 23
M  V30 37 1 34 30
M  V30 38 1 35 2
M  V30 39 1 35 10
M  V30 40 1 36 1
M  V30 41 1 37 1
M  V30 42 1 2 38 CFG=3
M  V30 43 1 4 39 CFG=3
M  V30 44 1 40 6
M  V30 45 1 41 7
M  V30 46 1 42 7
M  V30 47 1 43 10
M  V30 48 1 44 10
M  V30 49 1 45 13
M  V30 50 1 14 46 CFG=3
M  V30 51 1 47 16
M  V30 52 1 48 18
M  V30 53 1 49 18
M  V30 54 1 50 22
M  V30 55 1 51 27
M  V30 56 1 52 27
M  V30 57 1 53 29
M  V30 58 1 54 32
M  V30 59 1 55 33
M  V30 60 1 56 33
M  V30 61 1 34 57 CFG=3
M  V30 62 1 58 35
M  V30 63 1 59 35
M  V30 64 1 60 33
M  V30 END BOND
M  V30 END CTAB
M  END
>  <i_epik_Tot_Q>  (1) 
0

>  <i_epik_Tot_abs_Q>  (1) 
2

>  <i_i_glide_confnum>  (1) 
345

>  <i_i_glide_lignum>  (1) 
65

>  <i_i_glide_posenum>  (1) 
225

>  <i_i_glide_rotatable_bonds>  (1) 
6

>  <i_lp_mmshare_version>  (1) 
72125

>  <i_m_source_file_index>  (1) 
24

>  <i_f3d_flags>  (1) 
0

>  <num_sample>  (1) 
50

>  <b_lp_Chiralities_Consistent>  (1) 
1

>  <r_epik_Charging_Adjusted_Penalty>  (1) 
2.2272092532468064

>  <r_epik_Ionization_Penalty>  (1) 
1.0462412004884125

>  <r_epik_Ionization_Penalty_Charging>  (1) 
1.0439143913358477

>  <r_epik_Ionization_Penalty_Neutral>  (1) 
0.002326809152564684

>  <r_epik_State_Penalty>  (1) 
1.1832948619109587

>  <r_glide_ring_energy>  (1) 
1.4722824389510294

>  <r_i_docking_score>  (1) 
-5.8227409700941992

>  <r_i_glide_ecoul>  (1) 
-2.5131299114254242

>  <r_i_glide_eff_state_penalty>  (1) 
1.1832948619109587

>  <r_i_glide_einternal>  (1) 
2.2025450915331852

>  <r_i_glide_emodel>  (1) 
-79.453746102355794

>  <r_i_glide_emodel_strain>  (1) 
0.6613547617861002

>  <r_i_glide_energy>  (1) 
-52.494537261526723

>  <r_i_glide_erotb>  (1) 
0.32509228849270932

>  <r_i_glide_esite>  (1) 
-0.031847630868214225

>  <r_i_glide_evdw>  (1) 
-49.9814073501013

>  <r_i_glide_gscore>  (1) 
-7.0060358320051579

>  <r_i_glide_gscore_strain>  (1) 
0

>  <r_i_glide_hbond>  (1) 
0

>  <r_i_glide_ligand_efficiency>  (1) 
-0.16636402771697711

>  <r_i_glide_ligand_efficiency_ln>  (1) 
-1.2782208717088459

>  <r_i_glide_ligand_efficiency_sa>  (1) 
-0.54418776629228471

>  <r_i_glide_lipo>  (1) 
-2.5246624988223996

>  <r_i_glide_metal>  (1) 
-0

>  <r_i_glide_rewards>  (1) 
-1.8985781365883745

>  <r_lp_Energy>  (1) 
42.677467

>  <s_epik_Chemistry_Notes>  (1) 
This compound has an imine and may undergo hydrolysis. This compound contains an acetal/aminal-like group ( X-CH(R)-Y where X, Y are N, S, or O) that may be acid/base labile, releasing an aldehyde.

>  <s_epik_cmdline>  (1) 
J2VwaWtfcHl0aG9uJywgJy1waHQnLCAnMS4wJywgJy1waCcsICc3LjQnLCAnLXRuJywgJzgnLCAnLW1hJywgJzUwMCcsICctaW1hZScsICc8aW5maWxlLm1hZT4nLCAnLW9tYWUnLCAnPG91dGZpbGUubWFlPic=

>  <s_epik_input>  (1) 
W0NIMl0xW0NIMl1DKD1PKU49W0NIXWMoYzEyKVtjSF1bY0hdYyhbY0hdMilTW0NAQEhdM09bQ0gyXVtDSDJdTihbQ0BIXTNDbClTKD1PKSg9TylbTkhdW05IXVtDQEBIXTRbQ0BASF0oW05IMl0pW0NIMl1bQ0gyXWMoYzQ1KW5bY0hdczU=

>  <s_glide_docking_method>  (1) 
confgen

>  <s_i_glide_gridfile>  (1) 
gpcr_5ht2c_6bqh_protein_autoprepared_prepared

>  <s_lp_Force_Field>  (1) 
S-OPLS

>  <s_lp_Variant>  (1) 
DiffSBDD_23_num_sample_50-4

>  <s_m_source_file>  (1) 
generated__ligand_DiffSBDD_2026-05-06_prepared.sdf

>  <GenAI_Model>  (1) 
DiffSBDD

>  <Protein>  (1) 
GPCR_5HT2C

$$$$
DiffSBDD_5_num_sample_50
     RDKit          3D

  0  0  0  0  0  0  0  0  0  0999 V3000
M  V30 BEGIN CTAB
M  V30 COUNTS 79 81 0 0 1
M  V30 BEGIN ATOM
M  V30 1 C 38.751000 29.621085 57.701696 0
M  V30 2 C 38.407438 27.280408 56.927608 0 CFG=2
M  V30 3 N 39.230453 35.678109 61.218836 0
M  V30 4 F 39.866653 31.274745 49.686579 0
M  V30 5 C 37.637011 32.010589 60.022759 0
M  V30 6 N 38.278865 30.812881 57.890684 0 CHG=1
M  V30 7 C 36.094825 34.149567 59.820918 0 CFG=1
M  V30 8 C 39.316084 29.250738 50.679788 0 CFG=2
M  V30 9 C 37.836814 24.970695 56.356695 0
M  V30 10 C 38.768961 31.459768 59.131984 0 CFG=2
M  V30 11 N 39.547018 29.248780 58.668249 0
M  V30 12 C 39.129733 24.430918 57.012659 0
M  V30 13 C 38.750193 27.995539 54.192685 0 CFG=2
M  V30 14 C 37.259333 24.050743 55.275567 0
M  V30 15 N 38.914614 27.242508 51.911410 0 CHG=1
M  V30 16 C 37.785941 35.510339 61.236676 0
M  V30 17 C 37.500023 27.134411 58.122753 0
M  V30 18 C 39.653218 30.231074 59.762649 0
M  V30 19 C 38.397050 28.758647 56.505153 0 CFG=2
M  V30 20 C 39.335327 27.732132 50.601311 0
M  V30 21 O 39.394007 36.284034 63.390342 0
M  V30 22 C 40.134943 29.973476 49.618329 0
M  V30 23 C 41.432526 36.114344 62.161368 0
M  V30 24 C 39.923756 36.035551 62.309932 0
M  V30 25 S 39.857342 29.686216 52.319270 0
M  V30 26 C 39.289740 28.955208 55.286067 0
M  V30 27 C 38.827342 26.530151 54.704377 0
M  V30 28 C 34.375693 33.221431 61.148019 0
M  V30 29 O 35.542055 34.004303 61.122429 0
M  V30 30 O 36.714358 36.407958 59.274420 0
M  V30 31 N 37.964565 26.364093 55.872597 0
M  V30 32 C 37.216330 35.209605 59.835630 0 CFG=2
M  V30 33 N 39.467360 28.129641 52.929059 0
M  V30 34 C 36.586538 32.811753 59.222197 0
M  V30 35 H 39.429622 27.036359 57.213832 0
M  V30 36 H 39.719523 35.499972 60.354929 0
M  V30 37 H 38.093942 32.652627 60.773910 0
M  V30 38 H 37.146327 31.208748 60.574869 0
M  V30 39 H 35.300000 34.503773 59.157735 0
M  V30 40 H 38.278158 29.558602 50.653651 0
M  V30 41 H 37.065685 24.953293 57.124821 0
M  V30 42 H 39.433228 32.283715 58.852702 0
M  V30 43 H 40.009358 28.351069 58.705751 0
M  V30 44 H 38.995492 23.438305 57.446576 0
M  V30 45 H 39.956091 24.430800 56.304463 0
M  V30 46 H 39.454247 25.034838 57.855245 0
M  V30 47 H 37.707297 28.247635 53.993066 0
M  V30 48 H 36.839096 23.146850 55.714448 0
M  V30 49 H 36.454882 24.534200 54.717413 0
M  V30 50 H 38.032541 23.747384 54.577230 0
M  V30 51 H 39.264065 26.313580 52.089444 0
M  V30 52 H 37.272291 36.350190 61.709991 0
M  V30 53 H 37.641552 34.645207 61.878604 0
M  V30 54 H 37.462777 28.070747 58.655848 0
M  V30 55 H 36.472238 26.909717 57.853129 0
M  V30 56 H 37.870607 26.369565 58.803619 0
M  V30 57 H 40.701063 30.425390 59.985402 0
M  V30 58 H 39.184228 29.824027 60.658716 0
M  V30 59 H 37.386256 29.036641 56.211040 0
M  V30 60 H 38.668037 27.342357 49.853549 0
M  V30 61 H 40.325698 27.362827 50.365353 0
M  V30 62 H 41.209029 29.866041 49.762861 0
M  V30 63 H 39.868650 29.620864 48.625469 0
M  V30 64 H 41.866825 35.136044 62.358705 0
M  V30 65 H 41.692158 36.422482 61.151786 0
M  V30 66 H 41.855362 36.823678 62.872444 0
M  V30 67 H 39.244320 29.999605 54.980339 0
M  V30 68 H 40.328521 28.727121 55.525199 0
M  V30 69 H 38.487625 25.844538 53.933869 0
M  V30 70 H 39.854110 26.255149 54.947757 0
M  V30 71 H 33.943005 33.221518 62.147009 0
M  V30 72 H 33.634767 33.570240 60.425555 0
M  V30 73 H 34.662881 32.191292 60.927954 0
M  V30 74 H 36.342602 36.208739 58.422627 0
M  V30 75 H 37.995064 34.825252 59.183930 0
M  V30 76 H 35.734806 32.154549 59.053230 0
M  V30 77 H 36.969022 33.042813 58.227348 0
M  V30 78 H 37.908725 27.273602 51.997854 0
M  V30 79 H 37.616997 31.266651 57.268085 0
M  V30 END ATOM
M  V30 BEGIN BOND
M  V30 1 2 6 1
M  V30 2 1 10 5
M  V30 3 1 10 6
M  V30 4 1 11 1
M  V30 5 1 12 9
M  V30 6 1 14 9
M  V30 7 1 16 3
M  V30 8 1 17 2
M  V30 9 1 18 10
M  V30 10 1 18 11
M  V30 11 1 19 1
M  V30 12 1 19 2
M  V30 13 1 20 8
M  V30 14 1 20 15
M  V30 15 1 22 4
M  V30 16 1 22 8
M  V30 17 1 24 3
M  V30 18 2 24 21
M  V30 19 1 24 23
M  V30 20 1 25 8
M  V30 21 1 26 13
M  V30 22 1 26 19
M  V30 23 1 27 13
M  V30 24 1 29 7
M  V30 25 1 29 28
M  V30 26 1 31 2
M  V30 27 1 31 9
M  V30 28 1 31 27
M  V30 29 1 32 7
M  V30 30 1 32 16
M  V30 31 1 32 30
M  V30 32 1 33 13
M  V30 33 1 33 15
M  V30 34 1 33 25
M  V30 35 1 34 5
M  V30 36 1 34 7
M  V30 37 1 2 35 CFG=1
M  V30 38 1 36 3
M  V30 39 1 37 5
M  V30 40 1 38 5
M  V30 41 1 7 39 CFG=3
M  V30 42 1 8 40 CFG=1
M  V30 43 1 41 9
M  V30 44 1 10 42 CFG=3
M  V30 45 1 43 11
M  V30 46 1 44 12
M  V30 47 1 45 12
M  V30 48 1 46 12
M  V30 49 1 13 47 CFG=3
M  V30 50 1 48 14
M  V30 51 1 49 14
M  V30 52 1 50 14
M  V30 53 1 51 15
M  V30 54 1 52 16
M  V30 55 1 53 16
M  V30 56 1 54 17
M  V30 57 1 55 17
M  V30 58 1 56 17
M  V30 59 1 57 18
M  V30 60 1 58 18
M  V30 61 1 19 59 CFG=3
M  V30 62 1 60 20
M  V30 63 1 61 20
M  V30 64 1 62 22
M  V30 65 1 63 22
M  V30 66 1 64 23
M  V30 67 1 65 23
M  V30 68 1 66 23
M  V30 69 1 67 26
M  V30 70 1 68 26
M  V30 71 1 69 27
M  V30 72 1 70 27
M  V30 73 1 71 28
M  V30 74 1 72 28
M  V30 75 1 73 28
M  V30 76 1 74 30
M  V30 77 1 32 75 CFG=3
M  V30 78 1 76 34
M  V30 79 1 77 34
M  V30 80 1 78 15
M  V30 81 1 79 6
M  V30 END BOND
M  V30 END CTAB
M  END
>  <i_epik_Tot_Q>  (1) 
2

>  <i_epik_Tot_abs_Q>  (1) 
2

>  <i_i_glide_confnum>  (1) 
1114

>  <i_i_glide_lignum>  (1) 
18

>  <i_i_glide_posenum>  (1) 
250

>  <i_i_glide_rotatable_bonds>  (1) 
13

>  <i_lp_mmshare_version>  (1) 
72125

>  <i_m_source_file_index>  (1) 
6

>  <i_f3d_flags>  (1) 
0

>  <num_sample>  (1) 
50

>  <b_lp_Chiralities_Consistent>  (1) 
1

>  <r_epik_Charging_Adjusted_Penalty>  (1) 
1.2202907703101018

>  <r_epik_Ionization_Penalty>  (1) 
1.220291206888735

>  <r_epik_Ionization_Penalty_Charging>  (1) 
0.00010224848283174563

>  <r_epik_Ionization_Penalty_Neutral>  (1) 
1.2201889584059034

>  <r_epik_State_Penalty>  (1) 
1.2201885218272701

>  <r_glide_ring_energy>  (1) 
0

>  <r_i_docking_score>  (1) 
-5.8038732256404355

>  <r_i_glide_ecoul>  (1) 
-5.1455110967012683

>  <r_i_glide_eff_state_penalty>  (1) 
1.2201885218272701

>  <r_i_glide_einternal>  (1) 
12.524985829347109

>  <r_i_glide_emodel>  (1) 
-50.516417717526593

>  <r_i_glide_emodel_strain>  (1) 
0.39116530435991592

>  <r_i_glide_energy>  (1) 
-33.401537852625758

>  <r_i_glide_erotb>  (1) 
0.64218136225351719

>  <r_i_glide_esite>  (1) 
-0.076287768596318972

>  <r_i_glide_evdw>  (1) 
-28.256026755924488

>  <r_i_glide_gscore>  (1) 
-7.0240617474677061

>  <r_i_glide_gscore_strain>  (1) 
0

>  <r_i_glide_hbond>  (1) 
-0.3464215525825563

>  <r_i_glide_ligand_efficiency>  (1) 
-0.17070215369530692

>  <r_i_glide_ligand_efficiency_ln>  (1) 
-1.2822383886737807

>  <r_i_glide_ligand_efficiency_sa>  (1) 
-0.55300871161479914

>  <r_i_glide_lipo>  (1) 
-3.8391704773715283

>  <r_i_glide_metal>  (1) 
-0

>  <r_i_glide_rewards>  (1) 
-1.2197353088694041

>  <r_lp_Energy>  (1) 
23.621561999999997

>  <s_epik_Chemistry_Notes>  (1) 
This compound has an imine and may undergo hydrolysis. This compound has a N-S or N-O group and may undergo hydrolysis at high or low pH.

>  <s_epik_cmdline>  (1) 
J2VwaWtfcHl0aG9uJywgJy1waHQnLCAnMS4wJywgJy1waCcsICc3LjQnLCAnLXRuJywgJzgnLCAnLW1hJywgJzUwMCcsICctaW1hZScsICc8aW5maWxlLm1hZT4nLCAnLW9tYWUnLCAnPG91dGZpbGUubWFlPic=

>  <s_epik_input>  (1) 
RltDSDJdW0NASF0xW0NIMl1bTkhdTihTMSlbQ0BASF0oW0NIMl1OMltDSF0oW0NIM10pW0NIM10pW0NIMl1bQ0BASF0oW0NASF0yW0NIM10pQzM9TltDQEhdKFtDSDJdW05IXTMpW0NIMl1bQ0gyXVtDQEBIXShPW0NIM10pW0NAQEhdKFtPSF0pW0NIMl1bTkhdQyg9TylbQ0gzXQ==

>  <s_glide_docking_method>  (1) 
confgen

>  <s_i_glide_gridfile>  (1) 
gpcr_5ht2c_6bqh_protein_autoprepared_prepared

>  <s_lp_Force_Field>  (1) 
S-OPLS

>  <s_lp_Variant>  (1) 
DiffSBDD_5_num_sample_50-5

>  <s_m_source_file>  (1) 
generated__ligand_DiffSBDD_2026-05-06_prepared.sdf

>  <GenAI_Model>  (1) 
DiffSBDD

>  <Protein>  (1) 
GPCR_5HT2C

$$$$
DiffSBDD_10_num_sample_50
     RDKit          3D

  0  0  0  0  0  0  0  0  0  0999 V3000
M  V30 BEGIN CTAB
M  V30 COUNTS 64 66 0 0 1
M  V30 BEGIN ATOM
M  V30 1 C 38.095983 29.128892 59.479720 0
M  V30 2 C 39.031776 28.080412 58.904488 0
M  V30 3 C 39.264706 29.380470 52.448958 0
M  V30 4 N 38.938140 29.199874 56.710550 0
M  V30 5 O 41.067355 30.869045 61.053516 0 CHG=-1
M  V30 6 O 36.560294 32.777791 61.027423 0
M  V30 7 C 41.555492 35.229976 65.392375 0
M  V30 8 C 38.667200 28.253920 53.032577 0
M  V30 9 C 40.656125 32.574021 65.127817 0
M  V30 10 O 42.583205 32.821424 61.453776 0 CHG=-1
M  V30 11 N 41.156910 35.620513 63.035979 0
M  V30 12 C 38.527213 28.163726 54.431530 0
M  V30 13 C 38.848465 32.136282 62.613129 0
M  V30 14 C 41.124659 34.763537 64.135138 0
M  V30 15 C 38.835447 27.886064 57.386651 0 CFG=1
M  V30 16 C 39.520802 25.402395 57.242086 0
M  V30 17 C 39.009669 29.235455 55.272605 0
M  V30 18 O 42.204754 31.117362 63.250374 0
M  V30 19 C 38.190041 30.343458 57.280815 0
M  V30 20 N 37.346594 31.458108 59.347282 0
M  V30 21 C 39.932999 26.855815 56.961428 0
M  V30 22 P 41.598865 31.858003 62.077003 0
M  V30 23 C 41.074516 32.135377 67.586647 0
M  V30 24 C 41.535543 34.377610 66.509877 0
M  V30 25 C 37.420399 32.020073 60.581514 0
M  V30 26 N 38.525973 31.665125 61.262658 0
M  V30 27 C 39.709956 30.440000 53.254690 0
M  V30 28 O 37.912745 27.065870 54.954168 0
M  V30 29 F 39.405980 29.449913 51.104001 0
M  V30 30 C 39.579070 30.374762 54.654250 0
M  V30 31 C 40.667339 33.425683 63.996556 0
M  V30 32 C 38.331993 30.490672 58.816585 0 CFG=1
M  V30 33 C 40.200223 32.894404 62.628284 0 CFG=2
M  V30 34 C 41.088215 33.050948 66.379818 0
M  V30 35 H 38.267359 29.183625 60.553953 0
M  V30 36 H 37.065004 28.822919 59.322042 0
M  V30 37 H 40.057458 28.383946 59.122921 0
M  V30 38 H 38.871485 27.144049 59.437318 0
M  V30 39 H 41.905765 36.245707 65.499871 0
M  V30 40 H 38.310837 27.450647 52.404262 0
M  V30 41 H 40.315999 31.553036 65.029385 0
M  V30 42 H 41.651904 36.498299 63.104016 0
M  V30 43 H 41.067119 35.234120 62.105757 0
M  V30 44 H 38.070935 32.779138 63.012096 0
M  V30 45 H 38.920209 31.242170 63.234426 0
M  V30 46 H 37.825738 27.496719 57.264463 0
M  V30 47 H 40.267206 24.704869 56.866530 0
M  V30 48 H 39.406352 25.221555 58.307238 0
M  V30 49 H 38.576049 25.149390 56.761568 0
M  V30 50 H 38.479589 31.288285 56.821974 0
M  V30 51 H 37.137097 30.200866 57.029777 0
M  V30 52 H 36.551085 31.682147 58.759479 0
M  V30 53 H 40.209309 26.923545 55.912542 0
M  V30 54 H 40.871781 27.068072 57.474764 0
M  V30 55 H 40.552954 32.606531 68.420367 0
M  V30 56 H 40.581068 31.188735 67.363354 0
M  V30 57 H 42.095441 31.917270 67.899314 0
M  V30 58 H 41.867128 34.742216 67.467080 0
M  V30 59 H 39.205908 31.049833 60.818274 0
M  V30 60 H 40.161290 31.307645 52.797744 0
M  V30 61 H 37.931583 27.082685 55.897423 0
M  V30 62 H 39.941055 31.192470 55.260013 0
M  V30 63 H 39.350421 30.821457 59.016338 0
M  V30 64 H 40.076411 33.705376 61.915094 0
M  V30 END ATOM
M  V30 BEGIN BOND
M  V30 1 1 2 1
M  V30 2 2 8 3
M  V30 3 1 12 8
M  V30 4 1 14 7
M  V30 5 1 14 11
M  V30 6 1 15 2
M  V30 7 1 15 4
M  V30 8 1 17 4
M  V30 9 2 17 12
M  V30 10 1 19 4
M  V30 11 1 21 15
M  V30 12 1 21 16
M  V30 13 1 22 5
M  V30 14 1 22 10
M  V30 15 2 22 18
M  V30 16 2 24 7
M  V30 17 2 25 6
M  V30 18 1 25 20
M  V30 19 1 26 13
M  V30 20 1 26 25
M  V30 21 1 27 3
M  V30 22 1 28 12
M  V30 23 1 29 3
M  V30 24 1 30 17
M  V30 25 2 30 27
M  V30 26 1 31 9
M  V30 27 2 31 14
M  V30 28 1 32 1
M  V30 29 1 32 19
M  V30 30 1 32 20
M  V30 31 1 33 13
M  V30 32 1 33 22
M  V30 33 1 33 31
M  V30 34 2 34 9
M  V30 35 1 34 23
M  V30 36 1 34 24
M  V30 37 1 35 1
M  V30 38 1 36 1
M  V30 39 1 37 2
M  V30 40 1 38 2
M  V30 41 1 39 7
M  V30 42 1 40 8
M  V30 43 1 41 9
M  V30 44 1 42 11
M  V30 45 1 43 11
M  V30 46 1 44 13
M  V30 47 1 45 13
M  V30 48 1 15 46 CFG=1
M  V30 49 1 47 16
M  V30 50 1 48 16
M  V30 51 1 49 16
M  V30 52 1 50 19
M  V30 53 1 51 19
M  V30 54 1 52 20
M  V30 55 1 53 21
M  V30 56 1 54 21
M  V30 57 1 55 23
M  V30 58 1 56 23
M  V30 59 1 57 23
M  V30 60 1 58 24
M  V30 61 1 59 26
M  V30 62 1 60 27
M  V30 63 1 61 28
M  V30 64 1 62 30
M  V30 65 1 32 63 CFG=3
M  V30 66 1 33 64 CFG=3
M  V30 END BOND
M  V30 END CTAB
M  END
>  <i_epik_Tot_Q>  (1) 
-2

>  <i_epik_Tot_abs_Q>  (1) 
2

>  <i_i_glide_confnum>  (1) 
344

>  <i_i_glide_lignum>  (1) 
33

>  <i_i_glide_posenum>  (1) 
230

>  <i_i_glide_rotatable_bonds>  (1) 
10

>  <i_lp_mmshare_version>  (1) 
72125

>  <i_m_source_file_index>  (1) 
11

>  <i_f3d_flags>  (1) 
0

>  <num_sample>  (1) 
50

>  <b_lp_Chiralities_Consistent>  (1) 
1

>  <r_epik_Charging_Adjusted_Penalty>  (1) 
1.1617678045882596

>  <r_epik_Ionization_Penalty>  (1) 
0.4473271138811577

>  <r_epik_Ionization_Penalty_Charging>  (1) 
0.41559672628269745

>  <r_epik_Ionization_Penalty_Neutral>  (1) 
0.031730387598460232

>  <r_epik_State_Penalty>  (1) 
0.74617107830556217

>  <r_glide_ring_energy>  (1) 
0

>  <r_i_docking_score>  (1) 
-5.7915468707625948

>  <r_i_glide_ecoul>  (1) 
-6.0728707841483773

>  <r_i_glide_eff_state_penalty>  (1) 
0.74617107830556217

>  <r_i_glide_einternal>  (1) 
15.865563045422313

>  <r_i_glide_emodel>  (1) 
-56.018315072088626

>  <r_i_glide_emodel_strain>  (1) 
2.028361773037318

>  <r_i_glide_energy>  (1) 
-45.322147020577752

>  <r_i_glide_erotb>  (1) 
0.58773720055558498

>  <r_i_glide_esite>  (1) 
-0.088165476593361616

>  <r_i_glide_evdw>  (1) 
-39.249276236429374

>  <r_i_glide_gscore>  (1) 
-6.5377179490681572

>  <r_i_glide_gscore_strain>  (1) 
0

>  <r_i_glide_hbond>  (1) 
-0.21034676998929366

>  <r_i_glide_ligand_efficiency>  (1) 
-0.17033961384595867

>  <r_i_glide_ligand_efficiency_ln>  (1) 
-1.2795151511387224

>  <r_i_glide_ligand_efficiency_sa>  (1) 
-0.5518342232404172

>  <r_i_glide_lipo>  (1) 
-3.8839265823724793

>  <r_i_glide_metal>  (1) 
-0

>  <r_i_glide_rewards>  (1) 
-0.069621891224881605

>  <r_lp_Energy>  (1) 
49.585073000000001

>  <r_lp_tautomer_probability>  (1) 
0.99999999999736477

>  <s_epik_cmdline>  (1) 
J2VwaWtfcHl0aG9uJywgJy1waHQnLCAnMS4wJywgJy1waCcsICc3LjQnLCAnLXRuJywgJzgnLCAnLW1hJywgJzUwMCcsICctaW1hZScsICc8aW5maWxlLm1hZT4nLCAnLW9tYWUnLCAnPG91dGZpbGUubWFlPic=

>  <s_epik_input>  (1) 
RmMxW2NIXWMoW09IXSljKFtjSF1bY0hdMSlOMltDQEBIXShbQ0gyXVtDSDNdKVtDSDJdW0NIMl1bQ0BASF0oW0NIMl0yKVtOSF1DKD1PKVtOSF1bQ0gyXVtDQEhdKFAoPU8pKFtPSF0pW09IXSljM1tjSF1jKFtDSDNdKVtjSF1bY0hdYzNbTkgyXQ==

>  <s_glide_docking_method>  (1) 
confgen

>  <s_i_glide_gridfile>  (1) 
gpcr_5ht2c_6bqh_protein_autoprepared_prepared

>  <s_lp_Force_Field>  (1) 
S-OPLS

>  <s_lp_Variant>  (1) 
DiffSBDD_10_num_sample_50-2

>  <s_m_source_file>  (1) 
generated__ligand_DiffSBDD_2026-05-06_prepared.sdf

>  <GenAI_Model>  (1) 
DiffSBDD

>  <Protein>  (1) 
GPCR_5HT2C

$$$$
DiffSBDD_10_num_sample_50
     RDKit          3D

  0  0  0  0  0  0  0  0  0  0999 V3000
M  V30 BEGIN CTAB
M  V30 COUNTS 64 66 0 0 1
M  V30 BEGIN ATOM
M  V30 1 C 39.010952 31.350164 54.097841 0
M  V30 2 C 40.075279 30.295779 54.367386 0
M  V30 3 C 37.426478 24.847494 56.677031 0
M  V30 4 N 38.405773 28.786661 55.295476 0 CFG=2 CHG=1
M  V30 5 O 39.468737 31.724309 62.936833 0 CHG=-1
M  V30 6 O 38.461991 33.819574 55.853481 0
M  V30 7 C 39.715292 36.024698 62.068748 0
M  V30 8 C 38.044596 25.775058 57.545548 0
M  V30 9 C 37.875068 34.771673 60.337905 0
M  V30 10 O 37.168558 31.621491 61.858951 0 CHG=-1
M  V30 11 N 40.993665 33.973575 62.214098 0
M  V30 12 C 38.367226 27.060376 57.076585 0
M  V30 13 C 38.579432 32.123166 59.043086 0
M  V30 14 C 39.904797 34.676961 61.705049 0
M  V30 15 C 39.467436 28.887490 54.276607 0 CFG=1
M  V30 16 C 39.965293 28.883161 51.689085 0
M  V30 17 C 38.069774 27.402443 55.758958 0
M  V30 18 O 38.988622 30.021454 61.164280 0
M  V30 19 C 37.294684 29.751428 55.123760 0
M  V30 20 N 38.184521 31.646592 56.416488 0
M  V30 21 C 39.034896 28.461909 52.837621 0
M  V30 22 P 38.664095 31.401290 61.693556 0
M  V30 23 C 36.538201 36.908836 60.136246 0
M  V30 24 C 38.617941 36.746326 61.564857 0
M  V30 25 C 38.442056 32.930081 56.699716 0
M  V30 26 N 38.680893 33.151688 58.002668 0
M  V30 27 C 37.143402 25.204921 55.340329 0
M  V30 28 O 38.961465 27.969027 57.898387 0 CHG=-1
M  V30 29 F 37.100221 23.621340 57.125635 0
M  V30 30 C 37.467255 26.493195 54.876960 0
M  V30 31 C 38.983794 34.041169 60.827598 0
M  V30 32 C 37.828453 31.197996 55.071906 0 CFG=1
M  V30 33 C 39.205830 32.571993 60.389855 0 CFG=2
M  V30 34 C 37.701276 36.123239 60.697272 0
M  V30 35 H 38.668130 31.278959 53.069876 0
M  V30 36 H 39.465629 32.330517 54.183935 0
M  V30 37 H 40.903053 30.432770 53.681619 0
M  V30 38 H 40.492674 30.450312 55.362327 0
M  V30 39 H 40.416174 36.507747 62.735008 0
M  V30 40 H 38.263335 25.499977 58.567799 0
M  V30 41 H 37.166177 34.299283 59.674137 0
M  V30 42 H 41.481441 34.372701 62.999684 0
M  V30 43 H 40.902180 32.958056 62.251406 0
M  V30 44 H 37.519137 31.909776 59.190396 0
M  V30 45 H 39.047981 31.181880 58.748923 0
M  V30 46 H 40.186897 28.166900 54.653502 0
M  V30 47 H 39.626545 28.446894 50.748726 0
M  V30 48 H 39.975721 29.964191 51.551404 0
M  V30 49 H 40.989834 28.552816 51.847447 0
M  V30 50 H 36.714989 29.519720 54.232844 0
M  V30 51 H 36.618251 29.659734 55.972403 0
M  V30 52 H 38.176532 30.970198 57.166626 0
M  V30 53 H 38.975678 27.375584 52.796558 0
M  V30 54 H 38.038726 28.830226 52.601722 0
M  V30 55 H 36.140056 37.617124 60.863930 0
M  V30 56 H 36.870792 37.465907 59.259756 0
M  V30 57 H 35.742588 36.236863 59.820355 0
M  V30 58 H 38.482659 37.781015 61.840864 0
M  V30 59 H 38.893790 34.091415 58.301390 0
M  V30 60 H 36.670900 24.494381 54.677366 0
M  V30 61 H 37.238393 26.777100 53.863154 0
M  V30 62 H 37.020410 31.841597 54.722476 0
M  V30 63 H 40.277312 32.454431 60.260414 0
M  V30 64 H 38.862891 29.160199 56.120915 0
M  V30 END ATOM
M  V30 BEGIN BOND
M  V30 1 1 2 1
M  V30 2 2 8 3
M  V30 3 1 12 8
M  V30 4 1 14 7
M  V30 5 1 14 11
M  V30 6 1 15 2
M  V30 7 1 15 4
M  V30 8 1 17 4
M  V30 9 2 17 12
M  V30 10 1 19 4
M  V30 11 1 21 15
M  V30 12 1 21 16
M  V30 13 1 22 5
M  V30 14 1 22 10
M  V30 15 2 22 18
M  V30 16 2 24 7
M  V30 17 2 25 6
M  V30 18 1 25 20
M  V30 19 1 26 13
M  V30 20 1 26 25
M  V30 21 1 27 3
M  V30 22 1 28 12
M  V30 23 1 29 3
M  V30 24 1 30 17
M  V30 25 2 30 27
M  V30 26 1 31 9
M  V30 27 2 31 14
M  V30 28 1 32 1
M  V30 29 1 32 19
M  V30 30 1 32 20
M  V30 31 1 33 13
M  V30 32 1 33 22
M  V30 33 1 33 31
M  V30 34 2 34 9
M  V30 35 1 34 23
M  V30 36 1 34 24
M  V30 37 1 35 1
M  V30 38 1 36 1
M  V30 39 1 37 2
M  V30 40 1 38 2
M  V30 41 1 39 7
M  V30 42 1 40 8
M  V30 43 1 41 9
M  V30 44 1 42 11
M  V30 45 1 43 11
M  V30 46 1 44 13
M  V30 47 1 45 13
M  V30 48 1 15 46 CFG=1
M  V30 49 1 47 16
M  V30 50 1 48 16
M  V30 51 1 49 16
M  V30 52 1 50 19
M  V30 53 1 51 19
M  V30 54 1 52 20
M  V30 55 1 53 21
M  V30 56 1 54 21
M  V30 57 1 55 23
M  V30 58 1 56 23
M  V30 59 1 57 23
M  V30 60 1 58 24
M  V30 61 1 59 26
M  V30 62 1 60 27
M  V30 63 1 61 30
M  V30 64 1 32 62 CFG=3
M  V30 65 1 33 63 CFG=3
M  V30 66 1 4 64 CFG=1
M  V30 END BOND
M  V30 END CTAB
M  END
>  <i_epik_Tot_Q>  (1) 
-2

>  <i_epik_Tot_abs_Q>  (1) 
4

>  <i_i_glide_confnum>  (1) 
113

>  <i_i_glide_lignum>  (1) 
35

>  <i_i_glide_posenum>  (1) 
89

>  <i_i_glide_rotatable_bonds>  (1) 
9

>  <i_lp_mmshare_version>  (1) 
72125

>  <i_m_source_file_index>  (1) 
11

>  <i_f3d_flags>  (1) 
0

>  <num_sample>  (1) 
50

>  <b_lp_Chiralities_Consistent>  (1) 
1

>  <r_epik_Charging_Adjusted_Penalty>  (1) 
1.3613781813755943

>  <r_epik_Ionization_Penalty>  (1) 
0.45221775539962494

>  <r_epik_Ionization_Penalty_Charging>  (1) 
0.45010221832775887

>  <r_epik_Ionization_Penalty_Neutral>  (1) 
0.0021155370718660637

>  <r_epik_State_Penalty>  (1) 
0.91127596304783554

>  <r_glide_ring_energy>  (1) 
0

>  <r_i_docking_score>  (1) 
-5.7716252327023714

>  <r_i_glide_ecoul>  (1) 
-3.629924347537278

>  <r_i_glide_eff_state_penalty>  (1) 
0.91127596304783554

>  <r_i_glide_einternal>  (1) 
15.185276619723783

>  <r_i_glide_emodel>  (1) 
-53.185202892161534

>  <r_i_glide_emodel_strain>  (1) 
1.8381187250378304

>  <r_i_glide_energy>  (1) 
-43.06119497446948

>  <r_i_glide_erotb>  (1) 
0.58773720055558498

>  <r_i_glide_esite>  (1) 
-0.16215011274125138

>  <r_i_glide_evdw>  (1) 
-39.431270626932204

>  <r_i_glide_gscore>  (1) 
-6.6829011957502065

>  <r_i_glide_gscore_strain>  (1) 
0

>  <r_i_glide_hbond>  (1) 
-0.16

>  <r_i_glide_ligand_efficiency>  (1) 
-0.16975368331477564

>  <r_i_glide_ligand_efficiency_ln>  (1) 
-1.2751139025081988

>  <r_i_glide_ligand_efficiency_sa>  (1) 
-0.54993603577686778

>  <r_i_glide_lipo>  (1) 
-4.1800333550798285

>  <r_i_glide_metal>  (1) 
-0

>  <r_i_glide_rewards>  (1) 
-0.25240274500751003

>  <r_lp_Energy>  (1) 
33.264645999999999

>  <s_epik_cmdline>  (1) 
J2VwaWtfcHl0aG9uJywgJy1waHQnLCAnMS4wJywgJy1waCcsICc3LjQnLCAnLXRuJywgJzgnLCAnLW1hJywgJzUwMCcsICctaW1hZScsICc8aW5maWxlLm1hZT4nLCAnLW9tYWUnLCAnPG91dGZpbGUubWFlPic=

>  <s_epik_input>  (1) 
RmMxW2NIXWMoW09IXSljKFtjSF1bY0hdMSlOMltDQEBIXShbQ0gyXVtDSDNdKVtDSDJdW0NIMl1bQ0BASF0oW0NIMl0yKVtOSF1DKD1PKVtOSF1bQ0gyXVtDQEhdKFAoPU8pKFtPSF0pW09IXSljM1tjSF1jKFtDSDNdKVtjSF1bY0hdYzNbTkgyXQ==

>  <s_glide_docking_method>  (1) 
confgen

>  <s_i_glide_gridfile>  (1) 
gpcr_5ht2c_6bqh_protein_autoprepared_prepared

>  <s_lp_Force_Field>  (1) 
S-OPLS

>  <s_lp_Variant>  (1) 
DiffSBDD_10_num_sample_50-4

>  <s_m_source_file>  (1) 
generated__ligand_DiffSBDD_2026-05-06_prepared.sdf

>  <GenAI_Model>  (1) 
DiffSBDD

>  <Protein>  (1) 
GPCR_5HT2C

$$$$
DiffSBDD_35_num_sample_50
     RDKit          3D

  0  0  0  0  0  0  0  0  0  0999 V3000
M  V30 BEGIN CTAB
M  V30 COUNTS 44 43 0 0 1
M  V30 BEGIN ATOM
M  V30 1 C 36.333570 34.592311 59.939271 0
M  V30 2 C 35.162056 32.308239 60.083585 0
M  V30 3 C 40.160691 30.331869 61.199974 0
M  V30 4 C 35.632349 33.564472 60.839790 0
M  V30 5 C 41.106401 35.306303 63.872539 0
M  V30 6 C 37.196904 30.945624 60.164961 0
M  V30 7 C 39.322741 29.466406 60.237443 0
M  V30 8 C 40.520650 36.127892 62.703400 0 CFG=1
M  V30 9 O 37.180413 30.897850 61.394835 0
M  V30 10 N 41.024432 36.021426 65.159095 0 CHG=1
M  V30 11 N 37.034962 35.577802 60.749386 0
M  V30 12 O 41.067428 29.513886 61.898701 0
M  V30 13 C 40.714697 35.404233 61.355400 0
M  V30 14 S 38.782189 36.585522 63.010087 0
M  V30 15 N 36.265382 31.593295 59.453500 0
M  V30 16 C 37.398787 36.811542 60.245698 0
M  V30 17 S 38.264066 37.825785 61.458402 0
M  V30 18 O 37.182246 37.221424 59.110548 0
M  V30 19 O 40.028327 34.167817 61.316756 0
M  V30 20 C 38.311603 30.253870 59.374290 0
M  V30 21 H 37.069481 34.114840 59.291693 0
M  V30 22 H 35.600931 35.068131 59.284107 0
M  V30 23 H 34.433701 32.575743 59.316786 0
M  V30 24 H 34.667483 31.628713 60.773946 0
M  V30 25 H 39.555878 30.858381 61.936972 0
M  V30 26 H 40.720001 31.089111 60.653882 0
M  V30 27 H 34.771280 34.021380 61.324118 0
M  V30 28 H 36.298994 33.278813 61.652871 0
M  V30 29 H 40.594653 34.347918 63.967469 0
M  V30 30 H 42.155901 35.084290 63.675605 0
M  V30 31 H 39.999395 28.931613 59.569671 0
M  V30 32 H 38.799710 28.689769 60.795847 0
M  V30 33 H 41.066188 37.070192 62.649378 0
M  V30 34 H 41.496476 35.498277 65.882532 0
M  V30 35 H 41.467946 36.940126 65.053457 0
M  V30 36 H 37.268083 35.377379 61.711809 0
M  V30 37 H 40.577109 28.915752 62.444990 0
M  V30 38 H 40.371099 36.021236 60.527515 0
M  V30 39 H 41.775352 35.223098 61.180387 0
M  V30 40 H 36.312405 31.595530 58.434514 0
M  V30 41 H 39.115040 34.330287 61.129970 0
M  V30 42 H 38.835492 31.008937 58.789033 0
M  V30 43 H 37.851208 29.575127 58.656221 0
M  V30 44 H 40.055382 36.158955 65.412165 0
M  V30 END ATOM
M  V30 BEGIN BOND
M  V30 1 1 4 1
M  V30 2 1 4 2
M  V30 3 1 7 3
M  V30 4 1 8 5
M  V30 5 2 9 6
M  V30 6 1 10 5
M  V30 7 1 11 1
M  V30 8 1 12 3
M  V30 9 1 13 8
M  V30 10 1 14 8
M  V30 11 1 15 2
M  V30 12 1 15 6
M  V30 13 1 16 11
M  V30 14 1 17 14
M  V30 15 1 17 16
M  V30 16 2 18 16
M  V30 17 1 19 13
M  V30 18 1 20 6
M  V30 19 1 20 7
M  V30 20 1 21 1
M  V30 21 1 22 1
M  V30 22 1 23 2
M  V30 23 1 24 2
M  V30 24 1 25 3
M  V30 25 1 26 3
M  V30 26 1 27 4
M  V30 27 1 28 4
M  V30 28 1 29 5
M  V30 29 1 30 5
M  V30 30 1 31 7
M  V30 31 1 32 7
M  V30 32 1 8 33 CFG=3
M  V30 33 1 34 10
M  V30 34 1 35 10
M  V30 35 1 36 11
M  V30 36 1 37 12
M  V30 37 1 38 13
M  V30 38 1 39 13
M  V30 39 1 40 15
M  V30 40 1 41 19
M  V30 41 1 42 20
M  V30 42 1 43 20
M  V30 43 1 44 10
M  V30 END BOND
M  V30 END CTAB
M  END
>  <i_epik_Tot_Q>  (1) 
1

>  <i_epik_Tot_abs_Q>  (1) 
1

>  <i_i_glide_confnum>  (1) 
1369

>  <i_i_glide_lignum>  (1) 
89

>  <i_i_glide_posenum>  (1) 
66

>  <i_i_glide_rotatable_bonds>  (1) 
16

>  <i_lp_mmshare_version>  (1) 
72125

>  <i_m_source_file_index>  (1) 
36

>  <i_f3d_flags>  (1) 
0

>  <num_sample>  (1) 
50

>  <b_lp_Chiralities_Consistent>  (1) 
1

>  <r_epik_Charging_Adjusted_Penalty>  (1) 
0.070813283132224986

>  <r_epik_Ionization_Penalty>  (1) 
0.035414902051254887

>  <r_epik_Ionization_Penalty_Charging>  (1) 
0.0354066415661125

>  <r_epik_Ionization_Penalty_Neutral>  (1) 
8.2604851423881855e-06

>  <r_epik_State_Penalty>  (1) 
0.035406641566112479

>  <r_glide_ring_energy>  (1) 
0

>  <r_i_docking_score>  (1) 
-5.763562437903003

>  <r_i_glide_ecoul>  (1) 
-17.957258668510228

>  <r_i_glide_eff_state_penalty>  (1) 
0.035406641566112479

>  <r_i_glide_einternal>  (1) 
5.7669958166842772

>  <r_i_glide_emodel>  (1) 
-60.570030704926616

>  <r_i_glide_emodel_strain>  (1) 
0.5426188567720005

>  <r_i_glide_energy>  (1) 
-45.972288634127381

>  <r_i_glide_erotb>  (1) 
2.287715563984396

>  <r_i_glide_esite>  (1) 
-0.20174163135565362

>  <r_i_glide_evdw>  (1) 
-28.015029965617153

>  <r_i_glide_gscore>  (1) 
-5.7989690794691153

>  <r_i_glide_gscore_strain>  (1) 
0

>  <r_i_glide_hbond>  (1) 
-0.74859083036211871

>  <r_i_glide_ligand_efficiency>  (1) 
-0.28817812189515013

>  <r_i_glide_ligand_efficiency_ln>  (1) 
-1.4424295831954281

>  <r_i_glide_ligand_efficiency_sa>  (1) 
-0.78223577078942996

>  <r_i_glide_lipo>  (1) 
-1.4349187678819464

>  <r_i_glide_metal>  (1) 
-0

>  <r_i_glide_rewards>  (1) 
-1.607093115296401

>  <r_lp_Energy>  (1) 
-0.712812

>  <s_epik_cmdline>  (1) 
J2VwaWtfcHl0aG9uJywgJy1waHQnLCAnMS4wJywgJy1waCcsICc3LjQnLCAnLXRuJywgJzgnLCAnLW1hJywgJzUwMCcsICctaW1hZScsICc8aW5maWxlLm1hZT4nLCAnLW9tYWUnLCAnPG91dGZpbGUubWFlPic=

>  <s_epik_input>  (1) 
W05IMl1bQ0gyXVtDQEBIXShbQ0gyXVtPSF0pU1NDKD1PKVtOSF1bQ0gyXVtDSDJdW0NIMl1bTkhdQyg9TylbQ0gyXVtDSDJdW0NIMl1bT0hd

>  <s_glide_docking_method>  (1) 
confgen

>  <s_i_glide_gridfile>  (1) 
gpcr_5ht2c_6bqh_protein_autoprepared_prepared

>  <s_lp_Force_Field>  (1) 
S-OPLS

>  <s_lp_Variant>  (1) 
DiffSBDD_35_num_sample_50-1

>  <s_m_source_file>  (1) 
generated__ligand_DiffSBDD_2026-05-06_prepared.sdf

>  <GenAI_Model>  (1) 
DiffSBDD

>  <Protein>  (1) 
GPCR_5HT2C

$$$$
DiffSBDD_49_num_sample_50
     RDKit          3D

  0  0  0  0  0  0  0  0  0  0999 V3000
M  V30 BEGIN CTAB
M  V30 COUNTS 82 89 0 0 1
M  V30 BEGIN ATOM
M  V30 1 C 39.598517 33.374908 63.398374 0
M  V30 2 C 42.520362 30.669545 64.286907 0
M  V30 3 C 37.668463 33.621764 59.832304 0 CFG=1
M  V30 4 O 38.102693 26.948607 53.000434 0
M  V30 5 C 40.598153 28.919080 62.656373 0
M  V30 6 C 40.320889 28.438538 59.223144 0
M  V30 7 C 39.156214 30.248943 59.952601 0 CFG=2
M  V30 8 C 41.846859 29.442513 64.774252 0 CFG=2
M  V30 9 C 38.613631 25.739588 54.954453 0
M  V30 10 O 40.267425 26.445424 53.401041 0
M  V30 11 C 40.814339 31.446640 62.675365 0
M  V30 12 C 44.054343 28.311009 65.580578 0
M  V30 13 C 37.400867 33.903098 61.284469 0
M  V30 14 C 39.097577 26.421437 53.736882 0
M  V30 15 C 40.358675 32.799926 62.227970 0 CFG=2
M  V30 16 O 37.795658 30.019546 58.004689 0
M  V30 17 C 38.893813 30.404313 61.468057 0
M  V30 18 O 37.067498 34.630655 59.053405 0
M  V30 19 C 41.743592 27.542870 66.336123 0
M  V30 20 O 42.667384 32.684888 63.169207 0
M  V30 21 C 38.820130 34.034479 60.741632 0 CFG=2
M  V30 22 C 36.857472 24.646750 56.213702 0
M  V30 23 C 42.020999 31.534749 63.392514 0
M  V30 24 C 39.638313 25.516345 56.017279 0 CFG=1
M  V30 25 C 38.556565 27.313623 57.666279 0
M  V30 26 O 37.464878 28.093618 53.641873 0
M  V30 27 C 38.873526 28.025304 58.996967 0 CFG=2
M  V30 28 O 42.687624 29.597953 67.037862 0
M  V30 29 O 41.681080 27.222529 63.856174 0
M  V30 30 C 39.117325 24.764243 57.247382 0 CFG=2
M  V30 31 C 42.605956 28.730654 65.922035 0 CFG=2
M  V30 32 C 38.131808 29.361370 59.216233 0 CFG=1
M  V30 33 O 40.408789 29.621454 59.724631 0
M  V30 34 C 41.579836 26.602704 65.142266 0
M  V30 35 C 41.352634 28.550150 63.693067 0
M  V30 36 O 41.274009 27.712067 58.966048 0
M  V30 37 C 40.637730 26.624255 56.344289 0
M  V30 38 C 40.142344 30.289450 62.321698 0
M  V30 39 C 37.679139 24.371675 57.237471 0
M  V30 40 C 41.808927 33.427540 62.249302 0
M  V30 41 C 39.519000 35.374088 60.617793 0
M  V30 42 C 37.335505 25.344940 55.050984 0
M  V30 43 O 39.728507 32.936714 60.944009 0
M  V30 44 C 39.547673 26.218035 57.315470 0 CFG=1
M  V30 45 H 40.130640 33.221380 64.339278 0
M  V30 46 H 39.430402 34.446187 63.304566 0
M  V30 47 H 38.667402 32.833818 63.453487 0
M  V30 48 H 43.454239 30.913745 64.769850 0
M  V30 49 H 37.520739 32.604934 59.476837 0
M  V30 50 H 40.265803 28.125887 62.003433 0
M  V30 51 H 39.199700 31.227010 59.480458 0
M  V30 52 H 40.923735 29.818465 65.220284 0
M  V30 53 H 44.102124 27.700536 64.679472 0
M  V30 54 H 44.705498 29.170176 65.420104 0
M  V30 55 H 44.493306 27.729041 66.392084 0
M  V30 56 H 37.115427 33.051981 61.892726 0
M  V30 57 H 36.875250 34.823328 61.530914 0
M  V30 58 H 37.108515 30.657712 58.148686 0
M  V30 59 H 38.283742 31.267332 61.698635 0
M  V30 60 H 38.267773 29.621200 61.826113 0
M  V30 61 H 36.899011 34.286397 58.186567 0
M  V30 62 H 40.758277 27.890080 66.651420 0
M  V30 63 H 42.165047 27.010058 67.189433 0
M  V30 64 H 35.826586 24.336731 56.253539 0
M  V30 65 H 38.549548 28.022402 56.838632 0
M  V30 66 H 37.541867 26.924751 57.718738 0
M  V30 67 H 36.799632 27.664843 54.157620 0
M  V30 68 H 38.645824 27.349885 59.821106 0
M  V30 69 H 41.811189 29.806152 67.324082 0
M  V30 70 H 39.784261 23.998922 57.629733 0
M  V30 71 H 37.213776 29.221487 59.786946 0
M  V30 72 H 40.624450 26.080824 65.209073 0
M  V30 73 H 42.349526 25.831549 65.183235 0
M  V30 74 H 41.636439 26.421472 56.693198 0
M  V30 75 H 40.543738 27.591532 55.852949 0
M  V30 76 H 37.307222 23.844489 58.102022 0
M  V30 77 H 41.800073 34.487527 62.500671 0
M  V30 78 H 42.263684 33.332506 61.265318 0
M  V30 79 H 38.808784 36.150373 60.334834 0
M  V30 80 H 39.984997 35.675347 61.553320 0
M  V30 81 H 40.288153 35.308424 59.853559 0
M  V30 82 H 36.667404 25.524936 54.234490 0
M  V30 END ATOM
M  V30 BEGIN BOND
M  V30 1 1 8 2
M  V30 2 1 13 3
M  V30 3 1 14 4
M  V30 4 1 14 9
M  V30 5 2 14 10
M  V30 6 1 15 1
M  V30 7 1 15 11
M  V30 8 1 17 7
M  V30 9 1 18 3
M  V30 10 1 21 3
M  V30 11 1 21 13
M  V30 12 2 23 2
M  V30 13 1 23 11
M  V30 14 1 23 20
M  V30 15 1 24 9
M  V30 16 1 26 4
M  V30 17 1 27 6
M  V30 18 1 27 25
M  V30 19 1 30 24
M  V30 20 1 31 8
M  V30 21 1 31 12
M  V30 22 1 31 19
M  V30 23 1 31 28 CFG=1
M  V30 24 1 32 7
M  V30 25 1 32 16
M  V30 26 1 32 27
M  V30 27 1 33 6
M  V30 28 1 33 7
M  V30 29 1 34 19
M  V30 30 1 34 29
M  V30 31 2 35 5
M  V30 32 1 35 8
M  V30 33 1 35 29
M  V30 34 2 36 6
M  V30 35 1 24 37 CFG=1
M  V30 36 1 38 5
M  V30 37 2 38 11
M  V30 38 1 38 17
M  V30 39 2 39 22
M  V30 40 1 39 30
M  V30 41 1 40 15
M  V30 42 1 40 20
M  V30 43 1 41 21
M  V30 44 2 42 9
M  V30 45 1 42 22
M  V30 46 1 15 43 CFG=3
M  V30 47 1 21 43 CFG=1
M  V30 48 1 44 24
M  V30 49 1 44 25 CFG=3
M  V30 50 1 44 30
M  V30 51 1 44 37
M  V30 52 1 45 1
M  V30 53 1 46 1
M  V30 54 1 47 1
M  V30 55 1 48 2
M  V30 56 1 3 49 CFG=3
M  V30 57 1 50 5
M  V30 58 1 7 51 CFG=3
M  V30 59 1 8 52 CFG=1
M  V30 60 1 53 12
M  V30 61 1 54 12
M  V30 62 1 55 12
M  V30 63 1 56 13
M  V30 64 1 57 13
M  V30 65 1 58 16
M  V30 66 1 59 17
M  V30 67 1 60 17
M  V30 68 1 61 18
M  V30 69 1 62 19
M  V30 70 1 63 19
M  V30 71 1 64 22
M  V30 72 1 65 25
M  V30 73 1 66 25
M  V30 74 1 67 26
M  V30 75 1 27 68 CFG=1
M  V30 76 1 69 28
M  V30 77 1 30 70 CFG=1
M  V30 78 1 32 71 CFG=1
M  V30 79 1 72 34
M  V30 80 1 73 34
M  V30 81 1 74 37
M  V30 82 1 75 37
M  V30 83 1 76 39
M  V30 84 1 77 40
M  V30 85 1 78 40
M  V30 86 1 79 41
M  V30 87 1 80 41
M  V30 88 1 81 41
M  V30 89 1 82 42
M  V30 END BOND
M  V30 END CTAB
M  END
>  <i_epik_Tot_Q>  (1) 
0

>  <i_epik_Tot_abs_Q>  (1) 
0

>  <i_i_glide_confnum>  (1) 
249

>  <i_i_glide_lignum>  (1) 
110

>  <i_i_glide_posenum>  (1) 
178

>  <i_i_glide_rotatable_bonds>  (1) 
12

>  <i_lp_mmshare_version>  (1) 
72125

>  <i_m_source_file_index>  (1) 
50

>  <i_f3d_flags>  (1) 
2

>  <num_sample>  (1) 
50

>  <b_lp_Chiralities_Consistent>  (1) 
0

>  <r_epik_Charging_Adjusted_Penalty>  (1) 
0

>  <r_epik_Ionization_Penalty>  (1) 
1.8283090470904203e-05

>  <r_epik_Ionization_Penalty_Charging>  (1) 
0

>  <r_epik_Ionization_Penalty_Neutral>  (1) 
1.8283090470904203e-05

>  <r_epik_State_Penalty>  (1) 
-0

>  <r_glide_ring_energy>  (1) 
0.96358372370287459

>  <r_i_docking_score>  (1) 
-5.7537501221780101

>  <r_i_glide_ecoul>  (1) 
-1.6693150866035826

>  <r_i_glide_eff_state_penalty>  (1) 
-0

>  <r_i_glide_einternal>  (1) 
11.783791674300206

>  <r_i_glide_emodel>  (1) 
-36.916924619385597

>  <r_i_glide_emodel_strain>  (1) 
10.86003798232386

>  <r_i_glide_energy>  (1) 
-41.126224644192206

>  <r_i_glide_erotb>  (1) 
0.32668660388354631

>  <r_i_glide_esite>  (1) 
0

>  <r_i_glide_evdw>  (1) 
-39.456909557588624

>  <r_i_glide_gscore>  (1) 
-5.7537501221780101

>  <r_i_glide_gscore_strain>  (1) 
1.7150094955809649

>  <r_i_glide_hbond>  (1) 
0

>  <r_i_glide_ligand_efficiency>  (1) 
-0.13076704823131841

>  <r_i_glide_ligand_efficiency_ln>  (1) 
-1.2026592928896249

>  <r_i_glide_ligand_efficiency_sa>  (1) 
-0.46165323103893802

>  <r_i_glide_lipo>  (1) 
-4.8186137588276496

>  <r_i_glide_metal>  (1) 
-0

>  <r_i_glide_rewards>  (1) 
-0.7535897219449027

>  <r_lp_Energy>  (1) 
38.622012999999995

>  <r_lp_tautomer_probability>  (1) 
1

>  <s_epik_Chemistry_Notes>  (1) 
This compound has an ester and may undergo hydrolysis at high or low pH.

>  <s_epik_cmdline>  (1) 
J2VwaWtfcHl0aG9uJywgJy1waHQnLCAnMS4wJywgJy1waCcsICc3LjQnLCAnLXRuJywgJzgnLCAnLW1hJywgJzUwMCcsICctaW1hZScsICc8aW5maWxlLm1hZT4nLCAnLW9tYWUnLCAnPG91dGZpbGUubWFlPic=

>  <s_epik_input>  (1) 
W0NIMl0xW0NAQEhdKFtPSF0pW0NAXTEoW0NIM10pT1tDQF0yKFtDSDNdKVtDSDJdT0MoPVtDSF0zKUMyPUMoW0NIXT1DKFtDQEhdMzQpT1tDSDJdW0NIMl1bQ0BdNChbQ0gzXSlbT0hdKVtDSDJdW0NAQEhdKE81KVtDQEBIXShbT0hdKVtDQEhdKEM1PU8pW0NIMl1bQ0BdNihbQ0gyXTcpW0NAQEhdKEM2NzgpW0NIXT1bQ0hdW0NIXT1DOEMoPU8pT1tPSF0=

>  <s_glide_docking_method>  (1) 
confgen

>  <s_i_glide_gridfile>  (1) 
gpcr_5ht2c_6bqh_protein_autoprepared_prepared

>  <s_lp_Force_Field>  (1) 
S-OPLS

>  <s_lp_Variant>  (1) 
DiffSBDD_49_num_sample_50-1

>  <s_m_source_file>  (1) 
generated__ligand_DiffSBDD_2026-05-06_prepared.sdf

>  <GenAI_Model>  (1) 
DiffSBDD

>  <Protein>  (1) 
GPCR_5HT2C

$$$$
DiffSBDD_41_num_sample_50
     RDKit          3D

  0  0  0  0  0  0  0  0  0  0999 V3000
M  V30 BEGIN CTAB
M  V30 COUNTS 83 87 0 0 1
M  V30 BEGIN ATOM
M  V30 1 C 42.127686 30.892732 66.837145 0
M  V30 2 C 41.881768 29.381852 66.740843 0 CFG=1
M  V30 3 C 39.221604 29.247080 58.148684 0
M  V30 4 C 35.831789 34.830870 59.061770 0
M  V30 5 C 44.363147 29.009070 67.132197 0 CFG=1
M  V30 6 O 45.304396 28.287206 67.913229 0
M  V30 7 O 45.770632 30.949152 67.375680 0
M  V30 8 C 36.994247 24.278686 56.045024 0
M  V30 9 C 41.293855 27.459452 65.200055 0
M  V30 10 C 40.269129 27.776599 56.507663 0
M  V30 11 C 36.701056 30.776736 60.610292 0
M  V30 12 C 39.457524 30.331820 62.288113 0
M  V30 13 C 41.688598 28.884343 65.263029 0 CFG=1
M  V30 14 C 38.266825 26.031140 54.672625 0
M  V30 15 F 37.984453 24.021487 56.894304 0
M  V30 16 O 40.351407 29.671114 60.231276 0
M  V30 17 C 38.085184 30.179484 58.547928 0 CFG=2
M  V30 18 C 40.405824 29.337130 62.994837 0
M  V30 19 C 41.348291 27.567881 57.385353 0
M  V30 20 C 42.939000 28.596033 67.541099 0 CFG=1
M  V30 21 O 42.710793 28.807015 68.925480 0
M  V30 22 F 36.241663 25.221552 56.594709 0
M  V30 23 C 37.599738 32.541083 58.402264 0 CFG=1
M  V30 24 C 39.098786 29.856215 60.869519 0 CFG=2
M  V30 25 C 39.681047 25.895714 55.241474 0
M  V30 26 N 36.305456 31.634348 61.453494 0
M  V30 27 F 36.267477 23.178176 55.853505 0
M  V30 28 O 37.193073 34.883165 58.654769 0
M  V30 29 C 43.437996 31.419382 67.039617 0
M  V30 30 C 40.310303 29.041569 59.020642 0
M  V30 31 C 38.063773 31.366307 57.573543 0
M  V30 32 C 41.235482 33.165534 66.796434 0
M  V30 33 C 39.202326 28.611769 56.889744 0
M  V30 34 O 40.267025 27.179339 55.277697 0
M  V30 35 C 38.127576 30.741119 60.023157 0 CFG=2
M  V30 36 S 38.670707 32.456948 59.849434 0
M  V30 37 C 42.524990 33.683948 66.979494 0
M  V30 38 C 40.970213 26.284052 65.126879 0
M  V30 39 C 44.626896 30.525354 67.197314 0
M  V30 40 C 37.636958 33.880228 57.734154 0
M  V30 41 C 40.730376 29.782165 64.428775 0
M  V30 42 C 37.498519 24.712325 54.666757 0
M  V30 43 C 41.369403 28.198243 58.638450 0
M  V30 44 C 41.036879 31.777126 66.727172 0
M  V30 45 C 43.624100 32.817297 67.105320 0
M  V30 46 H 40.925255 29.207918 67.238670 0
M  V30 47 H 35.569428 35.794087 59.493198 0
M  V30 48 H 35.131679 34.637162 58.253355 0
M  V30 49 H 35.673752 34.077830 59.831551 0
M  V30 50 H 44.527650 28.717219 66.093571 0
M  V30 51 H 45.090763 27.369283 67.864800 0
M  V30 52 H 36.033503 29.999574 60.234629 0
M  V30 53 H 38.549112 30.446505 62.881641 0
M  V30 54 H 39.932141 31.313589 62.244646 0
M  V30 55 H 42.658343 28.924453 64.766526 0
M  V30 56 H 37.693910 26.774296 55.223778 0
M  V30 57 H 38.341120 26.406154 53.650610 0
M  V30 58 H 37.173025 29.601983 58.399046 0
M  V30 59 H 41.338059 29.236158 62.439395 0
M  V30 60 H 39.944336 28.349648 62.989192 0
M  V30 61 H 42.163879 26.926378 57.092100 0
M  V30 62 H 42.824089 27.522950 67.389111 0
M  V30 63 H 42.717852 29.736992 69.093621 0
M  V30 64 H 36.558825 32.372707 58.653689 0
M  V30 65 H 38.667448 28.859136 60.955006 0
M  V30 66 H 40.266993 25.260083 54.577784 0
M  V30 67 H 39.704804 25.425235 56.224780 0
M  V30 68 H 35.313219 31.566820 61.645125 0
M  V30 69 H 39.073062 31.585555 57.221897 0
M  V30 70 H 37.467762 31.174387 56.683196 0
M  V30 71 H 40.393260 33.835394 66.705476 0
M  V30 72 H 38.375516 28.775215 56.213830 0
M  V30 73 H 42.669998 34.751825 67.026775 0
M  V30 74 H 40.687242 25.257573 65.064516 0
M  V30 75 H 38.663083 34.022308 57.425757 0
M  V30 76 H 37.065371 33.859319 56.814098 0
M  V30 77 H 39.791061 29.895315 64.969596 0
M  V30 78 H 41.165037 30.776798 64.338683 0
M  V30 79 H 36.652267 24.809990 53.989503 0
M  V30 80 H 38.118420 23.920703 54.253639 0
M  V30 81 H 42.203031 28.038855 59.307014 0
M  V30 82 H 40.042942 31.384785 66.581381 0
M  V30 83 H 44.614722 33.222190 67.254921 0
M  V30 END ATOM
M  V30 BEGIN BOND
M  V30 1 1 2 1
M  V30 2 1 6 5
M  V30 3 1 13 2
M  V30 4 1 13 9
M  V30 5 1 15 8
M  V30 6 1 17 3
M  V30 7 1 18 12
M  V30 8 1 19 10
M  V30 9 1 20 2
M  V30 10 1 20 5
M  V30 11 1 21 20
M  V30 12 1 22 8
M  V30 13 1 24 12
M  V30 14 1 24 16
M  V30 15 1 25 14
M  V30 16 2 26 11
M  V30 17 1 27 8
M  V30 18 1 28 4
M  V30 19 1 29 1
M  V30 20 2 30 3
M  V30 21 1 30 16
M  V30 22 1 31 17
M  V30 23 1 31 23
M  V30 24 1 33 3
M  V30 25 2 33 10
M  V30 26 1 34 10
M  V30 27 1 34 25
M  V30 28 1 35 11 CFG=1
M  V30 29 1 35 17
M  V30 30 1 35 24
M  V30 31 1 36 23
M  V30 32 1 36 35
M  V30 33 2 37 32
M  V30 34 3 38 9
M  V30 35 1 39 5
M  V30 36 2 39 7
M  V30 37 1 39 29
M  V30 38 1 40 23
M  V30 39 1 40 28
M  V30 40 1 41 13
M  V30 41 1 41 18
M  V30 42 1 42 8
M  V30 43 1 42 14
M  V30 44 2 43 19
M  V30 45 1 43 30
M  V30 46 2 44 1
M  V30 47 1 44 32
M  V30 48 2 45 29
M  V30 49 1 45 37
M  V30 50 1 2 46 CFG=1
M  V30 51 1 47 4
M  V30 52 1 48 4
M  V30 53 1 49 4
M  V30 54 1 5 50 CFG=3
M  V30 55 1 51 6
M  V30 56 1 52 11
M  V30 57 1 53 12
M  V30 58 1 54 12
M  V30 59 1 13 55 CFG=3
M  V30 60 1 56 14
M  V30 61 1 57 14
M  V30 62 1 17 58 CFG=1
M  V30 63 1 59 18
M  V30 64 1 60 18
M  V30 65 1 61 19
M  V30 66 1 20 62 CFG=1
M  V30 67 1 63 21
M  V30 68 1 23 64 CFG=1
M  V30 69 1 24 65 CFG=1
M  V30 70 1 66 25
M  V30 71 1 67 25
M  V30 72 1 68 26
M  V30 73 1 69 31
M  V30 74 1 70 31
M  V30 75 1 71 32
M  V30 76 1 72 33
M  V30 77 1 73 37
M  V30 78 1 74 38
M  V30 79 1 75 40
M  V30 80 1 76 40
M  V30 81 1 77 41
M  V30 82 1 78 41
M  V30 83 1 79 42
M  V30 84 1 80 42
M  V30 85 1 81 43
M  V30 86 1 82 44
M  V30 87 1 83 45
M  V30 END BOND
M  V30 END CTAB
M  END
>  <i_epik_Tot_Q>  (1) 
0

>  <i_epik_Tot_abs_Q>  (1) 
0

>  <i_i_glide_confnum>  (1) 
223

>  <i_i_glide_lignum>  (1) 
96

>  <i_i_glide_posenum>  (1) 
246

>  <i_i_glide_rotatable_bonds>  (1) 
16

>  <i_lp_mmshare_version>  (1) 
72125

>  <i_m_source_file_index>  (1) 
42

>  <i_f3d_flags>  (1) 
0

>  <num_sample>  (1) 
50

>  <b_lp_Chiralities_Consistent>  (1) 
1

>  <r_epik_Charging_Adjusted_Penalty>  (1) 
0.41067983895260396

>  <r_epik_Ionization_Penalty>  (1) 
0.0048607436090088536

>  <r_epik_Ionization_Penalty_Charging>  (1) 
0

>  <r_epik_Ionization_Penalty_Neutral>  (1) 
0.0048607436090088536

>  <r_epik_State_Penalty>  (1) 
0.41067983895260396

>  <r_glide_ring_energy>  (1) 
1.8793194922327243

>  <r_i_docking_score>  (1) 
-5.7349244085535389

>  <r_i_glide_ecoul>  (1) 
-3.4985328258896167

>  <r_i_glide_eff_state_penalty>  (1) 
0.41067983895260396

>  <r_i_glide_einternal>  (1) 
15.071101058518337

>  <r_i_glide_emodel>  (1) 
-57.809306595030954

>  <r_i_glide_emodel_strain>  (1) 
0.083092669115139017

>  <r_i_glide_energy>  (1) 
-50.430456196115017

>  <r_i_glide_erotb>  (1) 
0.41134081239429626

>  <r_i_glide_esite>  (1) 
-0.046127915845074807

>  <r_i_glide_evdw>  (1) 
-46.931923370225398

>  <r_i_glide_gscore>  (1) 
-6.1456042475061432

>  <r_i_glide_gscore_strain>  (1) 
0

>  <r_i_glide_hbond>  (1) 
-0.32000000000000001

>  <r_i_glide_ligand_efficiency>  (1) 
-0.12744276463452309

>  <r_i_glide_ligand_efficiency_ln>  (1) 
-1.1931198457887928

>  <r_i_glide_ligand_efficiency_sa>  (1) 
-0.45330031623423817

>  <r_i_glide_lipo>  (1) 
-3.9762125832403954

>  <r_i_glide_metal>  (1) 
-0

>  <r_i_glide_rewards>  (1) 
0.65677153157974466

>  <r_lp_Energy>  (1) 
42.968447999999995

>  <r_lp_tautomer_probability>  (1) 
0.5

>  <s_epik_Chemistry_Notes>  (1) 
This compound has an imine and may undergo hydrolysis.

>  <s_epik_cmdline>  (1) 
J2VwaWtfcHl0aG9uJywgJy1waHQnLCAnMS4wJywgJy1waCcsICc3LjQnLCAnLXRuJywgJzgnLCAnLW1hJywgJzUwMCcsICctaW1hZScsICc8aW5maWxlLm1hZT4nLCAnLW9tYWUnLCAnPG91dGZpbGUubWFlPic=

>  <s_epik_input>  (1) 
W2NIXTFbY0hdW2NIXVtjSF1jKGMxMilDKD1PKVtDQEBIXShbT0hdKVtDQEBIXShbT0hdKVtDQEBIXTJbQ0BASF0oQyNbQ0hdKVtDSDJdW0NIMl1bQ0gyXVtDQEBIXTNPYyhjNFtDQEBIXShbQ0BAXTM1L1tDSF09Ti9bSF0pW0NIMl1bQ0BASF0oUzUpW0NIMl1PW0NIM10pW2NIXVtjSF1jKFtjSF00KU9bQ0gyXVtDSDJdW0NIMl1DKEYpKEYpRg==

>  <s_glide_docking_method>  (1) 
confgen

>  <s_i_glide_gridfile>  (1) 
gpcr_5ht2c_6bqh_protein_autoprepared_prepared

>  <s_lp_Force_Field>  (1) 
S-OPLS

>  <s_lp_Variant>  (1) 
DiffSBDD_41_num_sample_50-1

>  <s_m_source_file>  (1) 
generated__ligand_DiffSBDD_2026-05-06_prepared.sdf

>  <GenAI_Model>  (1) 
DiffSBDD

>  <Protein>  (1) 
GPCR_5HT2C

$$$$
DiffSBDD_29_num_sample_50
     RDKit          3D

  0  0  0  0  0  0  0  0  0  0999 V3000
M  V30 BEGIN CTAB
M  V30 COUNTS 79 81 0 0 1
M  V30 BEGIN ATOM
M  V30 1 C 42.890375 28.199825 65.107839 0
M  V30 2 C 37.926851 26.280052 57.250237 0
M  V30 3 C 41.479404 28.618300 64.691478 0
M  V30 4 C 39.607899 26.887251 53.229635 0
M  V30 5 C 36.977114 32.152877 60.520311 0
M  V30 6 C 37.966515 28.756018 52.662982 0
M  V30 7 C 40.044906 32.425416 62.167676 0 CFG=2
M  V30 8 N 38.267785 28.069123 58.798671 0 CHG=1
M  V30 9 C 38.389235 31.693549 60.384306 0 CFG=1
M  V30 10 N 37.639899 28.919604 53.885458 0
M  V30 11 C 39.012900 31.384071 61.771448 0
M  V30 12 C 38.913712 29.179163 59.524514 0 CFG=2
M  V30 13 O 38.922067 29.800806 56.276648 0
M  V30 14 O 41.397832 32.051818 61.859694 0
M  V30 15 C 36.061513 31.404070 59.971509 0
M  V30 16 C 40.259336 28.925595 51.775099 0
M  V30 17 C 36.703103 33.438618 61.282619 0
M  V30 18 C 41.045640 31.036014 64.121007 0
M  V30 19 C 38.077287 30.470618 59.380376 0 CFG=1
M  V30 20 C 39.534628 27.446747 54.634799 0
M  V30 21 C 43.640842 29.122549 66.077978 0
M  V30 22 F 43.993360 30.250119 65.460529 0
M  V30 23 O 37.867374 24.019252 57.853725 0
M  V30 24 O 38.818960 27.221432 51.033338 0
M  V30 25 C 35.217446 33.740046 61.512611 0
M  V30 26 C 38.600604 27.664672 57.417816 0 CFG=2
M  V30 27 F 42.859980 29.426128 67.115189 0
M  V30 28 C 36.504142 30.186423 59.282389 0
M  V30 29 C 38.625454 25.187869 58.024645 0
M  V30 30 C 38.099645 28.656402 56.325348 0 CFG=2
M  V30 31 C 41.525066 29.828131 63.782084 0
M  V30 32 F 44.743222 28.525066 66.531978 0
M  V30 33 C 38.132010 28.018614 54.910782 0 CFG=1
M  V30 34 O 43.400367 27.162669 64.681572 0
M  V30 35 C 41.075809 32.238638 63.248141 0 CFG=2
M  V30 36 C 39.155097 27.934741 52.194659 0 CFG=1
M  V30 37 C 40.422539 29.296394 59.254023 0
M  V30 38 H 37.937862 25.887700 56.240505 0
M  V30 39 H 36.872013 26.344771 57.528269 0
M  V30 40 H 40.897224 28.848761 65.584102 0
M  V30 41 H 40.980828 27.794210 64.181072 0
M  V30 42 H 38.942600 26.021875 53.205584 0
M  V30 43 H 40.616574 26.511555 53.048394 0
M  V30 44 H 37.403780 29.220986 51.856876 0
M  V30 45 H 39.785416 33.457000 61.935383 0
M  V30 46 H 37.275826 28.252494 58.828504 0
M  V30 47 H 38.978416 32.446012 59.857230 0
M  V30 48 H 38.250232 31.326740 62.550016 0
M  V30 49 H 39.506073 30.417414 61.799444 0
M  V30 50 H 38.802078 28.853085 60.557949 0
M  V30 51 H 38.601135 30.341693 55.567365 0
M  V30 52 H 35.008178 31.639214 60.008523 0
M  V30 53 H 40.512056 29.621172 52.579943 0
M  V30 54 H 41.169376 28.421461 51.453384 0
M  V30 55 H 39.923306 29.539971 50.937564 0
M  V30 56 H 37.185763 33.356147 62.253503 0
M  V30 57 H 37.180792 34.269527 60.762747 0
M  V30 58 H 40.598368 31.166992 65.095900 0
M  V30 59 H 38.322352 30.887668 58.405789 0
M  V30 60 H 40.266868 28.222058 54.835877 0
M  V30 61 H 39.799193 26.634219 55.308084 0
M  V30 62 H 37.881474 23.765459 56.943471 0
M  V30 63 H 37.980137 26.796799 51.161022 0
M  V30 64 H 35.111153 34.555738 62.226391 0
M  V30 65 H 34.722291 34.021158 60.582291 0
M  V30 66 H 34.679075 32.886917 61.925640 0
M  V30 67 H 39.680616 27.535588 57.341675 0
M  V30 68 H 36.130552 30.110604 58.262362 0
M  V30 69 H 36.172658 29.322740 59.853247 0
M  V30 70 H 38.667148 25.446998 59.074750 0
M  V30 71 H 39.645424 25.029011 57.670051 0
M  V30 72 H 37.100804 29.005754 56.561949 0
M  V30 73 H 41.974981 29.685072 62.810348 0
M  V30 74 H 37.405455 27.211013 54.862886 0
M  V30 75 H 41.535498 33.116691 63.697704 0
M  V30 76 H 40.882943 30.021380 59.923050 0
M  V30 77 H 40.930194 28.345868 59.420470 0
M  V30 78 H 40.636058 29.617233 58.235901 0
M  V30 79 H 38.444825 27.256193 59.369160 0
M  V30 END ATOM
M  V30 BEGIN BOND
M  V30 1 1 3 1
M  V30 2 1 9 5
M  V30 3 2 10 6
M  V30 4 1 11 7
M  V30 5 1 11 9
M  V30 6 1 12 8
M  V30 7 1 14 7
M  V30 8 2 15 5
M  V30 9 1 17 5
M  V30 10 1 19 9
M  V30 11 1 19 12
M  V30 12 1 20 4
M  V30 13 1 21 1
M  V30 14 1 22 21
M  V30 15 1 25 17
M  V30 16 1 26 2
M  V30 17 1 26 8
M  V30 18 1 27 21
M  V30 19 1 28 15
M  V30 20 1 28 19
M  V30 21 1 29 2
M  V30 22 1 29 23
M  V30 23 1 30 13
M  V30 24 1 30 26
M  V30 25 1 31 3
M  V30 26 2 31 18
M  V30 27 1 32 21
M  V30 28 1 33 10
M  V30 29 1 33 20
M  V30 30 1 33 30
M  V30 31 2 34 1
M  V30 32 1 35 7
M  V30 33 1 35 14
M  V30 34 1 35 18
M  V30 35 1 36 4
M  V30 36 1 36 6
M  V30 37 1 36 16
M  V30 38 1 36 24 CFG=3
M  V30 39 1 37 12
M  V30 40 1 38 2
M  V30 41 1 39 2
M  V30 42 1 40 3
M  V30 43 1 41 3
M  V30 44 1 42 4
M  V30 45 1 43 4
M  V30 46 1 44 6
M  V30 47 1 7 45 CFG=3
M  V30 48 1 46 8
M  V30 49 1 9 47 CFG=3
M  V30 50 1 48 11
M  V30 51 1 49 11
M  V30 52 1 12 50 CFG=1
M  V30 53 1 51 13
M  V30 54 1 52 15
M  V30 55 1 53 16
M  V30 56 1 54 16
M  V30 57 1 55 16
M  V30 58 1 56 17
M  V30 59 1 57 17
M  V30 60 1 58 18
M  V30 61 1 19 59 CFG=3
M  V30 62 1 60 20
M  V30 63 1 61 20
M  V30 64 1 62 23
M  V30 65 1 63 24
M  V30 66 1 64 25
M  V30 67 1 65 25
M  V30 68 1 66 25
M  V30 69 1 26 67 CFG=1
M  V30 70 1 68 28
M  V30 71 1 69 28
M  V30 72 1 70 29
M  V30 73 1 71 29
M  V30 74 1 30 72 CFG=1
M  V30 75 1 73 31
M  V30 76 1 33 74 CFG=1
M  V30 77 1 35 75 CFG=1
M  V30 78 1 76 37
M  V30 79 1 77 37
M  V30 80 1 78 37
M  V30 81 1 79 8
M  V30 END BOND
M  V30 END CTAB
M  END
>  <i_epik_Tot_Q>  (1) 
1

>  <i_epik_Tot_abs_Q>  (1) 
1

>  <i_i_glide_confnum>  (1) 
3760

>  <i_i_glide_lignum>  (1) 
73

>  <i_i_glide_posenum>  (1) 
61

>  <i_i_glide_rotatable_bonds>  (1) 
17

>  <i_lp_mmshare_version>  (1) 
72125

>  <i_m_source_file_index>  (1) 
30

>  <i_f3d_flags>  (1) 
0

>  <num_sample>  (1) 
50

>  <b_lp_Chiralities_Consistent>  (1) 
1

>  <r_epik_Charging_Adjusted_Penalty>  (1) 
0.073066720001252791

>  <r_epik_Ionization_Penalty>  (1) 
0.041882768558209021

>  <r_epik_Ionization_Penalty_Charging>  (1) 
0.011280877963412759

>  <r_epik_Ionization_Penalty_Neutral>  (1) 
0.030601890594796264

>  <r_epik_State_Penalty>  (1) 
0.061785842037840037

>  <r_glide_ring_energy>  (1) 
0

>  <r_i_docking_score>  (1) 
-5.7209416083502571

>  <r_i_glide_ecoul>  (1) 
-1.3910042515880088

>  <r_i_glide_eff_state_penalty>  (1) 
0.061785842037840037

>  <r_i_glide_einternal>  (1) 
7.7628673656013447

>  <r_i_glide_emodel>  (1) 
-52.738072438344105

>  <r_i_glide_emodel_strain>  (1) 
0.80107862865085622

>  <r_i_glide_energy>  (1) 
-40.42954427603518

>  <r_i_glide_erotb>  (1) 
0.87550365807384167

>  <r_i_glide_esite>  (1) 
0

>  <r_i_glide_evdw>  (1) 
-39.038540024447173

>  <r_i_glide_gscore>  (1) 
-5.782727450388097

>  <r_i_glide_gscore_strain>  (1) 
0

>  <r_i_glide_hbond>  (1) 
-0.13850551432610922

>  <r_i_glide_ligand_efficiency>  (1) 
-0.15462004346892586

>  <r_i_glide_ligand_efficiency_ln>  (1) 
-1.2407381169510927

>  <r_i_glide_ligand_efficiency_sa>  (1) 
-0.51522828754960204

>  <r_i_glide_lipo>  (1) 
-3.231501038431551

>  <r_i_glide_metal>  (1) 
-0

>  <r_i_glide_rewards>  (1) 
-1.1276469167437182

>  <r_lp_Energy>  (1) 
29.690287999999999

>  <s_epik_Chemistry_Notes>  (1) 
This compound has an imine and may undergo hydrolysis.

>  <s_epik_cmdline>  (1) 
J2VwaWtfcHl0aG9uJywgJy1waHQnLCAnMS4wJywgJy1waCcsICc3LjQnLCAnLXRuJywgJzgnLCAnLW1hJywgJzUwMCcsICctaW1hZScsICc8aW5maWxlLm1hZT4nLCAnLW9tYWUnLCAnPG91dGZpbGUubWFlPic=

>  <s_epik_input>  (1) 
RkMoRikoRilDKD1PKVtDSDJdXFtDSF09W0NIXVxbQ0BIXTFPW0NASF0xW0NIMl1bQ0BIXTJbQ0BIXShbQ0gyXVtDSF09QzJbQ0gyXVtDSDNdKVtDQEhdKFtDSDNdKVtOSF1bQ0BASF0oW0NIMl1bQ0gyXVtPSF0pW0NAQEhdKFtPSF0pW0NAQEhdKE49W0NIXTMpW0NIMl1bQ0gyXVtDQEBdMyhbQ0gzXSlbT0hd

>  <s_glide_docking_method>  (1) 
confgen

>  <s_i_glide_gridfile>  (1) 
gpcr_5ht2c_6bqh_protein_autoprepared_prepared

>  <s_lp_Force_Field>  (1) 
S-OPLS

>  <s_lp_Variant>  (1) 
DiffSBDD_29_num_sample_50-1

>  <s_m_source_file>  (1) 
generated__ligand_DiffSBDD_2026-05-06_prepared.sdf

>  <GenAI_Model>  (1) 
DiffSBDD

>  <Protein>  (1) 
GPCR_5HT2C

$$$$
DiffSBDD_29_num_sample_50
     RDKit          3D

  0  0  0  0  0  0  0  0  0  0999 V3000
M  V30 BEGIN CTAB
M  V30 COUNTS 79 81 0 0 1
M  V30 BEGIN ATOM
M  V30 1 C 41.128171 29.715159 66.863313 0
M  V30 2 C 37.867359 31.777196 57.358274 0
M  V30 3 C 40.107713 30.044151 65.777058 0
M  V30 4 C 38.406934 27.263485 55.886790 0
M  V30 5 C 38.331651 35.368405 61.711899 0
M  V30 6 C 40.567010 27.000758 57.260470 0
M  V30 7 C 40.899896 32.975502 62.143646 0 CFG=2
M  V30 8 N 37.848023 31.658999 59.882178 0 CHG=1
M  V30 9 C 38.631845 33.938312 61.451758 0 CFG=1
M  V30 10 N 40.367078 28.121247 57.827916 0
M  V30 11 C 39.474361 33.267934 62.557604 0
M  V30 12 C 36.765357 32.632479 60.139603 0 CFG=2
M  V30 13 O 38.687305 29.015300 59.853844 0
M  V30 14 O 41.067134 31.794289 61.351005 0
M  V30 15 C 37.071855 35.691240 61.804392 0
M  V30 16 C 39.085674 25.018244 56.867132 0
M  V30 17 C 39.494466 36.343678 61.841612 0
M  V30 18 C 41.140780 30.790080 63.596465 0
M  V30 19 C 37.104860 33.416168 61.419340 0 CFG=2
M  V30 20 C 37.987771 28.138748 57.067052 0
M  V30 21 C 41.909403 28.404113 66.717102 0
M  V30 22 F 41.067480 27.372399 66.653292 0
M  V30 23 O 38.841397 33.301395 55.853512 0
M  V30 24 O 40.260963 26.021417 55.075808 0
M  V30 25 C 39.074840 37.818092 61.834429 0
M  V30 26 C 37.827384 30.885094 58.624224 0 CFG=2
M  V30 27 F 42.634828 28.436597 65.598348 0
M  V30 28 C 36.080917 34.616176 61.640242 0
M  V30 29 C 39.147565 32.490552 56.962835 0
M  V30 30 C 38.951461 29.844836 58.738886 0 CFG=2
M  V30 31 C 40.667081 31.078277 64.821035 0
M  V30 32 F 42.729657 28.228206 67.754197 0
M  V30 33 C 39.215204 28.951785 57.514066 0 CFG=1
M  V30 34 O 41.317640 30.475800 67.813087 0
M  V30 35 C 41.691227 31.791757 62.646978 0 CFG=2
M  V30 36 C 39.590778 26.347164 56.273307 0 CFG=1
M  V30 37 C 35.394031 31.937210 60.249542 0
M  V30 38 H 37.101803 32.547716 57.452186 0
M  V30 39 H 37.545883 31.169039 56.511575 0
M  V30 40 H 39.184801 30.408122 66.227112 0
M  V30 41 H 39.867808 29.133845 65.232669 0
M  V30 42 H 38.697543 27.919895 55.065021 0
M  V30 43 H 37.562071 26.681374 55.516493 0
M  V30 44 H 41.467542 26.421430 57.458484 0
M  V30 45 H 41.471387 33.833728 61.794375 0
M  V30 46 H 37.854186 30.970052 60.622341 0
M  V30 47 H 39.115915 33.871441 60.475879 0
M  V30 48 H 39.498084 33.883286 63.453406 0
M  V30 49 H 39.018090 32.324146 62.852274 0
M  V30 50 H 36.731510 33.360697 59.331906 0
M  V30 51 H 39.335989 28.323029 59.830946 0
M  V30 52 H 36.733742 36.699672 61.988590 0
M  V30 53 H 38.531412 25.178344 57.792589 0
M  V30 54 H 38.421320 24.498673 56.175388 0
M  V30 55 H 39.910223 24.342348 57.095437 0
M  V30 56 H 40.034848 36.126918 62.763483 0
M  V30 57 H 40.192495 36.162012 61.025105 0
M  V30 58 H 41.130919 29.763677 63.257751 0
M  V30 59 H 36.960502 32.731608 62.253544 0
M  V30 60 H 37.594284 27.524529 57.877244 0
M  V30 61 H 37.194310 28.821464 56.769206 0
M  V30 62 H 38.040521 32.990640 55.453062 0
M  V30 63 H 41.064854 25.580112 55.307803 0
M  V30 64 H 39.926665 38.483952 61.940225 0
M  V30 65 H 38.550691 38.088938 60.918715 0
M  V30 66 H 38.398472 38.016334 62.653585 0
M  V30 67 H 36.885289 30.337750 58.593341 0
M  V30 68 H 35.467403 34.819742 60.763336 0
M  V30 69 H 35.461777 34.493321 62.529503 0
M  V30 70 H 39.903295 31.776850 56.653625 0
M  V30 71 H 39.530785 33.110160 57.773094 0
M  V30 72 H 39.867417 30.373052 58.975562 0
M  V30 73 H 40.675917 32.101022 65.169434 0
M  V30 74 H 39.499565 29.592654 56.680295 0
M  V30 75 H 42.777281 31.832869 62.617545 0
M  V30 76 H 34.605658 32.654471 60.472999 0
M  V30 77 H 35.105079 31.453322 59.317274 0
M  V30 78 H 35.386581 31.182343 61.035862 0
M  V30 79 H 38.727339 32.152546 59.925057 0
M  V30 END ATOM
M  V30 BEGIN BOND
M  V30 1 1 3 1
M  V30 2 1 9 5
M  V30 3 2 10 6
M  V30 4 1 11 7
M  V30 5 1 11 9
M  V30 6 1 12 8
M  V30 7 1 14 7
M  V30 8 2 15 5
M  V30 9 1 17 5
M  V30 10 1 19 9
M  V30 11 1 19 12
M  V30 12 1 20 4
M  V30 13 1 21 1
M  V30 14 1 22 21
M  V30 15 1 25 17
M  V30 16 1 26 2
M  V30 17 1 26 8
M  V30 18 1 27 21
M  V30 19 1 28 15
M  V30 20 1 28 19
M  V30 21 1 29 2
M  V30 22 1 29 23
M  V30 23 1 30 13
M  V30 24 1 30 26
M  V30 25 1 31 3
M  V30 26 2 31 18
M  V30 27 1 32 21
M  V30 28 1 33 10
M  V30 29 1 33 20
M  V30 30 1 33 30
M  V30 31 2 34 1
M  V30 32 1 35 7
M  V30 33 1 35 14
M  V30 34 1 35 18
M  V30 35 1 36 4
M  V30 36 1 36 6
M  V30 37 1 36 16
M  V30 38 1 36 24 CFG=3
M  V30 39 1 37 12
M  V30 40 1 38 2
M  V30 41 1 39 2
M  V30 42 1 40 3
M  V30 43 1 41 3
M  V30 44 1 42 4
M  V30 45 1 43 4
M  V30 46 1 44 6
M  V30 47 1 7 45 CFG=3
M  V30 48 1 46 8
M  V30 49 1 9 47 CFG=3
M  V30 50 1 48 11
M  V30 51 1 49 11
M  V30 52 1 12 50 CFG=3
M  V30 53 1 51 13
M  V30 54 1 52 15
M  V30 55 1 53 16
M  V30 56 1 54 16
M  V30 57 1 55 16
M  V30 58 1 56 17
M  V30 59 1 57 17
M  V30 60 1 58 18
M  V30 61 1 19 59 CFG=1
M  V30 62 1 60 20
M  V30 63 1 61 20
M  V30 64 1 62 23
M  V30 65 1 63 24
M  V30 66 1 64 25
M  V30 67 1 65 25
M  V30 68 1 66 25
M  V30 69 1 26 67 CFG=3
M  V30 70 1 68 28
M  V30 71 1 69 28
M  V30 72 1 70 29
M  V30 73 1 71 29
M  V30 74 1 30 72 CFG=1
M  V30 75 1 73 31
M  V30 76 1 33 74 CFG=3
M  V30 77 1 35 75 CFG=3
M  V30 78 1 76 37
M  V30 79 1 77 37
M  V30 80 1 78 37
M  V30 81 1 79 8
M  V30 END BOND
M  V30 END CTAB
M  END
>  <i_epik_Tot_Q>  (1) 
1

>  <i_epik_Tot_abs_Q>  (1) 
1

>  <i_i_glide_confnum>  (1) 
5067

>  <i_i_glide_lignum>  (1) 
75

>  <i_i_glide_posenum>  (1) 
346

>  <i_i_glide_rotatable_bonds>  (1) 
17

>  <i_lp_mmshare_version>  (1) 
72125

>  <i_m_source_file_index>  (1) 
30

>  <i_f3d_flags>  (1) 
0

>  <num_sample>  (1) 
50

>  <b_lp_Chiralities_Consistent>  (1) 
1

>  <r_epik_Charging_Adjusted_Penalty>  (1) 
0.073066720001252791

>  <r_epik_Ionization_Penalty>  (1) 
0.041882768558209021

>  <r_epik_Ionization_Penalty_Charging>  (1) 
0.011280877963412759

>  <r_epik_Ionization_Penalty_Neutral>  (1) 
0.030601890594796264

>  <r_epik_State_Penalty>  (1) 
0.061785842037840037

>  <r_glide_ring_energy>  (1) 
0

>  <r_i_docking_score>  (1) 
-5.7164691697222967

>  <r_i_glide_ecoul>  (1) 
-4.6859519617518233

>  <r_i_glide_eff_state_penalty>  (1) 
0.061785842037840037

>  <r_i_glide_einternal>  (1) 
3.5222056169735687

>  <r_i_glide_emodel>  (1) 
-58.804426904175372

>  <r_i_glide_emodel_strain>  (1) 
0.81067314803095769

>  <r_i_glide_energy>  (1) 
-42.377256642913778

>  <r_i_glide_erotb>  (1) 
0.87550365807384167

>  <r_i_glide_esite>  (1) 
-0.038081101473306456

>  <r_i_glide_evdw>  (1) 
-37.691304681161952

>  <r_i_glide_gscore>  (1) 
-5.7782550117601366

>  <r_i_glide_gscore_strain>  (1) 
0

>  <r_i_glide_hbond>  (1) 
-0.046001624634008156

>  <r_i_glide_ligand_efficiency>  (1) 
-0.15449916674925127

>  <r_i_glide_ligand_efficiency_ln>  (1) 
-1.2397681498615256

>  <r_i_glide_ligand_efficiency_sa>  (1) 
-0.51482549950294698

>  <r_i_glide_lipo>  (1) 
-2.9058601033141778

>  <r_i_glide_metal>  (1) 
-0

>  <r_i_glide_rewards>  (1) 
-1.0763578120916142

>  <r_lp_Energy>  (1) 
33.860624000000001

>  <s_epik_Chemistry_Notes>  (1) 
This compound has an imine and may undergo hydrolysis.

>  <s_epik_cmdline>  (1) 
J2VwaWtfcHl0aG9uJywgJy1waHQnLCAnMS4wJywgJy1waCcsICc3LjQnLCAnLXRuJywgJzgnLCAnLW1hJywgJzUwMCcsICctaW1hZScsICc8aW5maWxlLm1hZT4nLCAnLW9tYWUnLCAnPG91dGZpbGUubWFlPic=

>  <s_epik_input>  (1) 
RkMoRikoRilDKD1PKVtDSDJdXFtDSF09W0NIXVxbQ0BIXTFPW0NASF0xW0NIMl1bQ0BIXTJbQ0BIXShbQ0gyXVtDSF09QzJbQ0gyXVtDSDNdKVtDQEhdKFtDSDNdKVtOSF1bQ0BASF0oW0NIMl1bQ0gyXVtPSF0pW0NAQEhdKFtPSF0pW0NAQEhdKE49W0NIXTMpW0NIMl1bQ0gyXVtDQEBdMyhbQ0gzXSlbT0hd

>  <s_glide_docking_method>  (1) 
confgen

>  <s_i_glide_gridfile>  (1) 
gpcr_5ht2c_6bqh_protein_autoprepared_prepared

>  <s_lp_Force_Field>  (1) 
S-OPLS

>  <s_lp_Variant>  (1) 
DiffSBDD_29_num_sample_50-3

>  <s_m_source_file>  (1) 
generated__ligand_DiffSBDD_2026-05-06_prepared.sdf

>  <GenAI_Model>  (1) 
DiffSBDD

>  <Protein>  (1) 
GPCR_5HT2C

$$$$
DiffSBDD_10_num_sample_50
     RDKit          3D

  0  0  0  0  0  0  0  0  0  0999 V3000
M  V30 BEGIN CTAB
M  V30 COUNTS 64 66 0 0 1
M  V30 BEGIN ATOM
M  V30 1 C 39.021000 31.425680 54.131649 0
M  V30 2 C 40.076545 30.360500 54.409170 0
M  V30 3 C 37.479517 24.860917 56.620641 0
M  V30 4 N 38.388969 28.833463 55.273896 0 CFG=2 CHG=1
M  V30 5 O 37.258124 31.221388 61.853507 0 CHG=-1
M  V30 6 O 38.267421 33.880588 55.946113 0
M  V30 7 C 37.262262 35.714089 61.421946 0
M  V30 8 C 38.106287 25.784198 57.489121 0
M  V30 9 C 39.879260 34.679611 61.443898 0
M  V30 10 O 39.363529 29.960301 61.243592 0 CHG=-1
M  V30 11 N 36.429563 33.645864 60.488626 0
M  V30 12 C 38.403918 27.079596 57.031891 0
M  V30 13 C 38.527700 32.045624 59.052593 0
M  V30 14 C 37.498538 34.411942 60.945051 0
M  V30 15 C 39.467159 28.954162 54.275256 0 CFG=1
M  V30 16 C 40.053716 28.913679 51.704066 0
M  V30 17 C 38.075875 27.436927 55.724772 0
M  V30 18 O 39.467412 31.776987 62.973280 0
M  V30 19 C 37.274663 29.795093 55.093418 0
M  V30 20 N 38.136513 31.669488 56.421040 0
M  V30 21 C 39.052895 28.568611 52.819635 0
M  V30 22 P 38.772030 31.266708 61.726591 0
M  V30 23 C 40.756491 36.797290 62.489000 0
M  V30 24 C 38.320566 36.490709 61.917406 0
M  V30 25 C 38.309255 32.956549 56.755936 0
M  V30 26 N 38.535605 33.136683 58.069538 0
M  V30 27 C 37.165706 25.234481 55.293521 0
M  V30 28 O 39.003676 27.984139 57.854114 0 CHG=-1
M  V30 29 F 37.175602 23.621726 57.059868 0
M  V30 30 C 37.467306 26.532989 54.841386 0
M  V30 31 C 38.823396 33.890541 60.942536 0
M  V30 32 C 37.807383 31.247450 55.064398 0 CFG=1
M  V30 33 C 39.127924 32.479486 60.409822 0 CFG=2
M  V30 34 C 39.626106 35.971272 61.937259 0
M  V30 35 H 38.710352 31.376456 53.093468 0
M  V30 36 H 39.465175 32.410585 54.253905 0
M  V30 37 H 40.932717 30.506372 53.758436 0
M  V30 38 H 40.457475 30.491124 55.422300 0
M  V30 39 H 36.267432 36.114246 61.415609 0
M  V30 40 H 38.350838 25.497869 58.501450 0
M  V30 41 H 40.885037 34.287537 61.457588 0
M  V30 42 H 35.492273 33.950279 60.694544 0
M  V30 43 H 36.553468 32.637054 60.448565 0
M  V30 44 H 37.497489 31.710494 59.174663 0
M  V30 45 H 39.067400 31.162866 58.707679 0
M  V30 46 H 40.183652 28.227461 54.654327 0
M  V30 47 H 39.670497 28.578017 50.739161 0
M  V30 48 H 40.223725 29.986341 51.622126 0
M  V30 49 H 41.014482 28.425398 51.852405 0
M  V30 50 H 36.710649 29.569198 54.191694 0
M  V30 51 H 36.581405 29.690159 55.926423 0
M  V30 52 H 38.175719 30.966596 57.144719 0
M  V30 53 H 38.903505 27.492937 52.760025 0
M  V30 54 H 38.099453 29.021271 52.551599 0
M  V30 55 H 40.404005 37.779028 62.801229 0
M  V30 56 H 41.204731 36.308433 63.355063 0
M  V30 57 H 41.514733 36.899510 61.717826 0
M  V30 58 H 38.128576 37.484985 62.289639 0
M  V30 59 H 38.675010 34.074047 58.414037 0
M  V30 60 H 36.685755 24.529784 54.630684 0
M  V30 61 H 37.214687 26.828867 53.835631 0
M  V30 62 H 37.008945 31.895720 54.701161 0
M  V30 63 H 40.204951 32.458198 60.257819 0
M  V30 64 H 38.833900 29.208287 56.106068 0
M  V30 END ATOM
M  V30 BEGIN BOND
M  V30 1 1 2 1
M  V30 2 2 8 3
M  V30 3 1 12 8
M  V30 4 1 14 7
M  V30 5 1 14 11
M  V30 6 1 15 2
M  V30 7 1 15 4
M  V30 8 1 17 4
M  V30 9 2 17 12
M  V30 10 1 19 4
M  V30 11 1 21 15
M  V30 12 1 21 16
M  V30 13 1 22 5
M  V30 14 1 22 10
M  V30 15 2 22 18
M  V30 16 2 24 7
M  V30 17 2 25 6
M  V30 18 1 25 20
M  V30 19 1 26 13
M  V30 20 1 26 25
M  V30 21 1 27 3
M  V30 22 1 28 12
M  V30 23 1 29 3
M  V30 24 1 30 17
M  V30 25 2 30 27
M  V30 26 1 31 9
M  V30 27 2 31 14
M  V30 28 1 32 1
M  V30 29 1 32 19
M  V30 30 1 32 20
M  V30 31 1 33 13
M  V30 32 1 33 22
M  V30 33 1 33 31
M  V30 34 2 34 9
M  V30 35 1 34 23
M  V30 36 1 34 24
M  V30 37 1 35 1
M  V30 38 1 36 1
M  V30 39 1 37 2
M  V30 40 1 38 2
M  V30 41 1 39 7
M  V30 42 1 40 8
M  V30 43 1 41 9
M  V30 44 1 42 11
M  V30 45 1 43 11
M  V30 46 1 44 13
M  V30 47 1 45 13
M  V30 48 1 15 46 CFG=1
M  V30 49 1 47 16
M  V30 50 1 48 16
M  V30 51 1 49 16
M  V30 52 1 50 19
M  V30 53 1 51 19
M  V30 54 1 52 20
M  V30 55 1 53 21
M  V30 56 1 54 21
M  V30 57 1 55 23
M  V30 58 1 56 23
M  V30 59 1 57 23
M  V30 60 1 58 24
M  V30 61 1 59 26
M  V30 62 1 60 27
M  V30 63 1 61 30
M  V30 64 1 32 62 CFG=3
M  V30 65 1 33 63 CFG=3
M  V30 66 1 4 64 CFG=1
M  V30 END BOND
M  V30 END CTAB
M  END
>  <i_epik_Tot_Q>  (1) 
-2

>  <i_epik_Tot_abs_Q>  (1) 
4

>  <i_i_glide_confnum>  (1) 
166

>  <i_i_glide_lignum>  (1) 
35

>  <i_i_glide_posenum>  (1) 
229

>  <i_i_glide_rotatable_bonds>  (1) 
9

>  <i_lp_mmshare_version>  (1) 
72125

>  <i_m_source_file_index>  (1) 
11

>  <i_f3d_flags>  (1) 
0

>  <num_sample>  (1) 
50

>  <b_lp_Chiralities_Consistent>  (1) 
1

>  <r_epik_Charging_Adjusted_Penalty>  (1) 
1.3613781813755943

>  <r_epik_Ionization_Penalty>  (1) 
0.45221775539962494

>  <r_epik_Ionization_Penalty_Charging>  (1) 
0.45010221832775887

>  <r_epik_Ionization_Penalty_Neutral>  (1) 
0.0021155370718660637

>  <r_epik_State_Penalty>  (1) 
0.91127596304783554

>  <r_glide_ring_energy>  (1) 
0

>  <r_i_docking_score>  (1) 
-5.7115271572298294

>  <r_i_glide_ecoul>  (1) 
-4.0851066095790696

>  <r_i_glide_eff_state_penalty>  (1) 
0.91127596304783554

>  <r_i_glide_einternal>  (1) 
20.518739107269365

>  <r_i_glide_emodel>  (1) 
-51.91511776423134

>  <r_i_glide_emodel_strain>  (1) 
0.70652092894383145

>  <r_i_glide_energy>  (1) 
-43.502095623250867

>  <r_i_glide_erotb>  (1) 
0.58773720055558498

>  <r_i_glide_esite>  (1) 
-0.18800078615592719

>  <r_i_glide_evdw>  (1) 
-39.416989013671795

>  <r_i_glide_gscore>  (1) 
-6.6228031202776645

>  <r_i_glide_gscore_strain>  (1) 
0

>  <r_i_glide_hbond>  (1) 
-0.16

>  <r_i_glide_ligand_efficiency>  (1) 
-0.16798609285970087

>  <r_i_glide_ligand_efficiency_ln>  (1) 
-1.2618365519423955

>  <r_i_glide_ligand_efficiency_sa>  (1) 
-0.54420972887878216

>  <r_i_glide_lipo>  (1) 
-4.0610628065630117

>  <r_i_glide_metal>  (1) 
-0

>  <r_i_glide_rewards>  (1) 
-0.21786128599386068

>  <r_lp_Energy>  (1) 
33.264645999999999

>  <s_epik_cmdline>  (1) 
J2VwaWtfcHl0aG9uJywgJy1waHQnLCAnMS4wJywgJy1waCcsICc3LjQnLCAnLXRuJywgJzgnLCAnLW1hJywgJzUwMCcsICctaW1hZScsICc8aW5maWxlLm1hZT4nLCAnLW9tYWUnLCAnPG91dGZpbGUubWFlPic=

>  <s_epik_input>  (1) 
RmMxW2NIXWMoW09IXSljKFtjSF1bY0hdMSlOMltDQEBIXShbQ0gyXVtDSDNdKVtDSDJdW0NIMl1bQ0BASF0oW0NIMl0yKVtOSF1DKD1PKVtOSF1bQ0gyXVtDQEhdKFAoPU8pKFtPSF0pW09IXSljM1tjSF1jKFtDSDNdKVtjSF1bY0hdYzNbTkgyXQ==

>  <s_glide_docking_method>  (1) 
confgen

>  <s_i_glide_gridfile>  (1) 
gpcr_5ht2c_6bqh_protein_autoprepared_prepared

>  <s_lp_Force_Field>  (1) 
S-OPLS

>  <s_lp_Variant>  (1) 
DiffSBDD_10_num_sample_50-4

>  <s_m_source_file>  (1) 
generated__ligand_DiffSBDD_2026-05-06_prepared.sdf

>  <GenAI_Model>  (1) 
DiffSBDD

>  <Protein>  (1) 
GPCR_5HT2C

$$$$
DiffSBDD_12_num_sample_50
     RDKit          3D

  0  0  0  0  0  0  0  0  0  0999 V3000
M  V30 BEGIN CTAB
M  V30 COUNTS 70 72 0 0 1
M  V30 BEGIN ATOM
M  V30 1 C 40.494755 35.755746 61.632847 0
M  V30 2 C 38.267523 28.255140 56.008939 0
M  V30 3 C 38.088515 30.572887 58.463437 0
M  V30 4 O 37.725543 32.996539 58.936078 0
M  V30 5 N 38.155830 29.645892 56.031983 0
M  V30 6 F 39.867374 29.221422 49.453490 0
M  V30 7 N 38.100413 29.626410 59.302925 0
M  V30 8 C 38.066363 36.515795 61.859862 0
M  V30 9 C 39.473316 25.973020 58.064175 0
M  V30 10 C 39.515611 36.725380 62.240796 0
M  V30 11 C 39.525103 34.785329 60.945058 0
M  V30 12 C 37.042397 34.615969 60.576894 0
M  V30 13 C 39.755630 29.051256 50.778487 0
M  V30 14 C 39.651144 30.551995 52.866872 0
M  V30 15 N 37.877228 27.608552 57.174108 0
M  V30 16 N 38.624462 30.411068 54.963636 0
M  V30 17 C 38.676340 31.945387 58.776915 0
M  V30 18 C 37.681029 37.466580 60.702144 0
M  V30 19 N 38.719629 27.619785 54.967425 0
M  V30 20 O 34.876612 33.656029 59.401451 0
M  V30 21 C 39.043609 27.509368 52.626662 0
M  V30 22 C 37.471800 30.427257 57.073300 0
M  V30 23 O 40.493760 26.421430 57.207591 0
M  V30 24 C 37.058600 33.114611 60.193064 0 CFG=1
M  V30 25 C 37.137284 36.739830 63.074728 0
M  V30 26 C 38.994626 28.294100 53.756556 0
M  V30 27 C 39.227501 27.909337 51.220946 0
M  V30 28 C 39.106218 29.788265 53.826118 0
M  V30 29 C 40.313715 30.087400 51.626343 0
M  V30 30 C 33.521034 33.343337 59.218206 0
M  V30 31 C 38.110978 26.188408 57.392606 0
M  V30 32 C 35.613813 32.616939 60.027065 0
M  V30 33 O 39.867393 37.621433 62.995863 0
M  V30 34 N 38.150746 35.080387 61.447458 0 CFG=2 CHG=1
M  V30 35 H 41.074985 35.271632 62.418612 0
M  V30 36 H 41.169457 36.248916 60.933179 0
M  V30 37 H 38.547668 29.871417 60.174862 0
M  V30 38 H 36.464017 30.021424 57.179168 0
M  V30 39 H 39.530757 26.499764 59.016801 0
M  V30 40 H 39.643749 24.916839 58.253331 0
M  V30 41 H 39.792966 33.750263 61.156976 0
M  V30 42 H 39.574252 34.917959 59.864275 0
M  V30 43 H 36.985634 35.202690 59.658615 0
M  V30 44 H 36.130601 34.831377 61.134560 0
M  V30 45 H 39.680129 31.620682 53.023312 0
M  V30 46 H 37.562278 28.122079 57.990628 0
M  V30 47 H 38.571260 31.417810 55.030692 0
M  V30 48 H 39.329012 31.889515 59.650012 0
M  V30 49 H 37.889780 38.507754 60.954022 0
M  V30 50 H 38.220964 37.231669 59.785710 0
M  V30 51 H 36.616189 37.407104 60.476726 0
M  V30 52 H 38.875426 26.454121 52.786602 0
M  V30 53 H 39.305364 32.234506 57.934409 0
M  V30 54 H 37.406062 31.441221 56.682323 0
M  V30 55 H 40.098857 27.019855 56.585486 0
M  V30 56 H 37.553902 32.523443 60.964760 0
M  V30 57 H 36.901969 37.797696 63.194339 0
M  V30 58 H 36.187799 36.215815 62.972905 0
M  V30 59 H 37.591750 36.421451 64.012891 0
M  V30 60 H 38.918930 27.195375 50.470758 0
M  V30 61 H 41.254353 29.621436 51.853490 0
M  V30 62 H 40.535332 30.961342 51.012185 0
M  V30 63 H 33.023482 34.131654 58.653585 0
M  V30 64 H 33.467867 32.421235 58.653500 0
M  V30 65 H 33.003792 33.221436 60.167672 0
M  V30 66 H 37.320883 25.806074 58.038436 0
M  V30 67 H 38.044509 25.623250 56.461861 0
M  V30 68 H 35.572296 31.690305 59.453432 0
M  V30 69 H 35.178456 32.412372 61.006597 0
M  V30 70 H 38.077321 34.563785 62.312358 0
M  V30 END ATOM
M  V30 BEGIN BOND
M  V30 1 1 5 2
M  V30 2 2 7 3
M  V30 3 1 10 1
M  V30 4 1 10 8
M  V30 5 1 11 1
M  V30 6 1 13 6
M  V30 7 1 15 2
M  V30 8 1 16 5
M  V30 9 1 17 3
M  V30 10 1 17 4
M  V30 11 1 18 8
M  V30 12 2 19 2
M  V30 13 1 22 3
M  V30 14 1 22 5
M  V30 15 1 23 9
M  V30 16 1 24 4
M  V30 17 1 24 12
M  V30 18 1 25 8
M  V30 19 1 26 19
M  V30 20 2 26 21
M  V30 21 2 27 13
M  V30 22 1 27 21
M  V30 23 2 28 14
M  V30 24 1 28 16
M  V30 25 1 28 26
M  V30 26 1 29 13
M  V30 27 1 29 14
M  V30 28 1 30 20
M  V30 29 1 31 9
M  V30 30 1 31 15
M  V30 31 1 32 20
M  V30 32 1 32 24
M  V30 33 2 33 10
M  V30 34 1 34 8
M  V30 35 1 34 11
M  V30 36 1 34 12
M  V30 37 1 35 1
M  V30 38 1 36 1
M  V30 39 1 37 7
M  V30 40 1 38 22
M  V30 41 1 39 9
M  V30 42 1 40 9
M  V30 43 1 41 11
M  V30 44 1 42 11
M  V30 45 1 43 12
M  V30 46 1 44 12
M  V30 47 1 45 14
M  V30 48 1 46 15
M  V30 49 1 47 16
M  V30 50 1 48 17
M  V30 51 1 49 18
M  V30 52 1 50 18
M  V30 53 1 51 18
M  V30 54 1 52 21
M  V30 55 1 53 17
M  V30 56 1 54 22
M  V30 57 1 55 23
M  V30 58 1 24 56 CFG=1
M  V30 59 1 57 25
M  V30 60 1 58 25
M  V30 61 1 59 25
M  V30 62 1 60 27
M  V30 63 1 61 29
M  V30 64 1 62 29
M  V30 65 1 63 30
M  V30 66 1 64 30
M  V30 67 1 65 30
M  V30 68 1 66 31
M  V30 69 1 67 31
M  V30 70 1 68 32
M  V30 71 1 69 32
M  V30 72 1 34 70 CFG=1
M  V30 END BOND
M  V30 END CTAB
M  END
>  <i_epik_Tot_Q>  (1) 
1

>  <i_epik_Tot_abs_Q>  (1) 
1

>  <i_i_glide_confnum>  (1) 
778

>  <i_i_glide_lignum>  (1) 
41

>  <i_i_glide_posenum>  (1) 
47

>  <i_i_glide_rotatable_bonds>  (1) 
13

>  <i_lp_mmshare_version>  (1) 
72125

>  <i_m_source_file_index>  (1) 
13

>  <i_f3d_flags>  (1) 
0

>  <num_sample>  (1) 
50

>  <b_lp_Chiralities_Consistent>  (1) 
1

>  <r_epik_Charging_Adjusted_Penalty>  (1) 
2.2216491605189868

>  <r_epik_Ionization_Penalty>  (1) 
0.91881204336881139

>  <r_epik_Ionization_Penalty_Charging>  (1) 
0.90548466078319156

>  <r_epik_Ionization_Penalty_Neutral>  (1) 
0.013327382585619883

>  <r_epik_State_Penalty>  (1) 
1.3161644997357953

>  <r_glide_ring_energy>  (1) 
0

>  <r_i_docking_score>  (1) 
-5.7073252582713305

>  <r_i_glide_ecoul>  (1) 
0.89698664200207201

>  <r_i_glide_eff_state_penalty>  (1) 
1.3161644997357953

>  <r_i_glide_einternal>  (1) 
5.2844101236962047

>  <r_i_glide_emodel>  (1) 
-60.424290056444221

>  <r_i_glide_emodel_strain>  (1) 
3.523444221274346

>  <r_i_glide_energy>  (1) 
-45.733276206565051

>  <r_i_glide_erotb>  (1) 
0.96958307808003152

>  <r_i_glide_esite>  (1) 
-0.07693322948702748

>  <r_i_glide_evdw>  (1) 
-46.630262848567121

>  <r_i_glide_gscore>  (1) 
-7.023489758007126

>  <r_i_glide_gscore_strain>  (1) 
0

>  <r_i_glide_hbond>  (1) 
0

>  <r_i_glide_ligand_efficiency>  (1) 
-0.1678625075962156

>  <r_i_glide_ligand_efficiency_ln>  (1) 
-1.2609082346031895

>  <r_i_glide_ligand_efficiency_sa>  (1) 
-0.54380936060073137

>  <r_i_glide_lipo>  (1) 
-4.1525647448032386

>  <r_i_glide_metal>  (1) 
-0

>  <r_i_glide_rewards>  (1) 
-1.566609715668847

>  <r_lp_Energy>  (1) 
33.115794999999999

>  <r_lp_tautomer_probability>  (1) 
0.49996700039999997

>  <s_epik_Chemistry_Notes>  (1) 
This compound has an imine and may undergo hydrolysis.

>  <s_epik_cmdline>  (1) 
J2VwaWtfcHl0aG9uJywgJy1waHQnLCAnMS4wJywgJy1waCcsICc3LjQnLCAnLXRuJywgJzgnLCAnLW1hJywgJzUwMCcsICctaW1hZScsICc8aW5maWxlLm1hZT4nLCAnLW9tYWUnLCAnPG91dGZpbGUubWFlPic=

>  <s_epik_input>  (1) 
W0NIM11DMShbQ0gzXSlDKD1PKVtDSDJdW0NIMl1OMVtDSDJdW0NAQEhdKFtDSDJdT1tDSDNdKU8vW0NIXT1DKFxbTkgyXSlbQ0gyXU4oQyg9TjIpW05IXVtDSDJdW0NIMl1bT0hdKVtOSF1DKEMyMyk9W0NIXVtDSDJdQyhGKT1bQ0hdW0NIXT0z

>  <s_glide_docking_method>  (1) 
confgen

>  <s_i_glide_gridfile>  (1) 
gpcr_5ht2c_6bqh_protein_autoprepared_prepared

>  <s_lp_Force_Field>  (1) 
S-OPLS

>  <s_lp_Variant>  (1) 
DiffSBDD_12_num_sample_50-3

>  <s_m_source_file>  (1) 
generated__ligand_DiffSBDD_2026-05-06_prepared.sdf

>  <GenAI_Model>  (1) 
DiffSBDD

>  <Protein>  (1) 
GPCR_5HT2C

$$$$
DiffSBDD_40_num_sample_50
     RDKit          3D

  0  0  0  0  0  0  0  0  0  0999 V3000
M  V30 BEGIN CTAB
M  V30 COUNTS 66 69 0 0 1
M  V30 BEGIN ATOM
M  V30 1 C 39.527053 25.619823 58.031400 0
M  V30 2 C 38.442124 30.769040 57.811364 0
M  V30 3 O 42.667375 32.821384 62.052185 0 CHG=-1
M  V30 4 C 39.607032 31.165784 60.886441 0
M  V30 5 O 39.414185 31.552102 62.240362 0
M  V30 6 C 37.337563 33.016937 60.272991 0 CFG=2
M  V30 7 C 38.294095 29.852091 59.053990 0 CFG=2
M  V30 8 O 40.708077 32.627386 63.955346 0
M  V30 9 C 38.283970 30.546513 60.434944 0 CFG=2
M  V30 10 C 40.144663 26.984149 57.709837 0 CFG=2
M  V30 11 C 40.308446 32.580825 62.591457 0 CFG=1
M  V30 12 C 35.815558 31.527944 59.915758 0
M  V30 13 C 37.146308 31.544776 60.668174 0 CFG=2
M  V30 14 C 37.345822 34.042880 61.367530 0
M  V30 15 O 39.176300 28.003005 57.860343 0
M  V30 16 O 37.305700 26.033795 57.219589 0
M  V30 17 C 35.977065 33.020830 59.603812 0 CFG=1
M  V30 18 C 40.603039 27.061459 56.257654 0
M  V30 19 P 41.970399 31.947752 63.017327 0
M  V30 20 C 37.467145 26.046171 53.930511 0
M  V30 21 O 38.087338 24.995512 54.653512 0
M  V30 22 N 37.467509 30.421396 56.755897 0 CHG=1
M  V30 23 O 39.542587 26.687805 55.386316 0
M  V30 24 C 39.355904 28.749029 59.039452 0
M  V30 25 C 38.449795 25.238042 57.008320 0 CFG=1
M  V30 26 C 35.123752 34.034214 60.322863 0
M  V30 27 O 41.867404 30.480851 62.832029 0
M  V30 28 C 39.035350 25.396212 55.587394 0 CFG=1
M  V30 29 C 35.873472 34.313481 61.640036 0
M  V30 30 C 37.800780 30.964517 55.425275 0
M  V30 31 H 39.114728 25.621597 59.041218 0
M  V30 32 H 40.304615 24.857967 58.015015 0
M  V30 33 H 38.292497 31.819834 58.031361 0
M  V30 34 H 39.453692 30.696150 57.410767 0
M  V30 35 H 40.428020 30.455641 60.824637 0
M  V30 36 H 39.868417 32.013059 60.253536 0
M  V30 37 H 38.136447 33.190514 59.557521 0
M  V30 38 H 37.337199 29.333672 58.981121 0
M  V30 39 H 38.161683 29.734167 61.140213 0
M  V30 40 H 41.014371 27.149070 58.351377 0
M  V30 41 H 40.151899 33.562074 62.146601 0
M  V30 42 H 35.785395 30.902062 59.033475 0
M  V30 43 H 34.971577 31.316782 60.570193 0
M  V30 44 H 36.892974 31.528772 61.730246 0
M  V30 45 H 37.844159 34.955408 61.037019 0
M  V30 46 H 37.862881 33.689484 62.253449 0
M  V30 47 H 37.607343 26.930906 57.220543 0
M  V30 48 H 36.073259 33.221436 58.537433 0
M  V30 49 H 40.921928 28.076091 56.014331 0
M  V30 50 H 41.467124 26.421519 56.125539 0
M  V30 51 H 36.667706 25.625053 53.323604 0
M  V30 52 H 37.036760 26.801926 54.590727 0
M  V30 53 H 38.176835 26.528116 53.257994 0
M  V30 54 H 37.366242 29.420138 56.694240 0
M  V30 55 H 39.262962 28.096287 59.908189 0
M  V30 56 H 40.359218 29.180341 59.041310 0
M  V30 57 H 38.160224 24.195272 57.147719 0
M  V30 58 H 35.067062 34.943593 59.725413 0
M  V30 59 H 34.108846 33.663827 60.486282 0
M  V30 60 H 39.867601 24.703300 55.459403 0
M  V30 61 H 35.808025 35.269817 62.126654 0
M  V30 62 H 35.472019 33.621443 62.354019 0
M  V30 63 H 37.009895 30.714792 54.716551 0
M  V30 64 H 37.884484 32.051861 55.466731 0
M  V30 65 H 38.742430 30.552773 55.055788 0
M  V30 66 H 36.565180 30.858583 56.996631 0
M  V30 END ATOM
M  V30 BEGIN BOND
M  V30 1 1 5 4
M  V30 2 1 7 2
M  V30 3 1 9 4
M  V30 4 1 9 7
M  V30 5 1 10 1
M  V30 6 1 11 5
M  V30 7 1 11 8
M  V30 8 1 13 6
M  V30 9 1 13 9
M  V30 10 1 13 12
M  V30 11 1 14 6
M  V30 12 1 15 10
M  V30 13 1 17 6
M  V30 14 1 17 12
M  V30 15 1 18 10
M  V30 16 1 19 3
M  V30 17 1 19 8
M  V30 18 1 19 11
M  V30 19 1 21 20
M  V30 20 1 22 2
M  V30 21 1 23 18
M  V30 22 1 24 7
M  V30 23 1 24 15
M  V30 24 1 25 1
M  V30 25 1 25 16
M  V30 26 1 26 17
M  V30 27 2 27 19
M  V30 28 1 28 21
M  V30 29 1 28 23
M  V30 30 1 28 25
M  V30 31 1 29 14
M  V30 32 1 29 26
M  V30 33 1 30 22
M  V30 34 1 31 1
M  V30 35 1 32 1
M  V30 36 1 33 2
M  V30 37 1 34 2
M  V30 38 1 35 4
M  V30 39 1 36 4
M  V30 40 1 6 37 CFG=3
M  V30 41 1 7 38 CFG=3
M  V30 42 1 9 39 CFG=1
M  V30 43 1 10 40 CFG=1
M  V30 44 1 11 41 CFG=3
M  V30 45 1 42 12
M  V30 46 1 43 12
M  V30 47 1 13 44 CFG=1
M  V30 48 1 45 14
M  V30 49 1 46 14
M  V30 50 1 47 16
M  V30 51 1 17 48 CFG=3
M  V30 52 1 49 18
M  V30 53 1 50 18
M  V30 54 1 51 20
M  V30 55 1 52 20
M  V30 56 1 53 20
M  V30 57 1 54 22
M  V30 58 1 55 24
M  V30 59 1 56 24
M  V30 60 1 25 57 CFG=1
M  V30 61 1 58 26
M  V30 62 1 59 26
M  V30 63 1 28 60 CFG=1
M  V30 64 1 61 29
M  V30 65 1 62 29
M  V30 66 1 63 30
M  V30 67 1 64 30
M  V30 68 1 65 30
M  V30 69 1 66 22
M  V30 END BOND
M  V30 END CTAB
M  END
>  <i_epik_Tot_Q>  (1) 
0

>  <i_epik_Tot_abs_Q>  (1) 
2

>  <i_i_glide_confnum>  (1) 
311

>  <i_i_glide_lignum>  (1) 
94

>  <i_i_glide_posenum>  (1) 
324

>  <i_i_glide_rotatable_bonds>  (1) 
12

>  <i_lp_mmshare_version>  (1) 
72125

>  <i_m_source_file_index>  (1) 
41

>  <i_f3d_flags>  (1) 
0

>  <num_sample>  (1) 
50

>  <b_lp_Chiralities_Consistent>  (1) 
1

>  <r_epik_Charging_Adjusted_Penalty>  (1) 
0.001220089536417487

>  <r_epik_Ionization_Penalty>  (1) 
0.0012207097255128069

>  <r_epik_Ionization_Penalty_Charging>  (1) 
0.001220089536417487

>  <r_epik_Ionization_Penalty_Neutral>  (1) 
6.2018909532001439e-07

>  <r_epik_State_Penalty>  (1) 
-0

>  <r_glide_ring_energy>  (1) 
2.4996791549734296

>  <r_i_docking_score>  (1) 
-5.6974876530697678

>  <r_i_glide_ecoul>  (1) 
-7.7947677554885777

>  <r_i_glide_eff_state_penalty>  (1) 
-0

>  <r_i_glide_einternal>  (1) 
17.677731794762401

>  <r_i_glide_emodel>  (1) 
-41.128058254488266

>  <r_i_glide_emodel_strain>  (1) 
1.2981187627886186

>  <r_i_glide_energy>  (1) 
-37.237081899253482

>  <r_i_glide_erotb>  (1) 
0.69437166535620165

>  <r_i_glide_esite>  (1) 
-0.098937487901216023

>  <r_i_glide_evdw>  (1) 
-29.442314143764904

>  <r_i_glide_gscore>  (1) 
-5.6974876530697678

>  <r_i_glide_gscore_strain>  (1) 
0

>  <r_i_glide_hbond>  (1) 
-0.32786529503032158

>  <r_i_glide_ligand_efficiency>  (1) 
-0.1899162551023256

>  <r_i_glide_ligand_efficiency_ln>  (1) 
-1.2945312738775772

>  <r_i_glide_ligand_efficiency_sa>  (1) 
-0.59011396126297155

>  <r_i_glide_lipo>  (1) 
-1.925977279188142

>  <r_i_glide_metal>  (1) 
-0

>  <r_i_glide_rewards>  (1) 
-1.3977483857947575

>  <r_lp_Energy>  (1) 
49.981364999999997

>  <r_lp_tautomer_probability>  (1) 
1

>  <s_epik_Chemistry_Notes>  (1) 
This compound contains an acetal/aminal-like group ( X-CH(R)-Y where X, Y are N, S, or O) that may be acid/base labile, releasing an aldehyde.

>  <s_epik_cmdline>  (1) 
J2VwaWtfcHl0aG9uJywgJy1waHQnLCAnMS4wJywgJy1waCcsICc3LjQnLCAnLXRuJywgJzgnLCAnLW1hJywgJzUwMCcsICctaW1hZScsICc8aW5maWxlLm1hZT4nLCAnLW9tYWUnLCAnPG91dGZpbGUubWFlPic=

>  <s_epik_input>  (1) 
W0NIMl0xT1tDQEhdKE9bQ0gzXSlbQ0BIXShbT0hdKVtDSDJdW0NAQEhdMU9bQ0gyXVtDQEhdKFtDSDJdW05IXVtDSDNdKVtDQEBIXShbQ0gyXU9bQ0BIXTJPW1BAXTIoPU8pW09IXSlbQ0BASF0zW0NIMl1bQ0BIXShbQ0BIXTM0KVtDSDJdW0NIMl1bQ0gyXTQ=

>  <s_glide_docking_method>  (1) 
confgen

>  <s_i_glide_gridfile>  (1) 
gpcr_5ht2c_6bqh_protein_autoprepared_prepared

>  <s_lp_Force_Field>  (1) 
S-OPLS

>  <s_lp_Variant>  (1) 
DiffSBDD_40_num_sample_50-1

>  <s_m_source_file>  (1) 
generated__ligand_DiffSBDD_2026-05-06_prepared.sdf

>  <GenAI_Model>  (1) 
DiffSBDD

>  <Protein>  (1) 
GPCR_5HT2C

$$$$
DiffSBDD_30_num_sample_50
     RDKit          3D

  0  0  0  0  0  0  0  0  0  0999 V3000
M  V30 BEGIN CTAB
M  V30 COUNTS 68 67 0 0 1
M  V30 BEGIN ATOM
M  V30 1 C 38.210760 30.143063 54.840370 0
M  V30 2 C 38.363719 33.001547 60.553501 0 CFG=2
M  V30 3 C 39.251497 33.094872 61.804124 0
M  V30 4 O 38.824552 38.313822 61.453498 0
M  V30 5 C 40.435795 36.819369 62.432781 0
M  V30 6 C 36.424415 33.923370 59.133052 0
M  V30 7 C 39.178658 26.681954 55.408890 0
M  V30 8 C 39.692118 29.862242 52.262644 0
M  V30 9 C 38.130746 31.049041 58.980374 0
M  V30 10 C 37.230523 34.081370 60.453809 0 CFG=2
M  V30 11 C 38.340737 28.748261 54.209511 0 CFG=1
M  V30 12 C 37.809631 35.517210 60.529569 0
M  V30 13 C 38.622655 28.823677 52.679376 0 CFG=2
M  V30 14 C 37.856970 29.320867 57.310853 0
M  V30 15 C 35.110821 34.704721 59.051332 0
M  V30 16 C 37.851736 31.547885 60.405627 0
M  V30 17 C 39.057201 37.191653 61.905654 0
M  V30 18 C 37.979410 36.108799 61.946625 0 CFG=1
M  V30 19 C 37.399785 30.221762 56.134493 0
M  V30 20 C 38.869541 27.413767 52.101784 0
M  V30 21 O 36.042156 30.021292 58.653500 0
M  V30 22 C 39.108623 27.367035 50.595109 0
M  V30 23 N 37.479498 29.792424 58.644419 0
M  V30 24 C 36.678552 36.659520 62.547419 0
M  V30 25 C 39.376402 27.936472 54.974111 0
M  V30 26 H 37.722115 30.814154 54.134440 0
M  V30 27 H 39.202042 30.566823 55.008218 0
M  V30 28 H 39.044967 33.197564 59.723168 0
M  V30 29 H 38.666251 33.016969 62.718972 0
M  V30 30 H 39.990354 32.292778 61.819199 0
M  V30 31 H 39.821183 34.020075 61.816774 0
M  V30 32 H 40.402640 35.916193 63.042118 0
M  V30 33 H 41.131768 36.661162 61.609368 0
M  V30 34 H 40.816376 37.621286 63.053637 0
M  V30 35 H 37.049202 34.174133 58.274408 0
M  V30 36 H 36.126082 32.888837 58.996910 0
M  V30 37 H 39.949772 26.151587 55.949245 0
M  V30 38 H 38.245491 26.172463 55.229562 0
M  V30 39 H 40.667393 29.621395 52.653428 0
M  V30 40 H 39.784986 29.939607 51.178556 0
M  V30 41 H 39.466363 30.867272 52.613418 0
M  V30 42 H 39.203435 30.904643 58.869241 0
M  V30 43 H 37.858488 31.827954 58.276094 0
M  V30 44 H 36.534152 33.931544 61.281813 0
M  V30 45 H 37.379187 28.242332 54.324733 0
M  V30 46 H 38.771623 35.507269 60.018008 0
M  V30 47 H 37.209551 36.218129 59.952178 0
M  V30 48 H 37.695212 29.171500 52.223716 0
M  V30 49 H 38.943007 29.227844 57.303587 0
M  V30 50 H 37.467217 28.311894 57.176015 0
M  V30 51 H 34.595263 34.476071 58.118700 0
M  V30 52 H 34.436453 34.421232 59.855740 0
M  V30 53 H 35.268963 35.780246 59.067763 0
M  V30 54 H 36.792392 31.492911 60.660797 0
M  V30 55 H 38.346109 30.873464 61.105837 0
M  V30 56 H 38.342207 35.342960 62.623712 0
M  V30 57 H 36.351642 30.021489 55.911194 0
M  V30 58 H 37.467446 31.272371 56.399087 0
M  V30 59 H 39.704695 26.910862 52.592693 0
M  V30 60 H 37.982869 26.821467 52.328869 0
M  V30 61 H 35.904222 30.683994 57.967128 0
M  V30 62 H 38.671143 26.456387 50.188563 0
M  V30 63 H 38.667353 28.214904 50.075809 0
M  V30 64 H 40.173832 27.372937 50.362019 0
M  V30 65 H 36.851542 37.065897 63.544330 0
M  V30 66 H 36.267754 37.464264 61.936250 0
M  V30 67 H 35.925743 35.879214 62.653721 0
M  V30 68 H 40.315793 28.423140 55.168920 0
M  V30 END ATOM
M  V30 BEGIN BOND
M  V30 1 1 3 2
M  V30 2 1 10 2
M  V30 3 1 10 6
M  V30 4 1 11 1
M  V30 5 1 12 10
M  V30 6 1 13 8
M  V30 7 1 13 11
M  V30 8 1 15 6
M  V30 9 1 16 2
M  V30 10 1 16 9
M  V30 11 2 17 4
M  V30 12 1 17 5
M  V30 13 1 18 12
M  V30 14 1 18 17
M  V30 15 1 19 1
M  V30 16 1 19 14
M  V30 17 1 20 13
M  V30 18 1 22 20
M  V30 19 1 23 9
M  V30 20 1 23 14
M  V30 21 1 23 21
M  V30 22 1 24 18
M  V30 23 2 25 7
M  V30 24 1 25 11
M  V30 25 1 26 1
M  V30 26 1 27 1
M  V30 27 1 2 28 CFG=3
M  V30 28 1 29 3
M  V30 29 1 30 3
M  V30 30 1 31 3
M  V30 31 1 32 5
M  V30 32 1 33 5
M  V30 33 1 34 5
M  V30 34 1 35 6
M  V30 35 1 36 6
M  V30 36 1 37 7
M  V30 37 1 38 7
M  V30 38 1 39 8
M  V30 39 1 40 8
M  V30 40 1 41 8
M  V30 41 1 42 9
M  V30 42 1 43 9
M  V30 43 1 10 44 CFG=1
M  V30 44 1 11 45 CFG=3
M  V30 45 1 46 12
M  V30 46 1 47 12
M  V30 47 1 13 48 CFG=3
M  V30 48 1 49 14
M  V30 49 1 50 14
M  V30 50 1 51 15
M  V30 51 1 52 15
M  V30 52 1 53 15
M  V30 53 1 54 16
M  V30 54 1 55 16
M  V30 55 1 18 56 CFG=1
M  V30 56 1 57 19
M  V30 57 1 58 19
M  V30 58 1 59 20
M  V30 59 1 60 20
M  V30 60 1 61 21
M  V30 61 1 62 22
M  V30 62 1 63 22
M  V30 63 1 64 22
M  V30 64 1 65 24
M  V30 65 1 66 24
M  V30 66 1 67 24
M  V30 67 1 68 25
M  V30 END BOND
M  V30 END CTAB
M  END
>  <i_epik_Tot_Q>  (1) 
0

>  <i_epik_Tot_abs_Q>  (1) 
0

>  <i_i_glide_confnum>  (1) 
4782

>  <i_i_glide_lignum>  (1) 
77

>  <i_i_glide_posenum>  (1) 
305

>  <i_i_glide_rotatable_bonds>  (1) 
16

>  <i_lp_mmshare_version>  (1) 
72125

>  <i_m_source_file_index>  (1) 
31

>  <i_f3d_flags>  (1) 
0

>  <num_sample>  (1) 
50

>  <b_lp_Chiralities_Consistent>  (1) 
1

>  <r_epik_Charging_Adjusted_Penalty>  (1) 
0.34658394344942783

>  <r_epik_Ionization_Penalty>  (1) 
0.015417953954219563

>  <r_epik_Ionization_Penalty_Charging>  (1) 
0

>  <r_epik_Ionization_Penalty_Neutral>  (1) 
0.015417953954219563

>  <r_epik_State_Penalty>  (1) 
0.34658394344942783

>  <r_glide_ring_energy>  (1) 
0

>  <r_i_docking_score>  (1) 
-5.6813041676287055

>  <r_i_glide_ecoul>  (1) 
-7.6896421216758171

>  <r_i_glide_eff_state_penalty>  (1) 
0.34658394344942783

>  <r_i_glide_einternal>  (1) 
9.4150521556955127

>  <r_i_glide_emodel>  (1) 
-46.602821465481483

>  <r_i_glide_emodel_strain>  (1) 
1.7011208923227024

>  <r_i_glide_energy>  (1) 
-39.030140606480018

>  <r_i_glide_erotb>  (1) 
1.833058027080513

>  <r_i_glide_esite>  (1) 
-0.14424917432898751

>  <r_i_glide_evdw>  (1) 
-31.340498484804201

>  <r_i_glide_gscore>  (1) 
-6.0278881110781333

>  <r_i_glide_gscore_strain>  (1) 
0

>  <r_i_glide_hbond>  (1) 
-0.16

>  <r_i_glide_ligand_efficiency>  (1) 
-0.22725216670514822

>  <r_i_glide_ligand_efficiency_ln>  (1) 
-1.3466393426751762

>  <r_i_glide_ligand_efficiency_sa>  (1) 
-0.6644893664931607

>  <r_i_glide_lipo>  (1) 
-3.12682986766126

>  <r_i_glide_metal>  (1) 
-0

>  <r_i_glide_rewards>  (1) 
-1.7093958536768157

>  <r_lp_Energy>  (1) 
13.945687

>  <r_lp_tautomer_probability>  (1) 
0.9999999700000004

>  <s_epik_Chemistry_Notes>  (1) 
This compound has a N-S or N-O group and may undergo hydrolysis at high or low pH.

>  <s_epik_cmdline>  (1) 
J2VwaWtfcHl0aG9uJywgJy1waHQnLCAnMS4wJywgJy1waCcsICc3LjQnLCAnLXRuJywgJzgnLCAnLW1hJywgJzUwMCcsICctaW1hZScsICc8aW5maWxlLm1hZT4nLCAnLW9tYWUnLCAnPG91dGZpbGUubWFlPic=

>  <s_epik_input>  (1) 
W0NIM11bQ0gyXVtDQEhdKFtDSDNdKVtDQEBIXShbQ0hdPVtDSDJdKVtDSDJdW0NIMl1bQ0gyXU4oW09IXSlbQ0gyXVtDSDJdW0NASF0oW0NIM10pW0NASF0oW0NIMl1bQ0gzXSlbQ0gyXVtDQEhdKFtDSDNdKUMoPU8pW0NIM10=

>  <s_glide_docking_method>  (1) 
confgen

>  <s_i_glide_gridfile>  (1) 
gpcr_5ht2c_6bqh_protein_autoprepared_prepared

>  <s_lp_Force_Field>  (1) 
S-OPLS

>  <s_lp_Variant>  (1) 
DiffSBDD_30_num_sample_50-1

>  <s_m_source_file>  (1) 
generated__ligand_DiffSBDD_2026-05-06_prepared.sdf

>  <GenAI_Model>  (1) 
DiffSBDD

>  <Protein>  (1) 
GPCR_5HT2C

$$$$
DiffSBDD_13_num_sample_50
     RDKit          3D

  0  0  0  0  0  0  0  0  0  0999 V3000
M  V30 BEGIN CTAB
M  V30 COUNTS 68 71 0 0 1
M  V30 BEGIN ATOM
M  V30 1 C 38.482204 35.573624 61.018816 0
M  V30 2 C 39.498660 28.643190 59.701840 0
M  V30 3 N 40.917947 31.133185 64.568387 0
M  V30 4 C 38.786653 29.334248 57.058764 0
M  V30 5 C 42.011981 32.969063 65.011044 0
M  V30 6 N 38.337411 31.239251 55.434037 0 CFG=1 CHG=1
M  V30 7 F 40.888791 29.064845 61.531050 0
M  V30 8 C 39.467420 31.883721 62.712344 0
M  V30 9 C 39.525784 30.910071 53.290784 0 CFG=1
M  V30 10 C 36.748294 32.816747 61.460546 0
M  V30 11 C 38.429231 31.686096 54.019549 0
M  V30 12 C 40.584927 32.136003 63.744216 0
M  V30 13 C 38.471399 34.270725 60.178126 0 CFG=1
M  V30 14 N 39.867436 30.421429 65.177430 0
M  V30 15 N 38.985511 29.569827 53.201838 0
M  V30 16 O 38.905076 30.798024 62.574300 0
M  V30 17 O 37.199248 35.955833 61.470583 0
M  V30 18 C 38.406804 29.741672 55.627241 0 CFG=1
M  V30 19 C 37.867365 33.780419 57.820988 0
M  V30 20 C 39.892586 28.280057 61.118443 0
M  V30 21 C 40.018996 28.683771 57.323765 0
M  V30 22 C 39.922291 31.221424 51.851558 0
M  V30 23 C 40.367579 28.341486 58.640166 0
M  V30 24 C 39.053097 32.168290 56.347888 0
M  V30 25 N 41.158605 33.267117 63.805824 0
M  V30 26 C 39.932591 29.851010 51.174244 0
M  V30 27 C 37.910908 29.626710 58.125527 0
M  V30 28 C 38.267419 29.285802 59.443909 0
M  V30 29 O 41.872637 31.567243 65.467078 0
M  V30 30 C 38.048724 33.265243 56.632158 0
M  V30 31 C 38.199705 32.971183 60.959438 0 CFG=1
M  V30 32 O 39.169296 32.974910 61.998805 0
M  V30 33 C 39.212998 28.991295 54.517379 0
M  V30 34 C 37.615233 34.421415 58.936195 0
M  V30 35 O 39.857893 28.929416 52.253500 0
M  V30 36 H 38.874764 36.392823 60.418813 0
M  V30 37 H 39.146874 35.487196 61.878894 0
M  V30 38 H 43.060608 33.174682 64.804730 0
M  V30 39 H 41.728184 33.630015 65.832094 0
M  V30 40 H 40.450095 30.947075 53.872200 0
M  V30 41 H 36.036545 32.906376 60.639888 0
M  V30 42 H 36.588768 31.835953 61.902969 0
M  V30 43 H 36.487182 33.563093 62.208330 0
M  V30 44 H 37.467402 31.479012 53.584401 0
M  V30 45 H 38.563211 32.761301 53.946628 0
M  V30 46 H 39.496226 34.164495 59.814886 0
M  V30 47 H 39.397752 29.841655 64.479742 0
M  V30 48 H 40.253142 29.808479 65.892789 0
M  V30 49 H 36.659887 36.152133 60.720791 0
M  V30 50 H 37.373618 29.416171 55.495325 0
M  V30 51 H 39.067408 28.363107 61.824953 0
M  V30 52 H 40.267420 27.259675 61.152259 0
M  V30 53 H 40.701563 28.451426 56.525357 0
M  V30 54 H 39.318837 31.970143 51.337187 0
M  V30 55 H 40.933198 31.619161 51.853382 0
M  V30 56 H 41.310360 27.850263 58.837213 0
M  V30 57 H 39.938391 32.581550 55.864676 0
M  V30 58 H 39.391861 31.731305 57.284539 0
M  V30 59 H 40.828349 29.685843 50.574564 0
M  V30 60 H 39.067365 29.727227 50.525226 0
M  V30 61 H 36.969513 30.124892 57.933157 0
M  V30 62 H 37.598773 29.522217 60.253503 0
M  V30 63 H 37.467402 33.610092 55.792715 0
M  V30 64 H 38.417947 32.132400 60.296195 0
M  V30 65 H 38.964683 27.929100 54.509693 0
M  V30 66 H 40.267405 29.077309 54.713985 0
M  V30 67 H 36.779876 35.102333 59.004315 0
M  V30 68 H 37.375978 31.432524 55.698609 0
M  V30 END ATOM
M  V30 BEGIN BOND
M  V30 1 1 11 6
M  V30 2 1 11 9
M  V30 3 1 12 3
M  V30 4 1 12 8
M  V30 5 1 13 1
M  V30 6 1 14 3
M  V30 7 1 15 9
M  V30 8 2 16 8
M  V30 9 1 17 1
M  V30 10 1 18 4
M  V30 11 1 18 6
M  V30 12 1 20 2
M  V30 13 1 20 7
M  V30 14 1 21 4
M  V30 15 1 22 9
M  V30 16 1 23 2
M  V30 17 2 23 21
M  V30 18 1 24 6
M  V30 19 1 25 5
M  V30 20 2 25 12
M  V30 21 1 26 22
M  V30 22 2 27 4
M  V30 23 2 28 2
M  V30 24 1 28 27
M  V30 25 1 29 3
M  V30 26 1 29 5
M  V30 27 2 30 19
M  V30 28 1 30 24
M  V30 29 1 31 10
M  V30 30 1 31 13
M  V30 31 1 32 8
M  V30 32 1 32 31
M  V30 33 1 33 15
M  V30 34 1 33 18
M  V30 35 1 34 13
M  V30 36 2 34 19
M  V30 37 1 35 15
M  V30 38 1 35 26
M  V30 39 1 36 1
M  V30 40 1 37 1
M  V30 41 1 38 5
M  V30 42 1 39 5
M  V30 43 1 9 40 CFG=1
M  V30 44 1 41 10
M  V30 45 1 42 10
M  V30 46 1 43 10
M  V30 47 1 44 11
M  V30 48 1 45 11
M  V30 49 1 13 46 CFG=3
M  V30 50 1 47 14
M  V30 51 1 48 14
M  V30 52 1 49 17
M  V30 53 1 18 50 CFG=3
M  V30 54 1 51 20
M  V30 55 1 52 20
M  V30 56 1 53 21
M  V30 57 1 54 22
M  V30 58 1 55 22
M  V30 59 1 56 23
M  V30 60 1 57 24
M  V30 61 1 58 24
M  V30 62 1 59 26
M  V30 63 1 60 26
M  V30 64 1 61 27
M  V30 65 1 62 28
M  V30 66 1 63 30
M  V30 67 1 31 64 CFG=3
M  V30 68 1 65 33
M  V30 69 1 66 33
M  V30 70 1 67 34
M  V30 71 1 6 68 CFG=1
M  V30 END BOND
M  V30 END CTAB
M  END
>  <i_epik_Tot_Q>  (1) 
1

>  <i_epik_Tot_abs_Q>  (1) 
1

>  <i_i_glide_confnum>  (1) 
360

>  <i_i_glide_lignum>  (1) 
43

>  <i_i_glide_posenum>  (1) 
207

>  <i_i_glide_rotatable_bonds>  (1) 
11

>  <i_lp_mmshare_version>  (1) 
72125

>  <i_m_source_file_index>  (1) 
14

>  <i_f3d_flags>  (1) 
0

>  <num_sample>  (1) 
50

>  <b_lp_Chiralities_Consistent>  (1) 
1

>  <r_epik_Charging_Adjusted_Penalty>  (1) 
1.4651263053542571

>  <r_epik_Ionization_Penalty>  (1) 
0.72306607658712641

>  <r_epik_Ionization_Penalty_Charging>  (1) 
0.72300917426663169

>  <r_epik_Ionization_Penalty_Neutral>  (1) 
5.6902320494737884e-05

>  <r_epik_State_Penalty>  (1) 
0.74211713108762534

>  <r_glide_ring_energy>  (1) 
0

>  <r_i_docking_score>  (1) 
-5.6794924000931397

>  <r_i_glide_ecoul>  (1) 
-5.2279713131077514

>  <r_i_glide_eff_state_penalty>  (1) 
0.74211713108762534

>  <r_i_glide_einternal>  (1) 
3.1294472093970001

>  <r_i_glide_emodel>  (1) 
-63.224970884761802

>  <r_i_glide_emodel_strain>  (1) 
5.0045353840272782

>  <r_i_glide_energy>  (1) 
-44.23706499924868

>  <r_i_glide_erotb>  (1) 
0.76112016271400151

>  <r_i_glide_esite>  (1) 
-0.084743792845492633

>  <r_i_glide_evdw>  (1) 
-39.009093686140929

>  <r_i_glide_gscore>  (1) 
-6.4216095311807653

>  <r_i_glide_gscore_strain>  (1) 
0.25113384600681954

>  <r_i_glide_hbond>  (1) 
-0.28723564231504012

>  <r_i_glide_ligand_efficiency>  (1) 
-0.16227121143123258

>  <r_i_glide_ligand_efficiency_ln>  (1) 
-1.2467746313628947

>  <r_i_glide_ligand_efficiency_sa>  (1) 
-0.53079989282619444

>  <r_i_glide_lipo>  (1) 
-2.4660517796537191

>  <r_i_glide_metal>  (1) 
-0

>  <r_i_glide_rewards>  (1) 
-1.8611819438141244

>  <r_lp_Energy>  (1) 
-4.4146960000000002

>  <s_epik_Chemistry_Notes>  (1) 
This compound has an ester and may undergo hydrolysis at high or low pH. This compound has an imine and may undergo hydrolysis. This compound contains an acetal/aminal-like group ( X-CH(R)-Y where X, Y are N, S, or O) that may be acid/base labile, releasing an aldehyde. This compound has a N-S or N-O group and may undergo hydrolysis at high or low pH.

>  <s_epik_cmdline>  (1) 
J2VwaWtfcHl0aG9uJywgJy1waHQnLCAnMS4wJywgJy1waCcsICc3LjQnLCAnLXRuJywgJzgnLCAnLW1hJywgJzUwMCcsICctaW1hZScsICc8aW5maWxlLm1hZT4nLCAnLW9tYWUnLCAnPG91dGZpbGUubWFlPic=

>  <s_epik_input>  (1) 
TzFbQ0gyXU49QyhOMVtOSDJdKUMoPU8pT1tDQEBIXShbQ0gzXSlbQ0BIXShbQ0gyXVtPSF0pW0NIXT1DPVtDSF1bQ0gyXU4oW0NIMl0yKVtDQEhdKGMoW2NIXVtjSF0zKVtjSF1bY0hdYzNbQ0gyXUYpW0NIMl1OKFtDQEhdMjQpT1tDSDJdW0NIMl00

>  <s_glide_docking_method>  (1) 
confgen

>  <s_i_glide_gridfile>  (1) 
gpcr_5ht2c_6bqh_protein_autoprepared_prepared

>  <s_lp_Force_Field>  (1) 
S-OPLS

>  <s_lp_Variant>  (1) 
DiffSBDD_13_num_sample_50-2

>  <s_m_source_file>  (1) 
generated__ligand_DiffSBDD_2026-05-06_prepared.sdf

>  <GenAI_Model>  (1) 
DiffSBDD

>  <Protein>  (1) 
GPCR_5HT2C

$$$$
DiffSBDD_10_num_sample_50
     RDKit          3D

  0  0  0  0  0  0  0  0  0  0999 V3000
M  V30 BEGIN CTAB
M  V30 COUNTS 64 66 0 0 1
M  V30 BEGIN ATOM
M  V30 1 C 38.697640 28.962954 59.921034 0
M  V30 2 C 39.873686 28.256755 59.278498 0
M  V30 3 C 38.434849 28.246166 52.817152 0
M  V30 4 N 39.068095 28.966102 57.024232 0 CFG=1 CHG=1
M  V30 5 O 42.195314 31.132329 63.254792 0 CHG=-1
M  V30 6 O 36.285369 32.079606 61.448504 0
M  V30 7 C 41.514342 35.301205 65.380995 0
M  V30 8 C 39.067515 29.432983 53.250993 0
M  V30 9 C 40.667402 32.629312 65.119416 0
M  V30 10 O 41.067397 30.905240 61.053503 0 CHG=-1
M  V30 11 N 41.117251 35.677456 63.021348 0
M  V30 12 C 39.266182 29.660641 54.625465 0
M  V30 13 C 38.865014 32.172546 62.653506 0
M  V30 14 C 41.098455 34.823409 64.122297 0
M  V30 15 C 39.524278 27.801879 57.853648 0 CFG=1
M  V30 16 C 42.088015 27.587698 57.340133 0
M  V30 17 C 38.830297 28.705848 55.550136 0
M  V30 18 O 42.614344 32.821427 61.453503 0
M  V30 19 C 37.937454 29.715010 57.649393 0
M  V30 20 N 37.153670 30.896287 59.710579 0
M  V30 21 C 40.686190 26.960501 57.261268 0
M  V30 22 P 41.608804 31.883668 62.078677 0
M  V30 23 C 41.080192 32.203234 67.578770 0
M  V30 24 C 41.506663 34.450162 66.500339 0
M  V30 25 C 37.251142 31.568845 60.881986 0
M  V30 26 N 38.505202 31.605774 61.365055 0
M  V30 27 C 37.989280 27.291900 53.762743 0
M  V30 28 O 39.879805 30.798951 55.053450 0 CHG=-1
M  V30 29 F 38.258380 28.021388 51.494650 0
M  V30 30 C 38.186147 27.522865 55.140002 0
M  V30 31 C 40.667540 33.477937 63.985438 0
M  V30 32 C 38.285470 30.191082 59.078379 0 CFG=1
M  V30 33 C 40.211724 32.934643 62.618923 0 CFG=2
M  V30 34 C 41.085448 33.116007 66.370735 0
M  V30 35 H 38.979769 29.210950 60.942581 0
M  V30 36 H 37.867408 28.275961 60.002532 0
M  V30 37 H 40.716601 28.948119 59.277540 0
M  V30 38 H 40.166761 27.403835 59.890403 0
M  V30 39 H 41.841867 36.324364 65.487999 0
M  V30 40 H 39.405674 30.160998 52.528331 0
M  V30 41 H 40.346382 31.602758 65.023873 0
M  V30 42 H 41.587080 36.568926 63.088534 0
M  V30 43 H 41.031233 35.290229 62.091837 0
M  V30 44 H 38.087195 32.821420 63.037306 0
M  V30 45 H 38.969397 31.312129 63.315443 0
M  V30 46 H 38.668305 27.130519 57.936835 0
M  V30 47 H 42.850798 26.866061 57.053505 0
M  V30 48 H 42.169718 28.421447 56.653509 0
M  V30 49 H 42.365475 27.922387 58.338570 0
M  V30 50 H 37.692265 30.578546 57.027742 0
M  V30 51 H 37.050187 29.080611 57.664192 0
M  V30 52 H 36.251841 30.837897 59.257555 0
M  V30 53 H 40.722831 26.023258 57.817952 0
M  V30 54 H 40.487105 26.663721 56.232583 0
M  V30 55 H 42.027675 32.272289 68.113826 0
M  V30 56 H 40.275983 32.486181 68.257804 0
M  V30 57 H 40.930904 31.162281 67.288633 0
M  V30 58 H 41.826105 34.821416 67.458544 0
M  V30 59 H 39.256100 31.163602 60.834499 0
M  V30 60 H 37.502860 26.387115 53.429049 0
M  V30 61 H 37.850974 26.798018 55.865657 0
M  V30 62 H 39.122829 30.883942 58.988831 0
M  V30 63 H 40.078246 33.733748 61.893719 0
M  V30 64 H 39.831571 29.631186 57.044549 0
M  V30 END ATOM
M  V30 BEGIN BOND
M  V30 1 1 2 1
M  V30 2 2 8 3
M  V30 3 1 12 8
M  V30 4 1 14 7
M  V30 5 1 14 11
M  V30 6 1 15 2
M  V30 7 1 15 4
M  V30 8 1 17 4
M  V30 9 2 17 12
M  V30 10 1 19 4
M  V30 11 1 21 15
M  V30 12 1 21 16
M  V30 13 1 22 5
M  V30 14 1 22 10
M  V30 15 2 22 18
M  V30 16 2 24 7
M  V30 17 2 25 6
M  V30 18 1 25 20
M  V30 19 1 26 13
M  V30 20 1 26 25
M  V30 21 1 27 3
M  V30 22 1 28 12
M  V30 23 1 29 3
M  V30 24 1 30 17
M  V30 25 2 30 27
M  V30 26 1 31 9
M  V30 27 2 31 14
M  V30 28 1 32 1
M  V30 29 1 32 19
M  V30 30 1 32 20
M  V30 31 1 33 13
M  V30 32 1 33 22
M  V30 33 1 33 31
M  V30 34 2 34 9
M  V30 35 1 34 23
M  V30 36 1 34 24
M  V30 37 1 35 1
M  V30 38 1 36 1
M  V30 39 1 37 2
M  V30 40 1 38 2
M  V30 41 1 39 7
M  V30 42 1 40 8
M  V30 43 1 41 9
M  V30 44 1 42 11
M  V30 45 1 43 11
M  V30 46 1 44 13
M  V30 47 1 45 13
M  V30 48 1 15 46 CFG=1
M  V30 49 1 47 16
M  V30 50 1 48 16
M  V30 51 1 49 16
M  V30 52 1 50 19
M  V30 53 1 51 19
M  V30 54 1 52 20
M  V30 55 1 53 21
M  V30 56 1 54 21
M  V30 57 1 55 23
M  V30 58 1 56 23
M  V30 59 1 57 23
M  V30 60 1 58 24
M  V30 61 1 59 26
M  V30 62 1 60 27
M  V30 63 1 61 30
M  V30 64 1 32 62 CFG=3
M  V30 65 1 33 63 CFG=3
M  V30 66 1 4 64 CFG=3
M  V30 END BOND
M  V30 END CTAB
M  END
>  <i_epik_Tot_Q>  (1) 
-2

>  <i_epik_Tot_abs_Q>  (1) 
4

>  <i_i_glide_confnum>  (1) 
46

>  <i_i_glide_lignum>  (1) 
34

>  <i_i_glide_posenum>  (1) 
307

>  <i_i_glide_rotatable_bonds>  (1) 
9

>  <i_lp_mmshare_version>  (1) 
72125

>  <i_m_source_file_index>  (1) 
11

>  <i_f3d_flags>  (1) 
0

>  <num_sample>  (1) 
50

>  <b_lp_Chiralities_Consistent>  (1) 
1

>  <r_epik_Charging_Adjusted_Penalty>  (1) 
1.3613781813755943

>  <r_epik_Ionization_Penalty>  (1) 
0.45221775539962494

>  <r_epik_Ionization_Penalty_Charging>  (1) 
0.45010221832775887

>  <r_epik_Ionization_Penalty_Neutral>  (1) 
0.0021155370718660637

>  <r_epik_State_Penalty>  (1) 
0.91127596304783554

>  <r_glide_ring_energy>  (1) 
0

>  <r_i_docking_score>  (1) 
-5.6791695426972311

>  <r_i_glide_ecoul>  (1) 
-6.6947463852494407

>  <r_i_glide_eff_state_penalty>  (1) 
0.91127596304783554

>  <r_i_glide_einternal>  (1) 
19.651876478712904

>  <r_i_glide_emodel>  (1) 
-50.16918876791518

>  <r_i_glide_emodel_strain>  (1) 
2.9373195304043449

>  <r_i_glide_energy>  (1) 
-44.131292185463636

>  <r_i_glide_erotb>  (1) 
0.58773720055558498

>  <r_i_glide_esite>  (1) 
-0.069320893582406964

>  <r_i_glide_evdw>  (1) 
-37.436545800214198

>  <r_i_glide_gscore>  (1) 
-6.5904455057450662

>  <r_i_glide_gscore_strain>  (1) 
0

>  <r_i_glide_hbond>  (1) 
-0.37725982060556545

>  <r_i_glide_ligand_efficiency>  (1) 
-0.16703439831462444

>  <r_i_glide_ligand_efficiency_ln>  (1) 
-1.2546878472917993

>  <r_i_glide_ligand_efficiency_sa>  (1) 
-0.5411266079993412

>  <r_i_glide_lipo>  (1) 
-3.6333540063554288

>  <r_i_glide_metal>  (1) 
-0

>  <r_i_glide_rewards>  (1) 
-0.22220873795912377

>  <r_lp_Energy>  (1) 
32.038921000000002

>  <s_epik_cmdline>  (1) 
J2VwaWtfcHl0aG9uJywgJy1waHQnLCAnMS4wJywgJy1waCcsICc3LjQnLCAnLXRuJywgJzgnLCAnLW1hJywgJzUwMCcsICctaW1hZScsICc8aW5maWxlLm1hZT4nLCAnLW9tYWUnLCAnPG91dGZpbGUubWFlPic=

>  <s_epik_input>  (1) 
RmMxW2NIXWMoW09IXSljKFtjSF1bY0hdMSlOMltDQEBIXShbQ0gyXVtDSDNdKVtDSDJdW0NIMl1bQ0BASF0oW0NIMl0yKVtOSF1DKD1PKVtOSF1bQ0gyXVtDQEhdKFAoPU8pKFtPSF0pW09IXSljM1tjSF1jKFtDSDNdKVtjSF1bY0hdYzNbTkgyXQ==

>  <s_glide_docking_method>  (1) 
confgen

>  <s_i_glide_gridfile>  (1) 
gpcr_5ht2c_6bqh_protein_autoprepared_prepared

>  <s_lp_Force_Field>  (1) 
S-OPLS

>  <s_lp_Variant>  (1) 
DiffSBDD_10_num_sample_50-3

>  <s_m_source_file>  (1) 
generated__ligand_DiffSBDD_2026-05-06_prepared.sdf

>  <GenAI_Model>  (1) 
DiffSBDD

>  <Protein>  (1) 
GPCR_5HT2C

$$$$
DiffSBDD_11_num_sample_50
     RDKit          3D

  0  0  0  0  0  0  0  0  0  0999 V3000
M  V30 BEGIN CTAB
M  V30 COUNTS 37 39 0 0 1
M  V30 BEGIN ATOM
M  V30 1 C 38.403288 32.686086 57.069038 0
M  V30 2 C 39.521677 26.964683 56.869101 0 CFG=2
M  V30 3 C 37.889616 25.783903 55.344746 0 CFG=2
M  V30 4 O 40.601034 26.509152 57.667688 0
M  V30 5 C 39.322435 25.989864 55.698386 0 CFG=1
M  V30 6 C 38.539251 30.633165 55.599968 0 CFG=1
M  V30 7 C 38.508926 29.097657 55.767205 0
M  V30 8 C 38.338210 33.691936 55.914598 0
M  V30 9 C 39.388443 28.498437 56.887018 0 CFG=1
M  V30 10 N 38.868766 28.963049 58.212730 0 CHG=1
M  V30 11 O 38.781507 26.435018 54.431999 0
M  V30 12 O 37.867566 28.421535 58.644168 0 CHG=-1
M  V30 13 O 39.467836 29.870220 58.770408 0
M  V30 14 C 37.868268 30.958866 54.256121 0
M  V30 15 C 38.321514 26.022902 56.789223 0 CFG=2
M  V30 16 C 38.132297 24.956238 57.852290 0
M  V30 17 O 37.671211 24.421925 55.053671 0
M  V30 18 N 37.867694 31.351962 56.718952 0 CHG=1
M  V30 19 H 37.813284 33.056699 57.907213 0
M  V30 20 H 39.428010 32.594852 57.429433 0
M  V30 21 H 41.286661 26.158959 57.110735 0
M  V30 22 H 39.586235 30.938925 55.551735 0
M  V30 23 H 37.475394 28.749151 55.847518 0
M  V30 24 H 38.902033 28.707121 54.833687 0
M  V30 25 H 38.267451 34.712120 56.277401 0
M  V30 26 H 37.467619 33.551869 55.287486 0
M  V30 27 H 39.218756 33.608464 55.280224 0
M  V30 28 H 40.389970 28.922405 56.804590 0
M  V30 29 H 38.270888 30.341248 53.451588 0
M  V30 30 H 38.023248 31.983353 53.928560 0
M  V30 31 H 36.794694 30.775798 54.300635 0
M  V30 32 H 37.121894 24.549330 57.805376 0
M  V30 33 H 38.281192 25.389831 58.840982 0
M  V30 34 H 38.843197 24.142955 57.706454 0
M  V30 35 H 38.467606 24.066130 54.687298 0
M  V30 36 H 37.975197 30.800919 57.557092 0
M  V30 37 H 36.856037 31.455204 56.574111 0
M  V30 END ATOM
M  V30 BEGIN BOND
M  V30 1 1 2 4 CFG=1
M  V30 2 1 5 2
M  V30 3 1 5 3
M  V30 4 1 7 6
M  V30 5 1 8 1
M  V30 6 1 9 2
M  V30 7 1 9 7
M  V30 8 1 10 9
M  V30 9 1 11 3
M  V30 10 1 5 11 CFG=1
M  V30 11 1 12 10
M  V30 12 2 13 10
M  V30 13 1 14 6
M  V30 14 1 15 2
M  V30 15 1 15 3
M  V30 16 1 15 5
M  V30 17 1 15 16 CFG=1
M  V30 18 1 3 17 CFG=1
M  V30 19 1 18 1
M  V30 20 1 18 6
M  V30 21 1 19 1
M  V30 22 1 20 1
M  V30 23 1 21 4
M  V30 24 1 6 22 CFG=3
M  V30 25 1 23 7
M  V30 26 1 24 7
M  V30 27 1 25 8
M  V30 28 1 26 8
M  V30 29 1 27 8
M  V30 30 1 9 28 CFG=3
M  V30 31 1 29 14
M  V30 32 1 30 14
M  V30 33 1 31 14
M  V30 34 1 32 16
M  V30 35 1 33 16
M  V30 36 1 34 16
M  V30 37 1 35 17
M  V30 38 1 36 18
M  V30 39 1 37 18
M  V30 END BOND
M  V30 END CTAB
M  END
>  <i_epik_Tot_Q>  (1) 
1

>  <i_epik_Tot_abs_Q>  (1) 
3

>  <i_i_glide_confnum>  (1) 
79

>  <i_i_glide_lignum>  (1) 
38

>  <i_i_glide_posenum>  (1) 
328

>  <i_i_glide_rotatable_bonds>  (1) 
8

>  <i_lp_mmshare_version>  (1) 
72125

>  <i_m_source_file_index>  (1) 
12

>  <i_f3d_flags>  (1) 
2

>  <num_sample>  (1) 
50

>  <b_lp_Chiralities_Consistent>  (1) 
0

>  <r_epik_Charging_Adjusted_Penalty>  (1) 
0.0033658080042713689

>  <r_epik_Ionization_Penalty>  (1) 
0.035780381166706003

>  <r_epik_Ionization_Penalty_Charging>  (1) 
0.0033658080042713689

>  <r_epik_Ionization_Penalty_Neutral>  (1) 
0.032414573162434637

>  <r_epik_State_Penalty>  (1) 
-0

>  <r_glide_ring_energy>  (1) 
0

>  <r_i_docking_score>  (1) 
-5.6693331717111528

>  <r_i_glide_ecoul>  (1) 
-7.8446935204063513

>  <r_i_glide_eff_state_penalty>  (1) 
-0

>  <r_i_glide_einternal>  (1) 
6.3969099317566478

>  <r_i_glide_emodel>  (1) 
-39.695609610200286

>  <r_i_glide_emodel_strain>  (1) 
1.1852185983390839

>  <r_i_glide_energy>  (1) 
-29.690926600859999

>  <r_i_glide_erotb>  (1) 
1.0519887520240689

>  <r_i_glide_esite>  (1) 
-0.10000000000000001

>  <r_i_glide_evdw>  (1) 
-21.846233080453647

>  <r_i_glide_gscore>  (1) 
-5.6693331717111528

>  <r_i_glide_gscore_strain>  (1) 
0

>  <r_i_glide_hbond>  (1) 
-0.49183527578356628

>  <r_i_glide_ligand_efficiency>  (1) 
-0.31496295398395291

>  <r_i_glide_ligand_efficiency_ln>  (1) 
-1.4572728583596892

>  <r_i_glide_ligand_efficiency_sa>  (1) 
-0.82543645114805742

>  <r_i_glide_lipo>  (1) 
-1.3389935652773186

>  <r_i_glide_metal>  (1) 
-0

>  <r_i_glide_rewards>  (1) 
-2.5214774005907015

>  <r_lp_Energy>  (1) 
94.058552999999989

>  <r_lp_tautomer_probability>  (1) 
1

>  <s_epik_cmdline>  (1) 
J2VwaWtfcHl0aG9uJywgJy1waHQnLCAnMS4wJywgJy1waCcsICc3LjQnLCAnLXRuJywgJzgnLCAnLW1hJywgJzUwMCcsICctaW1hZScsICc8aW5maWxlLm1hZT4nLCAnLW9tYWUnLCAnPG91dGZpbGUubWFlPic=

>  <s_epik_input>  (1) 
W0NIM11bQ0gyXVtOSF1bQ0BIXShbQ0gzXSlbQ0gyXVtDQEBIXShbTitdKFtPLV0pPU8pW0NAXTEoW09IXSlDMihbQ0gzXSlDKFtDQEBdMTIzKShPMylbT0hd

>  <s_glide_docking_method>  (1) 
confgen

>  <s_i_glide_gridfile>  (1) 
gpcr_5ht2c_6bqh_protein_autoprepared_prepared

>  <s_lp_Force_Field>  (1) 
S-OPLS

>  <s_lp_Variant>  (1) 
DiffSBDD_11_num_sample_50-1

>  <s_m_source_file>  (1) 
generated__ligand_DiffSBDD_2026-05-06_prepared.sdf

>  <GenAI_Model>  (1) 
DiffSBDD

>  <Protein>  (1) 
GPCR_5HT2C

$$$$
DiffSBDD_30_num_sample_50
     RDKit          3D

  0  0  0  0  0  0  0  0  0  0999 V3000
M  V30 BEGIN CTAB
M  V30 COUNTS 68 67 0 0 1
M  V30 BEGIN ATOM
M  V30 1 C 39.293953 29.221158 54.304263 0
M  V30 2 C 37.842518 33.612518 59.437441 0 CFG=2
M  V30 3 C 39.370814 33.798476 59.561574 0
M  V30 4 O 39.544508 35.181351 62.354279 0
M  V30 5 C 39.534910 37.259040 63.551443 0
M  V30 6 C 35.639120 33.740001 60.839359 0
M  V30 7 C 37.865430 26.604480 53.913053 0
M  V30 8 C 39.204433 27.834557 50.653371 0
M  V30 9 C 38.134136 31.550263 57.859227 0
M  V30 10 C 37.115674 34.205056 60.692836 0 CFG=2
M  V30 11 C 38.637324 28.835594 52.960118 0 CFG=1
M  V30 12 C 37.201000 35.769590 60.681416 0
M  V30 13 C 39.656557 28.768795 51.775960 0 CFG=2
M  V30 14 C 38.892741 29.482636 56.792706 0
M  V30 15 C 35.450378 32.339191 61.453497 0
M  V30 16 C 37.538766 32.119695 59.158807 0
M  V30 17 C 38.942050 36.220187 62.610002 0
M  V30 18 C 37.559686 36.530651 61.995936 0 CFG=2
M  V30 19 C 38.300192 29.686758 55.384859 0
M  V30 20 C 39.945159 30.178720 51.194199 0
M  V30 21 O 36.785341 29.621436 57.853520 0
M  V30 22 C 41.112482 30.280952 50.202299 0
M  V30 23 N 38.160251 30.091040 57.899225 0
M  V30 24 C 36.433959 36.549282 63.053571 0
M  V30 25 C 37.708376 27.627651 53.054871 0
M  V30 26 H 40.022246 30.018484 54.151923 0
M  V30 27 H 39.867397 28.375681 54.678063 0
M  V30 28 H 37.496451 34.171978 58.566619 0
M  V30 29 H 39.794975 33.117372 60.300017 0
M  V30 30 H 39.867401 33.621401 58.612222 0
M  V30 31 H 39.659912 34.805264 59.853506 0
M  V30 32 H 38.798110 37.621368 64.266786 0
M  V30 33 H 40.361370 36.821464 64.111088 0
M  V30 34 H 39.917495 38.106875 62.984689 0
M  V30 35 H 35.107597 34.421428 61.495071 0
M  V30 36 H 35.117034 33.812593 59.883948 0
M  V30 37 H 37.166566 25.780922 53.925072 0
M  V30 38 H 38.688326 26.575656 54.609365 0
M  V30 39 H 38.267409 28.203300 50.253511 0
M  V30 40 H 39.937759 27.803476 49.853782 0
M  V30 41 H 39.064950 26.805821 50.984185 0
M  V30 42 H 39.160378 31.878367 57.723406 0
M  V30 43 H 37.576727 31.923035 56.999251 0
M  V30 44 H 37.638930 33.835659 61.573138 0
M  V30 45 H 37.931109 29.621422 52.721949 0
M  V30 46 H 37.924384 36.094714 59.935171 0
M  V30 47 H 36.267371 36.171786 60.288629 0
M  V30 48 H 40.585618 28.341511 52.135578 0
M  V30 49 H 39.910147 29.872390 56.816576 0
M  V30 50 H 38.975112 28.413324 56.992167 0
M  V30 51 H 34.667362 32.350688 62.207422 0
M  V30 52 H 35.144809 31.602464 60.711332 0
M  V30 53 H 36.362807 31.979611 61.926152 0
M  V30 54 H 36.466250 31.981343 59.055305 0
M  V30 55 H 37.863864 31.520606 60.010489 0
M  V30 56 H 37.668087 37.572032 61.691760 0
M  V30 57 H 37.366995 29.131008 55.309703 0
M  V30 58 H 38.047483 30.730405 55.198883 0
M  V30 59 H 39.067412 30.525350 50.653540 0
M  V30 60 H 40.117405 30.891340 52.001373 0
M  V30 61 H 36.376723 30.237581 57.247574 0
M  V30 62 H 41.203926 31.301246 49.839435 0
M  V30 63 H 42.066750 30.021432 50.653521 0
M  V30 64 H 40.963734 29.659180 49.320764 0
M  V30 65 H 36.799916 36.727285 64.064486 0
M  V30 66 H 35.729352 37.352573 62.840648 0
M  V30 67 H 35.868544 35.621391 63.083738 0
M  V30 68 H 36.874351 27.621448 52.374139 0
M  V30 END ATOM
M  V30 BEGIN BOND
M  V30 1 1 3 2
M  V30 2 1 10 2
M  V30 3 1 10 6
M  V30 4 1 11 1
M  V30 5 1 12 10
M  V30 6 1 13 8
M  V30 7 1 13 11
M  V30 8 1 15 6
M  V30 9 1 16 2
M  V30 10 1 16 9
M  V30 11 2 17 4
M  V30 12 1 17 5
M  V30 13 1 18 12
M  V30 14 1 18 17
M  V30 15 1 19 1
M  V30 16 1 19 14
M  V30 17 1 20 13
M  V30 18 1 22 20
M  V30 19 1 23 9
M  V30 20 1 23 14
M  V30 21 1 23 21
M  V30 22 1 24 18
M  V30 23 2 25 7
M  V30 24 1 25 11
M  V30 25 1 26 1
M  V30 26 1 27 1
M  V30 27 1 2 28 CFG=3
M  V30 28 1 29 3
M  V30 29 1 30 3
M  V30 30 1 31 3
M  V30 31 1 32 5
M  V30 32 1 33 5
M  V30 33 1 34 5
M  V30 34 1 35 6
M  V30 35 1 36 6
M  V30 36 1 37 7
M  V30 37 1 38 7
M  V30 38 1 39 8
M  V30 39 1 40 8
M  V30 40 1 41 8
M  V30 41 1 42 9
M  V30 42 1 43 9
M  V30 43 1 10 44 CFG=1
M  V30 44 1 11 45 CFG=3
M  V30 45 1 46 12
M  V30 46 1 47 12
M  V30 47 1 13 48 CFG=1
M  V30 48 1 49 14
M  V30 49 1 50 14
M  V30 50 1 51 15
M  V30 51 1 52 15
M  V30 52 1 53 15
M  V30 53 1 54 16
M  V30 54 1 55 16
M  V30 55 1 18 56 CFG=3
M  V30 56 1 57 19
M  V30 57 1 58 19
M  V30 58 1 59 20
M  V30 59 1 60 20
M  V30 60 1 61 21
M  V30 61 1 62 22
M  V30 62 1 63 22
M  V30 63 1 64 22
M  V30 64 1 65 24
M  V30 65 1 66 24
M  V30 66 1 67 24
M  V30 67 1 68 25
M  V30 END BOND
M  V30 END CTAB
M  END
>  <i_epik_Tot_Q>  (1) 
0

>  <i_epik_Tot_abs_Q>  (1) 
0

>  <i_i_glide_confnum>  (1) 
4863

>  <i_i_glide_lignum>  (1) 
78

>  <i_i_glide_posenum>  (1) 
281

>  <i_i_glide_rotatable_bonds>  (1) 
16

>  <i_lp_mmshare_version>  (1) 
72125

>  <i_m_source_file_index>  (1) 
31

>  <i_f3d_flags>  (1) 
0

>  <num_sample>  (1) 
50

>  <b_lp_Chiralities_Consistent>  (1) 
1

>  <r_epik_Charging_Adjusted_Penalty>  (1) 
0.34658394344942783

>  <r_epik_Ionization_Penalty>  (1) 
0.015417953954219563

>  <r_epik_Ionization_Penalty_Charging>  (1) 
0

>  <r_epik_Ionization_Penalty_Neutral>  (1) 
0.015417953954219563

>  <r_epik_State_Penalty>  (1) 
0.34658394344942783

>  <r_glide_ring_energy>  (1) 
0

>  <r_i_docking_score>  (1) 
-5.6608970702567127

>  <r_i_glide_ecoul>  (1) 
-4.012289012133329

>  <r_i_glide_eff_state_penalty>  (1) 
0.34658394344942783

>  <r_i_glide_einternal>  (1) 
13.297964001204713

>  <r_i_glide_emodel>  (1) 
-42.087861768986073

>  <r_i_glide_emodel_strain>  (1) 
3.2641160785153076

>  <r_i_glide_energy>  (1) 
-38.025048668052399

>  <r_i_glide_erotb>  (1) 
1.833058027080513

>  <r_i_glide_esite>  (1) 
-0.14742462059462477

>  <r_i_glide_evdw>  (1) 
-34.012759655919069

>  <r_i_glide_gscore>  (1) 
-6.0074810137061405

>  <r_i_glide_gscore_strain>  (1) 
0

>  <r_i_glide_hbond>  (1) 
-0.16

>  <r_i_glide_ligand_efficiency>  (1) 
-0.2264358828102685

>  <r_i_glide_ligand_efficiency_ln>  (1) 
-1.3418022490466548

>  <r_i_glide_ligand_efficiency_sa>  (1) 
-0.66210253790511497

>  <r_i_glide_lipo>  (1) 
-3.350442824356707

>  <r_i_glide_metal>  (1) 
-0

>  <r_i_glide_rewards>  (1) 
-1.8801902612193695

>  <r_lp_Energy>  (1) 
19.892499999999998

>  <r_lp_tautomer_probability>  (1) 
0.9999999700000004

>  <s_epik_Chemistry_Notes>  (1) 
This compound has a N-S or N-O group and may undergo hydrolysis at high or low pH.

>  <s_epik_cmdline>  (1) 
J2VwaWtfcHl0aG9uJywgJy1waHQnLCAnMS4wJywgJy1waCcsICc3LjQnLCAnLXRuJywgJzgnLCAnLW1hJywgJzUwMCcsICctaW1hZScsICc8aW5maWxlLm1hZT4nLCAnLW9tYWUnLCAnPG91dGZpbGUubWFlPic=

>  <s_epik_input>  (1) 
W0NIM11bQ0gyXVtDQEhdKFtDSDNdKVtDQEBIXShbQ0hdPVtDSDJdKVtDSDJdW0NIMl1bQ0gyXU4oW09IXSlbQ0gyXVtDSDJdW0NASF0oW0NIM10pW0NASF0oW0NIMl1bQ0gzXSlbQ0gyXVtDQEhdKFtDSDNdKUMoPU8pW0NIM10=

>  <s_glide_docking_method>  (1) 
confgen

>  <s_i_glide_gridfile>  (1) 
gpcr_5ht2c_6bqh_protein_autoprepared_prepared

>  <s_lp_Force_Field>  (1) 
S-OPLS

>  <s_lp_Variant>  (1) 
DiffSBDD_30_num_sample_50-2

>  <s_m_source_file>  (1) 
generated__ligand_DiffSBDD_2026-05-06_prepared.sdf

>  <GenAI_Model>  (1) 
DiffSBDD

>  <Protein>  (1) 
GPCR_5HT2C

$$$$
DiffSBDD_12_num_sample_50
     RDKit          3D

  0  0  0  0  0  0  0  0  0  0999 V3000
M  V30 BEGIN CTAB
M  V30 COUNTS 70 72 0 0 1
M  V30 BEGIN ATOM
M  V30 1 C 41.022297 32.991426 63.581733 0
M  V30 2 C 38.289233 28.332619 55.792956 0
M  V30 3 C 38.267387 31.051040 57.899146 0
M  V30 4 O 37.550875 33.219241 58.884448 0
M  V30 5 N 38.164789 29.722222 55.730372 0
M  V30 6 F 39.874969 29.221614 49.310679 0
M  V30 7 N 38.745779 30.267719 58.769960 0
M  V30 8 C 40.256304 35.195350 62.533247 0
M  V30 9 C 39.475582 26.073224 57.751164 0
M  V30 10 C 41.059565 34.495460 63.618612 0
M  V30 11 C 40.098387 32.760664 62.378293 0
M  V30 12 C 38.924855 34.154805 60.646023 0
M  V30 13 C 39.844390 28.975218 50.625162 0
M  V30 14 C 39.867347 30.449123 52.637964 0
M  V30 15 N 37.867848 27.753381 56.983448 0
M  V30 16 N 38.704456 30.435837 54.667568 0
M  V30 17 C 38.440265 32.568336 57.975026 0
M  V30 18 C 41.225974 35.740757 61.472410 0
M  V30 19 N 38.778107 27.639852 54.802998 0
M  V30 20 O 35.589880 32.349237 60.866200 0
M  V30 21 C 39.048619 27.474279 52.452776 0
M  V30 22 C 37.467434 30.546777 56.708505 0
M  V30 23 O 39.867073 24.820878 57.267842 0
M  V30 24 C 37.824928 33.125628 60.281932 0 CFG=1
M  V30 25 C 39.379437 36.336980 63.088647 0
M  V30 26 C 39.063784 28.270719 53.572368 0
M  V30 27 C 39.196203 27.890193 51.051253 0
M  V30 28 C 39.230078 29.758127 53.593570 0
M  V30 29 C 40.597219 29.865210 51.492201 0
M  V30 30 C 34.657302 32.575063 59.817837 0
M  V30 31 C 38.050542 26.342423 57.257880 0
M  V30 32 C 36.508003 33.419328 61.030658 0
M  V30 33 O 41.700253 35.113364 64.465723 0
M  V30 34 N 39.421569 34.051335 62.049159 0 CFG=2 CHG=1
M  V30 35 H 40.593392 32.605027 64.506423 0
M  V30 36 H 42.016025 32.567009 63.435444 0
M  V30 37 H 39.252925 30.735465 59.504922 0
M  V30 38 H 36.591649 30.016736 57.079610 0
M  V30 39 H 40.192059 26.807216 57.380754 0
M  V30 40 H 39.520657 26.091002 58.840207 0
M  V30 41 H 39.364958 31.981138 62.593882 0
M  V30 42 H 40.694234 32.426217 61.526966 0
M  V30 43 H 39.774310 34.051285 59.973941 0
M  V30 44 H 38.525698 35.155864 60.478040 0
M  V30 45 H 39.938810 31.523238 52.733716 0
M  V30 46 H 37.510317 28.301802 57.753065 0
M  V30 47 H 38.684193 31.445009 54.701016 0
M  V30 48 H 39.467417 32.814321 58.202784 0
M  V30 49 H 41.867434 36.497865 61.917308 0
M  V30 50 H 41.866709 34.965439 61.054427 0
M  V30 51 H 40.698427 36.220809 60.653912 0
M  V30 52 H 38.832937 26.428584 52.616333 0
M  V30 53 H 38.258431 32.997926 56.989380 0
M  V30 54 H 37.067403 31.388019 56.145798 0
M  V30 55 H 40.014396 24.898676 56.335967 0
M  V30 56 H 38.144554 32.117658 60.537203 0
M  V30 57 H 39.993657 37.165472 63.445642 0
M  V30 58 H 38.718490 36.738408 62.319392 0
M  V30 59 H 38.753721 36.021373 63.921065 0
M  V30 60 H 38.741682 27.261128 50.299353 0
M  V30 61 H 41.400555 29.222809 51.852976 0
M  V30 62 H 41.049872 30.664580 50.903029 0
M  V30 63 H 34.174885 31.637548 59.540025 0
M  V30 64 H 33.885664 33.278514 60.132799 0
M  V30 65 H 35.124136 32.980680 58.922830 0
M  V30 66 H 37.324513 26.003512 57.995301 0
M  V30 67 H 37.838311 25.777037 56.349119 0
M  V30 68 H 36.707950 33.478884 62.099548 0
M  V30 69 H 36.083300 34.382725 60.742371 0
M  V30 70 H 38.606919 34.072014 62.646767 0
M  V30 END ATOM
M  V30 BEGIN BOND
M  V30 1 1 5 2
M  V30 2 2 7 3
M  V30 3 1 10 1
M  V30 4 1 10 8
M  V30 5 1 11 1
M  V30 6 1 13 6
M  V30 7 1 15 2
M  V30 8 1 16 5
M  V30 9 1 17 3
M  V30 10 1 17 4
M  V30 11 1 18 8
M  V30 12 2 19 2
M  V30 13 1 22 3
M  V30 14 1 22 5
M  V30 15 1 23 9
M  V30 16 1 24 4
M  V30 17 1 24 12
M  V30 18 1 25 8
M  V30 19 1 26 19
M  V30 20 2 26 21
M  V30 21 2 27 13
M  V30 22 1 27 21
M  V30 23 2 28 14
M  V30 24 1 28 16
M  V30 25 1 28 26
M  V30 26 1 29 13
M  V30 27 1 29 14
M  V30 28 1 30 20
M  V30 29 1 31 9
M  V30 30 1 31 15
M  V30 31 1 32 20
M  V30 32 1 32 24
M  V30 33 2 33 10
M  V30 34 1 34 8
M  V30 35 1 34 11
M  V30 36 1 34 12
M  V30 37 1 35 1
M  V30 38 1 36 1
M  V30 39 1 37 7
M  V30 40 1 38 22
M  V30 41 1 39 9
M  V30 42 1 40 9
M  V30 43 1 41 11
M  V30 44 1 42 11
M  V30 45 1 43 12
M  V30 46 1 44 12
M  V30 47 1 45 14
M  V30 48 1 46 15
M  V30 49 1 47 16
M  V30 50 1 48 17
M  V30 51 1 49 18
M  V30 52 1 50 18
M  V30 53 1 51 18
M  V30 54 1 52 21
M  V30 55 1 53 17
M  V30 56 1 54 22
M  V30 57 1 55 23
M  V30 58 1 24 56 CFG=3
M  V30 59 1 57 25
M  V30 60 1 58 25
M  V30 61 1 59 25
M  V30 62 1 60 27
M  V30 63 1 61 29
M  V30 64 1 62 29
M  V30 65 1 63 30
M  V30 66 1 64 30
M  V30 67 1 65 30
M  V30 68 1 66 31
M  V30 69 1 67 31
M  V30 70 1 68 32
M  V30 71 1 69 32
M  V30 72 1 34 70 CFG=1
M  V30 END BOND
M  V30 END CTAB
M  END
>  <i_epik_Tot_Q>  (1) 
1

>  <i_epik_Tot_abs_Q>  (1) 
1

>  <i_i_glide_confnum>  (1) 
959

>  <i_i_glide_lignum>  (1) 
41

>  <i_i_glide_posenum>  (1) 
104

>  <i_i_glide_rotatable_bonds>  (1) 
13

>  <i_lp_mmshare_version>  (1) 
72125

>  <i_m_source_file_index>  (1) 
13

>  <i_f3d_flags>  (1) 
0

>  <num_sample>  (1) 
50

>  <b_lp_Chiralities_Consistent>  (1) 
1

>  <r_epik_Charging_Adjusted_Penalty>  (1) 
2.2216491605189868

>  <r_epik_Ionization_Penalty>  (1) 
0.91881204336881139

>  <r_epik_Ionization_Penalty_Charging>  (1) 
0.90548466078319156

>  <r_epik_Ionization_Penalty_Neutral>  (1) 
0.013327382585619883

>  <r_epik_State_Penalty>  (1) 
1.3161644997357953

>  <r_glide_ring_energy>  (1) 
0

>  <r_i_docking_score>  (1) 
-5.6531047486817618

>  <r_i_glide_ecoul>  (1) 
-2.6724516159585052

>  <r_i_glide_eff_state_penalty>  (1) 
1.3161644997357953

>  <r_i_glide_einternal>  (1) 
12.093032194706298

>  <r_i_glide_emodel>  (1) 
-62.052522726830688

>  <r_i_glide_emodel_strain>  (1) 
1.8539837263304122

>  <r_i_glide_energy>  (1) 
-49.257370388180036

>  <r_i_glide_erotb>  (1) 
0.96958307808003152

>  <r_i_glide_esite>  (1) 
-0.092784598315533817

>  <r_i_glide_evdw>  (1) 
-46.584918772221528

>  <r_i_glide_gscore>  (1) 
-6.9692692484175573

>  <r_i_glide_gscore_strain>  (1) 
0

>  <r_i_glide_hbond>  (1) 
-0.0094249413119645905

>  <r_i_glide_ligand_efficiency>  (1) 
-0.16626778672593417

>  <r_i_glide_ligand_efficiency_ln>  (1) 
-1.2489294032010738

>  <r_i_glide_ligand_efficiency_sa>  (1) 
-0.53864308404962413

>  <r_i_glide_lipo>  (1) 
-4.0017696630106219

>  <r_i_glide_metal>  (1) 
-0

>  <r_i_glide_rewards>  (1) 
-1.1047594428546166

>  <r_lp_Energy>  (1) 
33.115794999999999

>  <r_lp_tautomer_probability>  (1) 
0.49996700039999997

>  <s_epik_Chemistry_Notes>  (1) 
This compound has an imine and may undergo hydrolysis.

>  <s_epik_cmdline>  (1) 
J2VwaWtfcHl0aG9uJywgJy1waHQnLCAnMS4wJywgJy1waCcsICc3LjQnLCAnLXRuJywgJzgnLCAnLW1hJywgJzUwMCcsICctaW1hZScsICc8aW5maWxlLm1hZT4nLCAnLW9tYWUnLCAnPG91dGZpbGUubWFlPic=

>  <s_epik_input>  (1) 
W0NIM11DMShbQ0gzXSlDKD1PKVtDSDJdW0NIMl1OMVtDSDJdW0NAQEhdKFtDSDJdT1tDSDNdKU8vW0NIXT1DKFxbTkgyXSlbQ0gyXU4oQyg9TjIpW05IXVtDSDJdW0NIMl1bT0hdKVtOSF1DKEMyMyk9W0NIXVtDSDJdQyhGKT1bQ0hdW0NIXT0z

>  <s_glide_docking_method>  (1) 
confgen

>  <s_i_glide_gridfile>  (1) 
gpcr_5ht2c_6bqh_protein_autoprepared_prepared

>  <s_lp_Force_Field>  (1) 
S-OPLS

>  <s_lp_Variant>  (1) 
DiffSBDD_12_num_sample_50-3

>  <s_m_source_file>  (1) 
generated__ligand_DiffSBDD_2026-05-06_prepared.sdf

>  <GenAI_Model>  (1) 
DiffSBDD

>  <Protein>  (1) 
GPCR_5HT2C

$$$$
DiffSBDD_30_num_sample_50
     RDKit          3D

  0  0  0  0  0  0  0  0  0  0999 V3000
M  V30 BEGIN CTAB
M  V30 COUNTS 68 67 0 0 1
M  V30 BEGIN ATOM
M  V30 1 C 38.342856 33.918184 59.938318 0
M  V30 2 C 39.666114 29.986284 53.767342 0 CFG=2
M  V30 3 C 40.140351 30.315597 52.336734 0
M  V30 4 O 37.005638 25.528535 57.009242 0
M  V30 5 C 38.566523 26.925823 58.189300 0
M  V30 6 C 37.897991 28.290425 52.977718 0
M  V30 7 C 35.380873 33.934734 61.728659 0
M  V30 8 C 37.061759 37.096384 59.491147 0
M  V30 9 C 39.173074 31.472100 55.750545 0
M  V30 10 C 39.088380 28.542625 53.912684 0 CFG=2
M  V30 11 C 37.526169 34.882875 60.819138 0 CFG=1
M  V30 12 C 38.788983 28.132774 55.374091 0
M  V30 13 C 37.864386 36.384131 60.593593 0 CFG=2
M  V30 14 C 38.741451 32.748754 57.765368 0
M  V30 15 C 38.339653 27.639044 51.670954 0
M  V30 16 C 38.742053 31.091784 54.330564 0
M  V30 17 C 37.974575 26.281975 56.940566 0
M  V30 18 C 38.639854 26.605732 55.597000 0 CFG=2
M  V30 19 C 37.765580 33.621406 58.540127 0
M  V30 20 C 37.904147 37.210211 61.898589 0
M  V30 21 O 38.267470 33.645043 55.627922 0 CHG=-1
M  V30 22 C 36.551092 37.419363 62.589451 0
M  V30 23 N 38.267428 32.509917 56.354772 0 CFG=1 CHG=1
M  V30 24 C 39.972823 25.847540 55.470060 0
M  V30 25 C 36.055118 34.523368 60.737119 0
M  V30 26 H 39.370748 34.273633 59.852981 0
M  V30 27 H 38.418950 32.966960 60.467354 0
M  V30 28 H 40.583588 30.021413 54.357256 0
M  V30 29 H 39.322996 30.398215 51.629437 0
M  V30 30 H 40.667516 31.266941 52.311736 0
M  V30 31 H 40.814105 29.554502 51.945172 0
M  V30 32 H 38.100878 27.895083 58.368877 0
M  V30 33 H 38.387359 26.288771 59.053494 0
M  V30 34 H 39.642045 27.067151 58.084234 0
M  V30 35 H 37.151193 27.648115 53.444378 0
M  V30 36 H 37.382461 29.221126 52.758880 0
M  V30 37 H 35.867365 33.698859 62.652953 0
M  V30 38 H 34.336333 33.682271 61.624528 0
M  V30 39 H 36.007983 37.198774 59.747031 0
M  V30 40 H 37.467409 38.093427 59.322619 0
M  V30 41 H 37.117599 36.569810 58.543536 0
M  V30 42 H 40.178788 31.895217 55.754006 0
M  V30 43 H 39.149619 30.614318 56.418062 0
M  V30 44 H 39.867400 27.857741 53.587398 0
M  V30 45 H 37.847258 34.656059 61.837031 0
M  V30 46 H 39.605689 28.479585 56.007684 0
M  V30 47 H 37.891368 28.651544 55.715229 0
M  V30 48 H 38.897288 36.401757 60.253664 0
M  V30 49 H 39.720787 33.221413 57.687081 0
M  V30 50 H 38.843605 31.778429 58.253130 0
M  V30 51 H 37.467436 27.543905 51.053500 0
M  V30 52 H 39.059920 28.226356 51.107599 0
M  V30 53 H 38.769383 26.652023 51.832754 0
M  V30 54 H 37.696148 30.786723 54.328447 0
M  V30 55 H 38.792105 31.981863 53.701670 0
M  V30 56 H 37.964151 26.204988 54.841942 0
M  V30 57 H 36.811525 33.097605 58.614248 0
M  V30 58 H 37.569421 34.534085 57.985031 0
M  V30 59 H 38.591393 36.743335 62.605137 0
M  V30 60 H 38.336469 38.185701 61.675446 0
M  V30 61 H 36.667684 38.021481 63.486186 0
M  V30 62 H 35.851882 37.948674 61.943451 0
M  V30 63 H 36.105047 36.475045 62.898575 0
M  V30 64 H 39.876597 24.818166 55.814068 0
M  V30 65 H 40.307317 25.805013 54.434037 0
M  V30 66 H 40.762268 26.316998 56.057878 0
M  V30 67 H 35.546629 34.760065 59.813074 0
M  V30 68 H 37.314404 32.079820 56.428898 0
M  V30 END ATOM
M  V30 BEGIN BOND
M  V30 1 1 3 2
M  V30 2 1 10 2
M  V30 3 1 10 6
M  V30 4 1 11 1
M  V30 5 1 12 10
M  V30 6 1 13 8
M  V30 7 1 13 11
M  V30 8 1 15 6
M  V30 9 1 16 2
M  V30 10 1 16 9
M  V30 11 2 17 4
M  V30 12 1 17 5
M  V30 13 1 18 12
M  V30 14 1 18 17
M  V30 15 1 19 1
M  V30 16 1 19 14
M  V30 17 1 20 13
M  V30 18 1 22 20
M  V30 19 1 23 9
M  V30 20 1 23 14
M  V30 21 1 23 21
M  V30 22 1 24 18
M  V30 23 2 25 7
M  V30 24 1 25 11
M  V30 25 1 26 1
M  V30 26 1 27 1
M  V30 27 1 2 28 CFG=1
M  V30 28 1 29 3
M  V30 29 1 30 3
M  V30 30 1 31 3
M  V30 31 1 32 5
M  V30 32 1 33 5
M  V30 33 1 34 5
M  V30 34 1 35 6
M  V30 35 1 36 6
M  V30 36 1 37 7
M  V30 37 1 38 7
M  V30 38 1 39 8
M  V30 39 1 40 8
M  V30 40 1 41 8
M  V30 41 1 42 9
M  V30 42 1 43 9
M  V30 43 1 10 44 CFG=3
M  V30 44 1 11 45 CFG=1
M  V30 45 1 46 12
M  V30 46 1 47 12
M  V30 47 1 13 48 CFG=3
M  V30 48 1 49 14
M  V30 49 1 50 14
M  V30 50 1 51 15
M  V30 51 1 52 15
M  V30 52 1 53 15
M  V30 53 1 54 16
M  V30 54 1 55 16
M  V30 55 1 18 56 CFG=3
M  V30 56 1 57 19
M  V30 57 1 58 19
M  V30 58 1 59 20
M  V30 59 1 60 20
M  V30 60 1 61 22
M  V30 61 1 62 22
M  V30 62 1 63 22
M  V30 63 1 64 24
M  V30 64 1 65 24
M  V30 65 1 66 24
M  V30 66 1 67 25
M  V30 67 1 23 68 CFG=1
M  V30 END BOND
M  V30 END CTAB
M  END
>  <i_epik_Tot_Q>  (1) 
0

>  <i_epik_Tot_abs_Q>  (1) 
2

>  <i_i_glide_confnum>  (1) 
3570

>  <i_i_glide_lignum>  (1) 
82

>  <i_i_glide_posenum>  (1) 
54

>  <i_i_glide_rotatable_bonds>  (1) 
15

>  <i_lp_mmshare_version>  (1) 
72125

>  <i_m_source_file_index>  (1) 
31

>  <i_f3d_flags>  (1) 
0

>  <num_sample>  (1) 
50

>  <b_lp_Chiralities_Consistent>  (1) 
1

>  <r_epik_Charging_Adjusted_Penalty>  (1) 
0.52251968911758562

>  <r_epik_Ionization_Penalty>  (1) 
0.019979657236955634

>  <r_epik_Ionization_Penalty_Charging>  (1) 
0.019979657236557934

>  <r_epik_Ionization_Penalty_Neutral>  (1) 
3.9770064437045143e-13

>  <r_epik_State_Penalty>  (1) 
0.50254003188102769

>  <r_glide_ring_energy>  (1) 
0

>  <r_i_docking_score>  (1) 
-5.6234710168552091

>  <r_i_glide_ecoul>  (1) 
-1.9568070068908809

>  <r_i_glide_eff_state_penalty>  (1) 
0.50254003188102769

>  <r_i_glide_einternal>  (1) 
12.324971635140635

>  <r_i_glide_emodel>  (1) 
-44.220738067632752

>  <r_i_glide_emodel_strain>  (1) 
0.17677629169876141

>  <r_i_glide_energy>  (1) 
-36.463447946303113

>  <r_i_glide_erotb>  (1) 
1.833058027080513

>  <r_i_glide_esite>  (1) 
-0.079188394111461322

>  <r_i_glide_evdw>  (1) 
-34.506640939412229

>  <r_i_glide_gscore>  (1) 
-6.1260110487362365

>  <r_i_glide_gscore_strain>  (1) 
0

>  <r_i_glide_hbond>  (1) 
-0.16

>  <r_i_glide_ligand_efficiency>  (1) 
-0.22493884067420836

>  <r_i_glide_ligand_efficiency_ln>  (1) 
-1.332931152822183

>  <r_i_glide_ligand_efficiency_sa>  (1) 
-0.65772516014442306

>  <r_i_glide_lipo>  (1) 
-3.7286508223482429

>  <r_i_glide_metal>  (1) 
-0

>  <r_i_glide_rewards>  (1) 
-1.9723767613528023

>  <r_lp_Energy>  (1) 
17.351582999999998

>  <s_epik_cmdline>  (1) 
J2VwaWtfcHl0aG9uJywgJy1waHQnLCAnMS4wJywgJy1waCcsICc3LjQnLCAnLXRuJywgJzgnLCAnLW1hJywgJzUwMCcsICctaW1hZScsICc8aW5maWxlLm1hZT4nLCAnLW9tYWUnLCAnPG91dGZpbGUubWFlPic=

>  <s_epik_input>  (1) 
W0NIM11bQ0gyXVtDQEhdKFtDSDNdKVtDQEBIXShbQ0hdPVtDSDJdKVtDSDJdW0NIMl1bQ0gyXU4oW09IXSlbQ0gyXVtDSDJdW0NASF0oW0NIM10pW0NASF0oW0NIMl1bQ0gzXSlbQ0gyXVtDQEhdKFtDSDNdKUMoPU8pW0NIM10=

>  <s_glide_docking_method>  (1) 
confgen

>  <s_i_glide_gridfile>  (1) 
gpcr_5ht2c_6bqh_protein_autoprepared_prepared

>  <s_lp_Force_Field>  (1) 
S-OPLS

>  <s_lp_Variant>  (1) 
DiffSBDD_30_num_sample_50-6

>  <s_m_source_file>  (1) 
generated__ligand_DiffSBDD_2026-05-06_prepared.sdf

>  <GenAI_Model>  (1) 
DiffSBDD

>  <Protein>  (1) 
GPCR_5HT2C

$$$$
DiffSBDD_5_num_sample_50
     RDKit          3D

  0  0  0  0  0  0  0  0  0  0999 V3000
M  V30 BEGIN CTAB
M  V30 COUNTS 79 81 0 0 1
M  V30 BEGIN ATOM
M  V30 1 C 38.856110 29.339117 57.143155 0
M  V30 2 C 39.519173 26.908963 57.459263 0 CFG=2
M  V30 3 N 40.627800 32.896021 63.252626 0
M  V30 4 F 39.635633 31.091556 50.074181 0
M  V30 5 C 37.073332 31.460974 59.180284 0
M  V30 6 N 38.036177 29.394113 58.136003 0 CHG=1
M  V30 7 C 38.291407 33.490559 60.275586 0 CFG=1
M  V30 8 C 39.053323 29.026490 51.076454 0 CFG=2
M  V30 9 C 37.836432 25.121132 57.122277 0
M  V30 10 C 37.052566 30.465108 58.012465 0 CFG=2
M  V30 11 N 38.626769 30.265610 56.262802 0
M  V30 12 C 38.882333 24.021435 57.236845 0
M  V30 13 C 39.065580 27.747878 54.730701 0 CFG=2
M  V30 14 C 36.657992 24.626921 56.265572 0
M  V30 15 N 38.834402 27.014948 52.373907 0 CHG=1
M  V30 16 C 40.234970 32.910111 61.846656 0
M  V30 17 C 39.298914 26.819853 58.980006 0
M  V30 18 C 37.467405 31.082215 56.559933 0
M  V30 19 C 39.941073 28.326577 57.011824 0 CFG=1
M  V30 20 C 39.223577 27.505931 51.042207 0
M  V30 21 O 42.117950 31.206627 63.053522 0
M  V30 22 C 39.867403 29.781108 50.012110 0
M  V30 23 C 41.832064 32.149127 65.235143 0
M  V30 24 C 41.536605 32.042280 63.744379 0
M  V30 25 S 39.467411 29.563339 52.731647 0
M  V30 26 C 40.275955 28.246084 55.538987 0
M  V30 27 C 38.773523 26.326577 55.207693 0
M  V30 28 C 36.685409 34.903886 59.183699 0
M  V30 29 O 37.016301 34.124571 60.325416 0
M  V30 30 O 38.060145 31.959215 62.160497 0
M  V30 31 N 38.395008 26.391062 56.633762 0
M  V30 32 C 38.717561 33.132100 61.713178 0 CFG=2
M  V30 33 N 39.371820 27.959728 53.323190 0
M  V30 34 C 38.347428 32.330673 59.258876 0
M  V30 35 H 40.391156 26.286135 57.255298 0
M  V30 36 H 40.185212 33.556620 63.874593 0
M  V30 37 H 36.918153 30.918671 60.110984 0
M  V30 38 H 36.198579 32.100998 59.069022 0
M  V30 39 H 38.999609 34.250623 59.939548 0
M  V30 40 H 37.988160 29.221455 51.053494 0
M  V30 41 H 37.435008 25.299744 58.119689 0
M  V30 42 H 36.063883 30.010463 57.946457 0
M  V30 43 H 39.164856 30.384832 55.415929 0
M  V30 44 H 38.487632 23.221428 57.853549 0
M  V30 45 H 39.067436 23.621430 56.253495 0
M  V30 46 H 39.836479 24.313014 57.667836 0
M  V30 47 H 38.162973 28.325287 54.919707 0
M  V30 48 H 36.267417 23.694147 56.653510 0
M  V30 49 H 35.867416 25.371146 56.253337 0
M  V30 50 H 36.919377 24.376297 55.239576 0
M  V30 51 H 39.230853 26.106469 52.569791 0
M  V30 52 H 40.534448 32.002307 61.319811 0
M  V30 53 H 40.774188 33.732394 61.375972 0
M  V30 54 H 40.009102 27.439843 59.526814 0
M  V30 55 H 38.292019 27.095735 59.285928 0
M  V30 56 H 39.467341 25.798097 59.302681 0
M  V30 57 H 36.726062 30.821480 55.801091 0
M  V30 58 H 37.665181 32.151378 56.525150 0
M  V30 59 H 40.813451 28.661459 57.575331 0
M  V30 60 H 38.667401 27.012881 50.253211 0
M  V30 61 H 40.267387 27.276482 50.854697 0
M  V30 62 H 40.939803 29.644019 50.152167 0
M  V30 63 H 39.613996 29.455264 49.005577 0
M  V30 64 H 42.435617 33.034112 65.437285 0
M  V30 65 H 40.906070 32.218755 65.807825 0
M  V30 66 H 42.380537 31.273673 65.581085 0
M  V30 67 H 40.667358 29.207739 55.204353 0
M  V30 68 H 41.067403 27.513960 55.453499 0
M  V30 69 H 37.959018 25.960534 54.591157 0
M  V30 70 H 39.627836 25.664605 55.059585 0
M  V30 71 H 35.679332 35.306749 59.304162 0
M  V30 72 H 37.371362 35.743687 59.069325 0
M  V30 73 H 36.694952 34.313851 58.266430 0
M  V30 74 H 38.430322 31.219371 61.705926 0
M  V30 75 H 38.439351 33.976108 62.336482 0
M  V30 76 H 38.548481 32.786277 58.292762 0
M  V30 77 H 39.204781 31.691986 59.456006 0
M  V30 78 H 37.827358 27.011516 52.479450 0
M  V30 79 H 38.040411 28.747969 58.911691 0
M  V30 END ATOM
M  V30 BEGIN BOND
M  V30 1 2 6 1
M  V30 2 1 10 5
M  V30 3 1 10 6
M  V30 4 1 11 1
M  V30 5 1 12 9
M  V30 6 1 14 9
M  V30 7 1 16 3
M  V30 8 1 17 2
M  V30 9 1 18 10
M  V30 10 1 18 11
M  V30 11 1 19 1
M  V30 12 1 19 2
M  V30 13 1 20 8
M  V30 14 1 20 15
M  V30 15 1 22 4
M  V30 16 1 22 8
M  V30 17 1 24 3
M  V30 18 2 24 21
M  V30 19 1 24 23
M  V30 20 1 25 8
M  V30 21 1 26 13
M  V30 22 1 26 19
M  V30 23 1 27 13
M  V30 24 1 29 7
M  V30 25 1 29 28
M  V30 26 1 31 2
M  V30 27 1 31 9
M  V30 28 1 31 27
M  V30 29 1 32 7
M  V30 30 1 32 16
M  V30 31 1 32 30
M  V30 32 1 33 13
M  V30 33 1 33 15
M  V30 34 1 33 25
M  V30 35 1 34 5
M  V30 36 1 34 7
M  V30 37 1 2 35 CFG=1
M  V30 38 1 36 3
M  V30 39 1 37 5
M  V30 40 1 38 5
M  V30 41 1 7 39 CFG=3
M  V30 42 1 8 40 CFG=3
M  V30 43 1 41 9
M  V30 44 1 10 42 CFG=3
M  V30 45 1 43 11
M  V30 46 1 44 12
M  V30 47 1 45 12
M  V30 48 1 46 12
M  V30 49 1 13 47 CFG=1
M  V30 50 1 48 14
M  V30 51 1 49 14
M  V30 52 1 50 14
M  V30 53 1 51 15
M  V30 54 1 52 16
M  V30 55 1 53 16
M  V30 56 1 54 17
M  V30 57 1 55 17
M  V30 58 1 56 17
M  V30 59 1 57 18
M  V30 60 1 58 18
M  V30 61 1 19 59 CFG=1
M  V30 62 1 60 20
M  V30 63 1 61 20
M  V30 64 1 62 22
M  V30 65 1 63 22
M  V30 66 1 64 23
M  V30 67 1 65 23
M  V30 68 1 66 23
M  V30 69 1 67 26
M  V30 70 1 68 26
M  V30 71 1 69 27
M  V30 72 1 70 27
M  V30 73 1 71 28
M  V30 74 1 72 28
M  V30 75 1 73 28
M  V30 76 1 74 30
M  V30 77 1 32 75 CFG=1
M  V30 78 1 76 34
M  V30 79 1 77 34
M  V30 80 1 78 15
M  V30 81 1 79 6
M  V30 END BOND
M  V30 END CTAB
M  END
>  <i_epik_Tot_Q>  (1) 
2

>  <i_epik_Tot_abs_Q>  (1) 
2

>  <i_i_glide_confnum>  (1) 
464

>  <i_i_glide_lignum>  (1) 
19

>  <i_i_glide_posenum>  (1) 
116

>  <i_i_glide_rotatable_bonds>  (1) 
13

>  <i_lp_mmshare_version>  (1) 
72125

>  <i_m_source_file_index>  (1) 
6

>  <i_f3d_flags>  (1) 
0

>  <num_sample>  (1) 
50

>  <b_lp_Chiralities_Consistent>  (1) 
1

>  <r_epik_Charging_Adjusted_Penalty>  (1) 
1.2202907703101018

>  <r_epik_Ionization_Penalty>  (1) 
1.220291206888735

>  <r_epik_Ionization_Penalty_Charging>  (1) 
0.00010224848283174563

>  <r_epik_Ionization_Penalty_Neutral>  (1) 
1.2201889584059034

>  <r_epik_State_Penalty>  (1) 
1.2201885218272701

>  <r_glide_ring_energy>  (1) 
0

>  <r_i_docking_score>  (1) 
-5.6183490509080656

>  <r_i_glide_ecoul>  (1) 
-7.0345342922912284

>  <r_i_glide_eff_state_penalty>  (1) 
1.2201885218272701

>  <r_i_glide_einternal>  (1) 
11.007638843175137

>  <r_i_glide_emodel>  (1) 
-30.199414145503397

>  <r_i_glide_emodel_strain>  (1) 
2.3550399817206085

>  <r_i_glide_energy>  (1) 
-37.572301868476472

>  <r_i_glide_erotb>  (1) 
0.64218136225351719

>  <r_i_glide_esite>  (1) 
-0.040141460059434336

>  <r_i_glide_evdw>  (1) 
-30.537767576185242

>  <r_i_glide_gscore>  (1) 
-6.8385375727353352

>  <r_i_glide_gscore_strain>  (1) 
0

>  <r_i_glide_hbond>  (1) 
-0.04718246396025428

>  <r_i_glide_ligand_efficiency>  (1) 
-0.16524556032082546

>  <r_i_glide_ligand_efficiency_ln>  (1) 
-1.2412508946985625

>  <r_i_glide_ligand_efficiency_sa>  (1) 
-0.53533146732405645

>  <r_i_glide_lipo>  (1) 
-3.7781650215514198

>  <r_i_glide_metal>  (1) 
-0

>  <r_i_glide_rewards>  (1) 
-1.033161466764797

>  <r_lp_Energy>  (1) 
27.210827999999999

>  <s_epik_Chemistry_Notes>  (1) 
This compound has an imine and may undergo hydrolysis. This compound has a N-S or N-O group and may undergo hydrolysis at high or low pH.

>  <s_epik_cmdline>  (1) 
J2VwaWtfcHl0aG9uJywgJy1waHQnLCAnMS4wJywgJy1waCcsICc3LjQnLCAnLXRuJywgJzgnLCAnLW1hJywgJzUwMCcsICctaW1hZScsICc8aW5maWxlLm1hZT4nLCAnLW9tYWUnLCAnPG91dGZpbGUubWFlPic=

>  <s_epik_input>  (1) 
RltDSDJdW0NASF0xW0NIMl1bTkhdTihTMSlbQ0BASF0oW0NIMl1OMltDSF0oW0NIM10pW0NIM10pW0NIMl1bQ0BASF0oW0NASF0yW0NIM10pQzM9TltDQEhdKFtDSDJdW05IXTMpW0NIMl1bQ0gyXVtDQEBIXShPW0NIM10pW0NAQEhdKFtPSF0pW0NIMl1bTkhdQyg9TylbQ0gzXQ==

>  <s_glide_docking_method>  (1) 
confgen

>  <s_i_glide_gridfile>  (1) 
gpcr_5ht2c_6bqh_protein_autoprepared_prepared

>  <s_lp_Force_Field>  (1) 
S-OPLS

>  <s_lp_Variant>  (1) 
DiffSBDD_5_num_sample_50-6

>  <s_m_source_file>  (1) 
generated__ligand_DiffSBDD_2026-05-06_prepared.sdf

>  <GenAI_Model>  (1) 
DiffSBDD

>  <Protein>  (1) 
GPCR_5HT2C

$$$$
DiffSBDD_0_num_sample_50
     RDKit          3D

  0  0  0  0  0  0  0  0  0  0999 V3000
M  V30 BEGIN CTAB
M  V30 COUNTS 65 69 0 0 1
M  V30 BEGIN ATOM
M  V30 1 C 40.342226 35.795720 63.099981 0
M  V30 2 C 40.215267 35.015422 61.936172 0
M  V30 3 C 38.945206 34.326670 59.853678 0
M  V30 4 S 37.680983 26.745134 54.425024 0
M  V30 5 O 37.468193 27.363925 57.390507 0
M  V30 6 C 37.287621 31.215715 61.436394 0
M  V30 7 C 40.772713 26.648981 56.053809 0
M  V30 8 C 38.100541 36.121183 61.426465 0
M  V30 9 C 37.639991 32.686788 61.320839 0
M  V30 10 C 38.732065 27.531575 51.384026 0
M  V30 11 C 39.041680 28.714686 53.240439 0
M  V30 12 F 39.457203 37.475254 64.559236 0
M  V30 13 C 38.225760 36.895517 62.592619 0
M  V30 14 C 39.279321 29.495332 52.206562 0
M  V30 15 C 38.777557 27.199741 52.925186 0 CFG=1
M  V30 16 C 39.419738 29.167475 59.914528 0
M  V30 17 C 40.465157 29.039347 57.118849 0
M  V30 18 O 39.040096 28.063745 60.350355 0
M  V30 19 C 38.204724 28.137447 56.776682 0
M  V30 20 C 41.574922 27.185614 58.419876 0
M  V30 21 C 38.669796 29.729982 58.697326 0 CFG=2
M  V30 22 C 38.432563 32.896906 60.049161 0 CFG=1
M  V30 23 C 41.277193 27.726359 57.031474 0
M  V30 24 N 36.667340 31.341551 59.052192 0 CFG=1 CHG=1
M  V30 25 C 38.947697 29.102810 54.564023 0
M  V30 26 C 37.145957 29.975216 58.972333 0 CFG=2
M  V30 27 C 38.357836 28.173302 55.290992 0
M  V30 28 N 39.006418 29.034296 57.415717 0
M  V30 29 C 36.542512 30.589036 60.263836 0 CFG=1
M  V30 30 C 39.091982 35.174510 61.100516 0
M  V30 31 O 40.363311 29.848582 60.377418 0 CHG=-1
M  V30 32 C 37.534286 32.524609 58.858975 0
M  V30 33 C 39.344533 36.733595 63.431396 0
M  V30 34 C 39.083771 28.771173 51.062165 0
M  V30 35 H 41.199516 35.670466 63.742230 0
M  V30 36 H 40.974952 34.289724 61.688833 0
M  V30 37 H 39.885010 34.310998 59.316528 0
M  V30 38 H 38.210925 34.821007 59.232427 0
M  V30 39 H 36.610353 31.221072 62.254373 0
M  V30 40 H 38.147792 30.617590 61.729708 0
M  V30 41 H 39.872934 26.139802 56.387785 0
M  V30 42 H 40.633477 27.073967 55.066762 0
M  V30 43 H 41.467395 25.861128 55.856593 0
M  V30 44 H 37.240752 36.248312 60.786680 0
M  V30 45 H 36.730895 33.290433 61.299054 0
M  V30 46 H 38.206896 32.975219 62.205601 0
M  V30 47 H 38.492725 26.764126 50.654212 0
M  V30 48 H 37.461136 37.610837 62.846333 0
M  V30 49 H 39.472804 30.557179 52.249606 0
M  V30 50 H 39.706268 26.643926 53.061236 0
M  V30 51 H 40.665635 29.609373 56.233725 0
M  V30 52 H 40.973465 29.617603 57.877772 0
M  V30 53 H 40.664383 26.817859 58.883960 0
M  V30 54 H 42.307504 26.387849 58.365460 0
M  V30 55 H 41.999493 27.949723 59.072492 0
M  V30 56 H 39.140609 30.685916 58.519506 0
M  V30 57 H 39.299957 32.243783 60.093683 0
M  V30 58 H 42.247846 28.041235 56.653078 0
M  V30 59 H 39.337981 30.030082 54.940943 0
M  V30 60 H 36.442513 29.440096 58.338718 0
M  V30 61 H 35.468937 30.474704 60.427209 0
M  V30 62 H 36.807308 33.327435 58.703910 0
M  V30 63 H 38.080808 32.473997 57.914528 0
M  V30 64 H 39.143507 29.162447 50.056270 0
M  V30 65 H 35.867302 31.382047 58.417730 0
M  V30 END ATOM
M  V30 BEGIN BOND
M  V30 1 2 2 1
M  V30 2 1 9 6
M  V30 3 1 13 8
M  V30 4 2 14 11
M  V30 5 1 15 4
M  V30 6 1 15 10
M  V30 7 1 15 11
M  V30 8 2 18 16
M  V30 9 2 19 5
M  V30 10 1 21 16
M  V30 11 1 22 3
M  V30 12 1 22 9
M  V30 13 1 23 7
M  V30 14 1 23 17
M  V30 15 1 23 20
M  V30 16 1 25 11
M  V30 17 1 26 21
M  V30 18 1 26 24
M  V30 19 1 27 4
M  V30 20 1 27 19
M  V30 21 2 27 25
M  V30 22 1 28 17
M  V30 23 1 28 19
M  V30 24 1 28 21
M  V30 25 1 29 6
M  V30 26 1 29 24
M  V30 27 1 29 26
M  V30 28 1 30 2
M  V30 29 1 30 3
M  V30 30 2 30 8
M  V30 31 1 31 16
M  V30 32 1 32 22
M  V30 33 1 32 24
M  V30 34 1 33 1
M  V30 35 1 33 12
M  V30 36 2 33 13
M  V30 37 2 34 10
M  V30 38 1 34 14
M  V30 39 1 35 1
M  V30 40 1 36 2
M  V30 41 1 37 3
M  V30 42 1 38 3
M  V30 43 1 39 6
M  V30 44 1 40 6
M  V30 45 1 41 7
M  V30 46 1 42 7
M  V30 47 1 43 7
M  V30 48 1 44 8
M  V30 49 1 45 9
M  V30 50 1 46 9
M  V30 51 1 47 10
M  V30 52 1 48 13
M  V30 53 1 49 14
M  V30 54 1 15 50 CFG=3
M  V30 55 1 51 17
M  V30 56 1 52 17
M  V30 57 1 53 20
M  V30 58 1 54 20
M  V30 59 1 55 20
M  V30 60 1 21 56 CFG=3
M  V30 61 1 22 57 CFG=1
M  V30 62 1 58 23
M  V30 63 1 59 25
M  V30 64 1 26 60 CFG=3
M  V30 65 1 29 61 CFG=1
M  V30 66 1 62 32
M  V30 67 1 63 32
M  V30 68 1 64 34
M  V30 69 1 24 65 CFG=3
M  V30 END BOND
M  V30 END CTAB
M  END
>  <i_epik_Tot_Q>  (1) 
0

>  <i_epik_Tot_abs_Q>  (1) 
2

>  <i_i_glide_confnum>  (1) 
65

>  <i_i_glide_lignum>  (1) 
1

>  <i_i_glide_posenum>  (1) 
391

>  <i_i_glide_rotatable_bonds>  (1) 
9

>  <i_lp_mmshare_version>  (1) 
72125

>  <i_m_source_file_index>  (1) 
1

>  <i_f3d_flags>  (1) 
0

>  <num_sample>  (1) 
50

>  <b_lp_Chiralities_Consistent>  (1) 
1

>  <r_epik_Charging_Adjusted_Penalty>  (1) 
0.0020295482604282666

>  <r_epik_Ionization_Penalty>  (1) 
0.0020295482639142975

>  <r_epik_Ionization_Penalty_Charging>  (1) 
0.0020295482604282666

>  <r_epik_Ionization_Penalty_Neutral>  (1) 
3.4860309872641501e-12

>  <r_epik_State_Penalty>  (1) 
-0

>  <r_glide_ring_energy>  (1) 
0

>  <r_i_docking_score>  (1) 
-5.6041273355993457

>  <r_i_glide_ecoul>  (1) 
-5.8938915141450243

>  <r_i_glide_eff_state_penalty>  (1) 
-0

>  <r_i_glide_einternal>  (1) 
14.922788828132639

>  <r_i_glide_emodel>  (1) 
-39.633504226655361

>  <r_i_glide_emodel_strain>  (1) 
3.4528703160983412

>  <r_i_glide_energy>  (1) 
-36.661909780998592

>  <r_i_glide_erotb>  (1) 
0.52278502944784222

>  <r_i_glide_esite>  (1) 
-0.11723845212595303

>  <r_i_glide_evdw>  (1) 
-30.768018266853566

>  <r_i_glide_gscore>  (1) 
-5.6041273355993457

>  <r_i_glide_gscore_strain>  (1) 
0

>  <r_i_glide_hbond>  (1) 
-0.19301232178855099

>  <r_i_glide_ligand_efficiency>  (1) 
-0.16482727457645135

>  <r_i_glide_ligand_efficiency_ln>  (1) 
-1.2381089188812637

>  <r_i_glide_ligand_efficiency_sa>  (1) 
-0.53397638389027591

>  <r_i_glide_lipo>  (1) 
-3.9475867534236997

>  <r_i_glide_metal>  (1) 
-0

>  <r_i_glide_rewards>  (1) 
0.55340980275544771

>  <r_lp_Energy>  (1) 
57.080993999999997

>  <r_lp_tautomer_probability>  (1) 
1

>  <s_epik_cmdline>  (1) 
J2VwaWtfcHl0aG9uJywgJy1waHQnLCAnMS4wJywgJy1waCcsICc3LjQnLCAnLXRuJywgJzgnLCAnLW1hJywgJzUwMCcsICctaW1hZScsICc8aW5maWxlLm1hZT4nLCAnLW9tYWUnLCAnPG91dGZpbGUubWFlPic=

>  <s_epik_input>  (1) 
W2NIXTFbY0hdYyhGKVtjSF1bY0hdYzFbQ0gyXVtDQEhdKFtDSDJdMilbQ0gyXVtDSDJdW0NIXShOMjMpW0NAQEhdM1tDQEBIXShDKD1PKVtPSF0pTihbQ0gyXVtDSF0oW0NIM10pW0NIM10pQyg9TylDKD1bQ0hdNClTW0NASF0oQzQ9NSlbQ0hdPVtDSF1bQ0hdNQ==

>  <s_glide_docking_method>  (1) 
confgen

>  <s_i_glide_gridfile>  (1) 
gpcr_5ht2c_6bqh_protein_autoprepared_prepared

>  <s_lp_Force_Field>  (1) 
S-OPLS

>  <s_lp_Variant>  (1) 
DiffSBDD_0_num_sample_50-1

>  <s_m_source_file>  (1) 
generated__ligand_DiffSBDD_2026-05-06_prepared.sdf

>  <GenAI_Model>  (1) 
DiffSBDD

>  <Protein>  (1) 
GPCR_5HT2C

$$$$
DiffSBDD_48_num_sample_50
     RDKit          3D

  0  0  0  0  0  0  0  0  0  0999 V3000
M  V30 BEGIN CTAB
M  V30 COUNTS 84 87 0 0 1
M  V30 BEGIN ATOM
M  V30 1 N 37.351506 36.431624 62.630333 0
M  V30 2 C 38.384079 28.871841 56.457029 0
M  V30 3 O 40.446562 27.077267 55.974741 0
M  V30 4 C 37.473666 28.686570 53.363114 0
M  V30 5 S 38.812403 30.864150 61.698316 0
M  V30 6 C 38.640246 28.978150 59.905698 0 CFG=2
M  V30 7 C 42.195497 31.464107 62.799542 0
M  V30 8 C 39.539880 28.692938 57.474204 0 CFG=1
M  V30 9 C 39.725965 29.731840 60.635396 0
M  V30 10 C 41.473975 33.649311 62.128454 0
M  V30 11 C 37.603815 32.447076 59.743072 0
M  V30 12 C 36.267422 39.406732 62.184879 0
M  V30 13 C 41.008129 34.823428 61.259198 0
M  V30 14 C 38.440244 36.622907 63.453310 0
M  V30 15 C 39.062204 28.028952 58.780168 0
M  V30 16 C 42.180965 32.046312 65.265749 0
M  V30 17 C 38.737735 29.804785 55.287527 0
M  V30 18 C 39.696885 36.030034 62.974852 0
M  V30 19 C 37.611960 29.929837 54.256542 0
M  V30 20 N 38.693294 35.397235 60.935520 0
M  V30 21 C 36.506906 33.474235 60.131807 0
M  V30 22 C 35.475319 38.113311 62.220648 0
M  V30 23 C 37.508604 31.068074 60.459297 0 CFG=1
M  V30 24 O 38.340967 37.221437 64.518481 0
M  V30 25 C 37.362421 35.631237 61.364790 0 CFG=1
M  V30 26 C 41.260577 34.716558 64.439216 0
M  V30 27 C 40.894196 36.083542 63.886114 0
M  V30 28 N 37.629307 29.959974 59.500875 0
M  V30 29 C 36.044190 36.946050 63.053419 0
M  V30 30 C 41.565923 33.614688 63.430374 0
M  V30 31 C 40.701868 27.860763 56.916301 0
M  V30 32 N 41.988510 32.439268 63.877111 0
M  V30 33 C 34.096537 38.421436 62.796737 0
M  V30 34 C 41.912290 32.372495 61.453297 0
M  V30 35 C 36.660672 34.242218 61.471278 0
M  V30 36 C 39.757410 35.463989 61.774157 0
M  V30 37 O 41.819748 28.021275 57.453410 0 CHG=-1
M  V30 38 H 38.065464 27.898798 56.081995 0
M  V30 39 H 37.503492 29.276508 56.955320 0
M  V30 40 H 36.677956 28.810373 52.630183 0
M  V30 41 H 38.398618 28.496532 52.817571 0
M  V30 42 H 37.242672 27.793510 53.944271 0
M  V30 43 H 38.267336 28.297882 60.653363 0
M  V30 44 H 41.467791 30.658730 62.905385 0
M  V30 45 H 43.196585 31.041873 62.835516 0
M  V30 46 H 39.958283 29.673857 57.698648 0
M  V30 47 H 40.339101 30.262722 59.915173 0
M  V30 48 H 40.366876 29.079544 61.227878 0
M  V30 49 H 37.502603 32.292068 58.666733 0
M  V30 50 H 38.599050 32.876400 59.866463 0
M  V30 51 H 36.267011 39.910894 63.148339 0
M  V30 52 H 37.281045 39.208150 61.851335 0
M  V30 53 H 35.844438 40.097969 61.460505 0
M  V30 54 H 40.667387 34.423782 60.303512 0
M  V30 55 H 41.809168 35.542854 61.076755 0
M  V30 56 H 39.834634 27.381292 59.201303 0
M  V30 57 H 38.234221 27.355196 58.559485 0
M  V30 58 H 41.236785 32.082999 65.810370 0
M  V30 59 H 42.572397 31.029842 65.330404 0
M  V30 60 H 42.894344 32.712254 65.751117 0
M  V30 61 H 38.959213 30.795118 55.687206 0
M  V30 62 H 39.647909 29.472758 54.787067 0
M  V30 63 H 38.803058 34.924577 60.050280 0
M  V30 64 H 36.666714 30.143135 54.760015 0
M  V30 65 H 37.834231 30.796409 53.634546 0
M  V30 66 H 35.552990 32.946756 60.143603 0
M  V30 67 H 36.409902 34.199827 59.325058 0
M  V30 68 H 35.467440 37.849158 61.163884 0
M  V30 69 H 36.546589 30.968171 60.961756 0
M  V30 70 H 36.886666 36.218740 60.581757 0
M  V30 71 H 42.142026 34.844721 65.065576 0
M  V30 72 H 40.486025 34.359054 65.109917 0
M  V30 73 H 41.742963 36.510444 63.350668 0
M  V30 74 H 40.669853 36.740996 64.728466 0
M  V30 75 H 37.852261 30.318137 58.581712 0
M  V30 76 H 35.356643 36.108476 63.053777 0
M  V30 77 H 36.034972 37.238034 64.103182 0
M  V30 78 H 34.267441 38.744685 63.820763 0
M  V30 79 H 33.604229 39.220993 62.253697 0
M  V30 80 H 33.380403 37.620816 62.869660 0
M  V30 81 H 41.156672 32.004504 60.776366 0
M  V30 82 H 42.836482 32.541777 60.903377 0
M  V30 83 H 37.147683 33.606359 62.212665 0
M  V30 84 H 35.650462 34.397755 61.845846 0
M  V30 END ATOM
M  V30 BEGIN BOND
M  V30 1 1 8 2
M  V30 2 1 9 5
M  V30 3 1 9 6
M  V30 4 1 13 10
M  V30 5 1 14 1
M  V30 6 1 15 6
M  V30 7 1 15 8
M  V30 8 1 17 2
M  V30 9 1 18 14
M  V30 10 1 19 4
M  V30 11 1 19 17
M  V30 12 1 21 11
M  V30 13 1 22 12
M  V30 14 1 23 5
M  V30 15 1 23 11
M  V30 16 2 24 14
M  V30 17 1 25 1
M  V30 18 1 25 20
M  V30 19 1 27 18
M  V30 20 1 27 26
M  V30 21 1 28 6
M  V30 22 1 28 23
M  V30 23 1 29 1
M  V30 24 1 29 22
M  V30 25 2 30 10
M  V30 26 1 30 26
M  V30 27 2 31 3
M  V30 28 1 31 8
M  V30 29 1 32 7
M  V30 30 1 32 16
M  V30 31 1 32 30
M  V30 32 1 33 22
M  V30 33 1 34 7
M  V30 34 1 34 10
M  V30 35 1 35 21
M  V30 36 1 35 25
M  V30 37 1 36 13
M  V30 38 2 36 18
M  V30 39 1 36 20
M  V30 40 1 37 31
M  V30 41 1 38 2
M  V30 42 1 39 2
M  V30 43 1 40 4
M  V30 44 1 41 4
M  V30 45 1 42 4
M  V30 46 1 6 43 CFG=1
M  V30 47 1 44 7
M  V30 48 1 45 7
M  V30 49 1 8 46 CFG=1
M  V30 50 1 47 9
M  V30 51 1 48 9
M  V30 52 1 49 11
M  V30 53 1 50 11
M  V30 54 1 51 12
M  V30 55 1 52 12
M  V30 56 1 53 12
M  V30 57 1 54 13
M  V30 58 1 55 13
M  V30 59 1 56 15
M  V30 60 1 57 15
M  V30 61 1 58 16
M  V30 62 1 59 16
M  V30 63 1 60 16
M  V30 64 1 61 17
M  V30 65 1 62 17
M  V30 66 1 63 20
M  V30 67 1 64 19
M  V30 68 1 65 19
M  V30 69 1 66 21
M  V30 70 1 67 21
M  V30 71 1 68 22
M  V30 72 1 23 69 CFG=1
M  V30 73 1 25 70 CFG=3
M  V30 74 1 71 26
M  V30 75 1 72 26
M  V30 76 1 73 27
M  V30 77 1 74 27
M  V30 78 1 75 28
M  V30 79 1 76 29
M  V30 80 1 77 29
M  V30 81 1 78 33
M  V30 82 1 79 33
M  V30 83 1 80 33
M  V30 84 1 81 34
M  V30 85 1 82 34
M  V30 86 1 83 35
M  V30 87 1 84 35
M  V30 END BOND
M  V30 END CTAB
M  END
>  <i_epik_Tot_Q>  (1) 
-1

>  <i_epik_Tot_abs_Q>  (1) 
1

>  <i_i_glide_confnum>  (1) 
435

>  <i_i_glide_lignum>  (1) 
109

>  <i_i_glide_posenum>  (1) 
80

>  <i_i_glide_rotatable_bonds>  (1) 
12

>  <i_lp_mmshare_version>  (1) 
72125

>  <i_m_source_file_index>  (1) 
49

>  <i_f3d_flags>  (1) 
0

>  <num_sample>  (1) 
50

>  <b_lp_Chiralities_Consistent>  (1) 
1

>  <r_epik_Charging_Adjusted_Penalty>  (1) 
0.0013214273227819019

>  <r_epik_Ionization_Penalty>  (1) 
0.0045694995394012904

>  <r_epik_Ionization_Penalty_Charging>  (1) 
0.0013214273227819019

>  <r_epik_Ionization_Penalty_Neutral>  (1) 
0.0032480722166193885

>  <r_epik_State_Penalty>  (1) 
-0

>  <r_glide_ring_energy>  (1) 
1.2111851229297446

>  <r_i_docking_score>  (1) 
-5.6030431559399121

>  <r_i_glide_ecoul>  (1) 
1.6223789242179469

>  <r_i_glide_eff_state_penalty>  (1) 
-0

>  <r_i_glide_einternal>  (1) 
25.74687435487273

>  <r_i_glide_emodel>  (1) 
-20.939129990468658

>  <r_i_glide_emodel_strain>  (1) 
1.4843255096977259

>  <r_i_glide_energy>  (1) 
-28.586199478042033

>  <r_i_glide_erotb>  (1) 
0.6562967932688043

>  <r_i_glide_esite>  (1) 
0

>  <r_i_glide_evdw>  (1) 
-30.208578402259981

>  <r_i_glide_gscore>  (1) 
-5.6030431559399121

>  <r_i_glide_gscore_strain>  (1) 
0

>  <r_i_glide_hbond>  (1) 
0

>  <r_i_glide_ligand_efficiency>  (1) 
-0.1514335988091868

>  <r_i_glide_ligand_efficiency_ln>  (1) 
-1.2151687065551626

>  <r_i_glide_ligand_efficiency_sa>  (1) 
-0.50461034702535901

>  <r_i_glide_lipo>  (1) 
-3.2324136161042754

>  <r_i_glide_metal>  (1) 
-0

>  <r_i_glide_rewards>  (1) 
-1.7598542516241347

>  <r_lp_Energy>  (1) 
18.394539999999999

>  <r_lp_tautomer_probability>  (1) 
1

>  <s_epik_Chemistry_Notes>  (1) 
This compound has an imine and may undergo hydrolysis. This compound contains an acetal/aminal-like group ( X-CH(R)-Y where X, Y are N, S, or O) that may be acid/base labile, releasing an aldehyde.

>  <s_epik_cmdline>  (1) 
J2VwaWtfcHl0aG9uJywgJy1waHQnLCAnMS4wJywgJy1waCcsICc3LjQnLCAnLXRuJywgJzgnLCAnLW1hJywgJzUwMCcsICctaW1hZScsICc8aW5maWxlLm1hZT4nLCAnLW9tYWUnLCAnPG91dGZpbGUubWFlPic=

>  <s_epik_input>  (1) 
W0NIMl0xW0NIMl1OKFtDSDNdKUMoPUMxMilbQ0gyXVtDSDJdW0NAQEhdM0MoW0NIMl0yKT1OW0NASF0oTihDMz1PKVtDSDJdW0NIXShbQ0gzXSlbQ0gzXSlbQ0gyXVtDSDJdW0NIMl1bQ0BASF0oW05IXTQpU1tDSDJdW0NAQEhdNFtDSDJdW0NAQEhdKEMoPU8pW09IXSlbQ0gyXVtDSDJdW0NIMl1bQ0gzXQ==

>  <s_glide_docking_method>  (1) 
confgen

>  <s_i_glide_gridfile>  (1) 
gpcr_5ht2c_6bqh_protein_autoprepared_prepared

>  <s_lp_Force_Field>  (1) 
S-OPLS

>  <s_lp_Variant>  (1) 
DiffSBDD_48_num_sample_50-1

>  <s_m_source_file>  (1) 
generated__ligand_DiffSBDD_2026-05-06_prepared.sdf

>  <GenAI_Model>  (1) 
DiffSBDD

>  <Protein>  (1) 
GPCR_5HT2C

$$$$
DiffSBDD_30_num_sample_50
     RDKit          3D

  0  0  0  0  0  0  0  0  0  0999 V3000
M  V30 BEGIN CTAB
M  V30 COUNTS 68 67 0 0 1
M  V30 BEGIN ATOM
M  V30 1 C 39.966086 30.502530 53.735227 0
M  V30 2 C 37.729756 31.667017 60.427071 0 CFG=2
M  V30 3 C 37.252854 33.132391 60.522019 0
M  V30 4 O 41.091564 32.412438 65.227075 0
M  V30 5 C 41.148718 34.527272 64.082170 0
M  V30 6 C 39.390480 29.911003 61.430701 0
M  V30 7 C 41.056008 30.782784 50.249477 0
M  V30 8 C 39.101679 28.019020 50.764803 0
M  V30 9 C 38.212282 32.018549 57.859422 0
M  V30 10 C 39.160798 31.400276 61.025890 0 CFG=2
M  V30 11 C 39.994508 29.812693 52.338978 0 CFG=1
M  V30 12 C 39.488215 32.313886 62.253971 0
M  V30 13 C 38.883557 28.741089 52.105317 0 CFG=2
M  V30 14 C 38.787764 32.103590 55.428213 0
M  V30 15 C 39.444958 28.853435 60.318996 0
M  V30 16 C 37.528646 31.177985 58.964982 0
M  V30 17 C 41.062357 33.004560 64.150452 0
M  V30 18 C 40.932496 32.241254 62.824215 0 CFG=2
M  V30 19 C 38.732364 31.383368 54.056859 0
M  V30 20 C 38.795201 27.664165 53.225280 0
M  V30 21 O 38.995659 30.101992 56.701151 0 CHG=-1
M  V30 22 C 37.617287 27.846510 54.192889 0
M  V30 23 N 38.267636 31.232336 56.560712 0 CFG=1 CHG=1
M  V30 24 C 42.003924 32.690004 61.816611 0
M  V30 25 C 40.141401 30.847998 51.228283 0
M  V30 26 H 40.078987 29.746954 54.508046 0
M  V30 27 H 40.853926 31.128823 53.833054 0
M  V30 28 H 37.032744 31.091847 61.037553 0
M  V30 29 H 37.973108 33.815292 60.068474 0
M  V30 30 H 36.302313 33.272736 60.005335 0
M  V30 31 H 37.093183 33.441606 61.555357 0
M  V30 32 H 40.490861 34.924698 63.309956 0
M  V30 33 H 40.855276 34.960826 65.037808 0
M  V30 34 H 42.170861 34.839877 63.867050 0
M  V30 35 H 40.352867 29.817657 61.922921 0
M  V30 36 H 38.666005 29.614824 62.187296 0
M  V30 37 H 41.758172 29.971747 50.195900 0
M  V30 38 H 41.108735 31.548019 49.489843 0
M  V30 39 H 40.083301 27.548898 50.715817 0
M  V30 40 H 38.356064 27.232993 50.653658 0
M  V30 41 H 39.025127 28.692179 49.911750 0
M  V30 42 H 39.234656 32.294003 58.103503 0
M  V30 43 H 37.644883 32.928775 57.659532 0
M  V30 44 H 39.878127 31.657182 60.253538 0
M  V30 45 H 40.916330 29.245485 52.253064 0
M  V30 46 H 39.317615 33.358509 61.997393 0
M  V30 47 H 38.780048 32.084525 63.050367 0
M  V30 48 H 37.910073 29.221271 52.039144 0
M  V30 49 H 39.798734 32.414778 55.693775 0
M  V30 50 H 38.145797 32.985410 55.410527 0
M  V30 51 H 40.000405 27.978926 60.657700 0
M  V30 52 H 38.452810 28.493493 60.050091 0
M  V30 53 H 39.943552 29.227127 59.423794 0
M  V30 54 H 36.460906 31.157159 58.750930 0
M  V30 55 H 37.822493 30.142295 58.870364 0
M  V30 56 H 41.158924 31.215396 63.106032 0
M  V30 57 H 38.667844 32.156456 53.294874 0
M  V30 58 H 37.803974 30.825065 53.967519 0
M  V30 59 H 38.677278 26.672882 52.785623 0
M  V30 60 H 39.725623 27.596624 53.785459 0
M  V30 61 H 37.585630 27.032093 54.916720 0
M  V30 62 H 37.687290 28.771713 54.759370 0
M  V30 63 H 36.667487 27.846127 53.657160 0
M  V30 64 H 42.998786 32.676714 62.260406 0
M  V30 65 H 42.029231 32.022052 60.957218 0
M  V30 66 H 41.814553 33.700397 61.453737 0
M  V30 67 H 39.467402 31.677986 51.249575 0
M  V30 68 H 37.267231 31.032855 56.327331 0
M  V30 END ATOM
M  V30 BEGIN BOND
M  V30 1 1 3 2
M  V30 2 1 10 2
M  V30 3 1 10 6
M  V30 4 1 11 1
M  V30 5 1 12 10
M  V30 6 1 13 8
M  V30 7 1 13 11
M  V30 8 1 15 6
M  V30 9 1 16 2
M  V30 10 1 16 9
M  V30 11 2 17 4
M  V30 12 1 17 5
M  V30 13 1 18 12
M  V30 14 1 18 17
M  V30 15 1 19 1
M  V30 16 1 19 14
M  V30 17 1 20 13
M  V30 18 1 22 20
M  V30 19 1 23 9
M  V30 20 1 23 14
M  V30 21 1 23 21
M  V30 22 1 24 18
M  V30 23 2 25 7
M  V30 24 1 25 11
M  V30 25 1 26 1
M  V30 26 1 27 1
M  V30 27 1 2 28 CFG=1
M  V30 28 1 29 3
M  V30 29 1 30 3
M  V30 30 1 31 3
M  V30 31 1 32 5
M  V30 32 1 33 5
M  V30 33 1 34 5
M  V30 34 1 35 6
M  V30 35 1 36 6
M  V30 36 1 37 7
M  V30 37 1 38 7
M  V30 38 1 39 8
M  V30 39 1 40 8
M  V30 40 1 41 8
M  V30 41 1 42 9
M  V30 42 1 43 9
M  V30 43 1 10 44 CFG=3
M  V30 44 1 11 45 CFG=1
M  V30 45 1 46 12
M  V30 46 1 47 12
M  V30 47 1 13 48 CFG=3
M  V30 48 1 49 14
M  V30 49 1 50 14
M  V30 50 1 51 15
M  V30 51 1 52 15
M  V30 52 1 53 15
M  V30 53 1 54 16
M  V30 54 1 55 16
M  V30 55 1 18 56 CFG=1
M  V30 56 1 57 19
M  V30 57 1 58 19
M  V30 58 1 59 20
M  V30 59 1 60 20
M  V30 60 1 61 22
M  V30 61 1 62 22
M  V30 62 1 63 22
M  V30 63 1 64 24
M  V30 64 1 65 24
M  V30 65 1 66 24
M  V30 66 1 67 25
M  V30 67 1 23 68 CFG=3
M  V30 END BOND
M  V30 END CTAB
M  END
>  <i_epik_Tot_Q>  (1) 
0

>  <i_epik_Tot_abs_Q>  (1) 
2

>  <i_i_glide_confnum>  (1) 
4071

>  <i_i_glide_lignum>  (1) 
82

>  <i_i_glide_posenum>  (1) 
137

>  <i_i_glide_rotatable_bonds>  (1) 
15

>  <i_lp_mmshare_version>  (1) 
72125

>  <i_m_source_file_index>  (1) 
31

>  <i_f3d_flags>  (1) 
0

>  <num_sample>  (1) 
50

>  <b_lp_Chiralities_Consistent>  (1) 
1

>  <r_epik_Charging_Adjusted_Penalty>  (1) 
0.52251968911758562

>  <r_epik_Ionization_Penalty>  (1) 
0.019979657236955634

>  <r_epik_Ionization_Penalty_Charging>  (1) 
0.019979657236557934

>  <r_epik_Ionization_Penalty_Neutral>  (1) 
3.9770064437045143e-13

>  <r_epik_State_Penalty>  (1) 
0.50254003188102769

>  <r_glide_ring_energy>  (1) 
0

>  <r_i_docking_score>  (1) 
-5.6002972318184048

>  <r_i_glide_ecoul>  (1) 
-2.2970963192394009

>  <r_i_glide_eff_state_penalty>  (1) 
0.50254003188102769

>  <r_i_glide_einternal>  (1) 
7.2743554333207783

>  <r_i_glide_emodel>  (1) 
-48.513657592249153

>  <r_i_glide_emodel_strain>  (1) 
0.40527060371372414

>  <r_i_glide_energy>  (1) 
-38.512878834159132

>  <r_i_glide_erotb>  (1) 
1.833058027080513

>  <r_i_glide_esite>  (1) 
-0.09475709665157124

>  <r_i_glide_evdw>  (1) 
-36.215782514919731

>  <r_i_glide_gscore>  (1) 
-6.1028372636994321

>  <r_i_glide_gscore_strain>  (1) 
0

>  <r_i_glide_hbond>  (1) 
-0.082310186118502673

>  <r_i_glide_ligand_efficiency>  (1) 
-0.22401188927273619

>  <r_i_glide_ligand_efficiency_ln>  (1) 
-1.3274382713061623

>  <r_i_glide_ligand_efficiency_sa>  (1) 
-0.65501473780405717

>  <r_i_glide_lipo>  (1) 
-3.8497694324714122

>  <r_i_glide_metal>  (1) 
-0

>  <r_i_glide_rewards>  (1) 
-1.753705001906563

>  <r_lp_Energy>  (1) 
17.351582999999998

>  <s_epik_cmdline>  (1) 
J2VwaWtfcHl0aG9uJywgJy1waHQnLCAnMS4wJywgJy1waCcsICc3LjQnLCAnLXRuJywgJzgnLCAnLW1hJywgJzUwMCcsICctaW1hZScsICc8aW5maWxlLm1hZT4nLCAnLW9tYWUnLCAnPG91dGZpbGUubWFlPic=

>  <s_epik_input>  (1) 
W0NIM11bQ0gyXVtDQEhdKFtDSDNdKVtDQEBIXShbQ0hdPVtDSDJdKVtDSDJdW0NIMl1bQ0gyXU4oW09IXSlbQ0gyXVtDSDJdW0NASF0oW0NIM10pW0NASF0oW0NIMl1bQ0gzXSlbQ0gyXVtDQEhdKFtDSDNdKUMoPU8pW0NIM10=

>  <s_glide_docking_method>  (1) 
confgen

>  <s_i_glide_gridfile>  (1) 
gpcr_5ht2c_6bqh_protein_autoprepared_prepared

>  <s_lp_Force_Field>  (1) 
S-OPLS

>  <s_lp_Variant>  (1) 
DiffSBDD_30_num_sample_50-6

>  <s_m_source_file>  (1) 
generated__ligand_DiffSBDD_2026-05-06_prepared.sdf

>  <GenAI_Model>  (1) 
DiffSBDD

>  <Protein>  (1) 
GPCR_5HT2C

$$$$
DiffSBDD_48_num_sample_50
     RDKit          3D

  0  0  0  0  0  0  0  0  0  0999 V3000
M  V30 BEGIN CTAB
M  V30 COUNTS 84 87 0 0 1
M  V30 BEGIN ATOM
M  V30 1 N 42.140356 28.568944 65.483133 0
M  V30 2 C 37.577024 28.622024 54.840959 0
M  V30 3 O 38.175221 25.716194 56.416474 0
M  V30 4 C 39.119932 31.345969 54.286780 0
M  V30 5 S 41.067391 28.421431 59.919770 0
M  V30 6 C 38.837043 28.007838 58.590566 0 CFG=2
M  V30 7 C 41.044329 35.496299 66.759165 0
M  V30 8 C 38.458506 28.050447 55.979297 0 CFG=1
M  V30 9 C 40.313615 28.275922 58.313185 0
M  V30 10 C 41.484485 33.248648 67.420836 0
M  V30 11 C 39.541805 29.635563 61.892241 0
M  V30 12 C 41.301000 26.002697 66.926715 0
M  V30 13 C 41.321505 31.872948 68.033421 0
M  V30 14 C 43.233556 29.354860 65.779301 0
M  V30 15 C 37.889563 28.299507 57.412096 0
M  V30 16 C 42.742802 35.390220 64.928347 0
M  V30 17 C 37.037976 30.050610 55.091841 0
M  V30 18 C 42.917169 30.555220 66.604610 0
M  V30 19 C 38.106207 31.113750 55.408624 0
M  V30 20 N 40.672674 29.857031 66.817428 0
M  V30 21 C 40.380876 29.086878 63.061797 0
M  V30 22 C 42.509254 26.117313 65.979699 0
M  V30 23 C 39.486345 28.590246 60.758204 0 CFG=1
M  V30 24 O 44.372795 29.042614 65.427400 0
M  V30 25 C 40.738768 29.023727 65.651191 0 CFG=1
M  V30 26 C 43.592393 32.794267 66.061263 0
M  V30 27 C 44.004125 31.553917 66.867618 0
M  V30 28 N 38.516743 28.886919 59.718108 0
M  V30 29 C 42.322872 27.222011 64.904222 0
M  V30 30 C 42.405308 33.618495 66.593090 0
M  V30 31 C 38.758988 26.563066 55.703251 0
M  V30 32 N 42.240229 34.867758 66.172957 0
M  V30 33 C 43.811803 26.252642 66.785706 0
M  V30 34 C 40.476626 34.327999 67.753064 0
M  V30 35 C 40.282317 29.849280 64.404558 0
M  V30 36 C 41.686507 30.711531 67.113466 0
M  V30 37 O 39.568423 26.311397 54.782994 0 CHG=-1
M  V30 38 H 38.152477 28.615977 53.915210 0
M  V30 39 H 36.741700 27.949343 54.646601 0
M  V30 40 H 39.893902 32.021428 54.639187 0
M  V30 41 H 39.610917 30.424487 53.977295 0
M  V30 42 H 38.652655 31.799744 53.415026 0
M  V30 43 H 38.714307 26.966811 58.897945 0
M  V30 44 H 40.322923 35.746335 65.980242 0
M  V30 45 H 41.303298 36.409179 67.295869 0
M  V30 46 H 39.410315 28.572576 55.891689 0
M  V30 47 H 40.458248 29.219752 57.787025 0
M  V30 48 H 40.781452 27.477816 57.736154 0
M  V30 49 H 38.532834 29.841031 62.247874 0
M  V30 50 H 39.944429 30.584487 61.536612 0
M  V30 51 H 41.136127 26.922095 67.487518 0
M  V30 52 H 40.387705 25.770464 66.378568 0
M  V30 53 H 41.451233 25.221532 67.667482 0
M  V30 54 H 40.267408 31.800429 68.253529 0
M  V30 55 H 41.860074 31.811339 68.979386 0
M  V30 56 H 36.980430 27.720239 57.558762 0
M  V30 57 H 37.577196 29.335251 57.510103 0
M  V30 58 H 42.002078 35.306234 64.132737 0
M  V30 59 H 43.038033 36.421421 65.033164 0
M  V30 60 H 43.614321 34.821312 64.653523 0
M  V30 61 H 36.445858 30.393083 54.253504 0
M  V30 62 H 36.310635 30.021397 55.900696 0
M  V30 63 H 39.753435 30.044732 67.191441 0
M  V30 64 H 37.603306 32.055918 55.631412 0
M  V30 65 H 38.648684 30.852368 56.315275 0
M  V30 66 H 41.426122 29.007527 62.763725 0
M  V30 67 H 40.046457 28.065149 63.216942 0
M  V30 68 H 42.582283 25.172307 65.439557 0
M  V30 69 H 39.222338 27.621470 61.174065 0
M  V30 70 H 40.071280 28.176519 65.803097 0
M  V30 71 H 44.477467 33.419895 65.979933 0
M  V30 72 H 43.331215 32.477212 65.053523 0
M  V30 73 H 44.096185 31.775464 67.931746 0
M  V30 74 H 44.979685 31.194422 66.539281 0
M  V30 75 H 38.636984 29.843580 59.420073 0
M  V30 76 H 41.459652 26.939375 64.307828 0
M  V30 77 H 43.159907 27.208844 64.203572 0
M  V30 78 H 43.773762 27.098374 67.471580 0
M  V30 79 H 44.002371 25.360932 67.383797 0
M  V30 80 H 44.667083 26.403317 66.127813 0
M  V30 81 H 39.467405 34.046638 67.510737 0
M  V30 82 H 40.538419 34.613665 68.803833 0
M  V30 83 H 39.259122 30.185825 64.565354 0
M  V30 84 H 40.867710 30.766622 64.320824 0
M  V30 END ATOM
M  V30 BEGIN BOND
M  V30 1 1 8 2
M  V30 2 1 9 5
M  V30 3 1 9 6
M  V30 4 1 13 10
M  V30 5 1 14 1
M  V30 6 1 15 6
M  V30 7 1 15 8
M  V30 8 1 17 2
M  V30 9 1 18 14
M  V30 10 1 19 4
M  V30 11 1 19 17
M  V30 12 1 21 11
M  V30 13 1 22 12
M  V30 14 1 23 5
M  V30 15 1 23 11
M  V30 16 2 24 14
M  V30 17 1 25 1
M  V30 18 1 25 20
M  V30 19 1 27 18
M  V30 20 1 27 26
M  V30 21 1 28 6
M  V30 22 1 28 23
M  V30 23 1 29 1
M  V30 24 1 29 22
M  V30 25 2 30 10
M  V30 26 1 30 26
M  V30 27 2 31 3
M  V30 28 1 31 8
M  V30 29 1 32 7
M  V30 30 1 32 16
M  V30 31 1 32 30
M  V30 32 1 33 22
M  V30 33 1 34 7
M  V30 34 1 34 10
M  V30 35 1 35 21
M  V30 36 1 35 25
M  V30 37 1 36 13
M  V30 38 2 36 18
M  V30 39 1 36 20
M  V30 40 1 37 31
M  V30 41 1 38 2
M  V30 42 1 39 2
M  V30 43 1 40 4
M  V30 44 1 41 4
M  V30 45 1 42 4
M  V30 46 1 6 43 CFG=1
M  V30 47 1 44 7
M  V30 48 1 45 7
M  V30 49 1 8 46 CFG=1
M  V30 50 1 47 9
M  V30 51 1 48 9
M  V30 52 1 49 11
M  V30 53 1 50 11
M  V30 54 1 51 12
M  V30 55 1 52 12
M  V30 56 1 53 12
M  V30 57 1 54 13
M  V30 58 1 55 13
M  V30 59 1 56 15
M  V30 60 1 57 15
M  V30 61 1 58 16
M  V30 62 1 59 16
M  V30 63 1 60 16
M  V30 64 1 61 17
M  V30 65 1 62 17
M  V30 66 1 63 20
M  V30 67 1 64 19
M  V30 68 1 65 19
M  V30 69 1 66 21
M  V30 70 1 67 21
M  V30 71 1 68 22
M  V30 72 1 23 69 CFG=1
M  V30 73 1 25 70 CFG=1
M  V30 74 1 71 26
M  V30 75 1 72 26
M  V30 76 1 73 27
M  V30 77 1 74 27
M  V30 78 1 75 28
M  V30 79 1 76 29
M  V30 80 1 77 29
M  V30 81 1 78 33
M  V30 82 1 79 33
M  V30 83 1 80 33
M  V30 84 1 81 34
M  V30 85 1 82 34
M  V30 86 1 83 35
M  V30 87 1 84 35
M  V30 END BOND
M  V30 END CTAB
M  END
>  <i_epik_Tot_Q>  (1) 
-1

>  <i_epik_Tot_abs_Q>  (1) 
1

>  <i_i_glide_confnum>  (1) 
800

>  <i_i_glide_lignum>  (1) 
109

>  <i_i_glide_posenum>  (1) 
204

>  <i_i_glide_rotatable_bonds>  (1) 
12

>  <i_lp_mmshare_version>  (1) 
72125

>  <i_m_source_file_index>  (1) 
49

>  <i_f3d_flags>  (1) 
0

>  <num_sample>  (1) 
50

>  <b_lp_Chiralities_Consistent>  (1) 
1

>  <r_epik_Charging_Adjusted_Penalty>  (1) 
0.0013214273227819019

>  <r_epik_Ionization_Penalty>  (1) 
0.0045694995394012904

>  <r_epik_Ionization_Penalty_Charging>  (1) 
0.0013214273227819019

>  <r_epik_Ionization_Penalty_Neutral>  (1) 
0.0032480722166193885

>  <r_epik_State_Penalty>  (1) 
-0

>  <r_glide_ring_energy>  (1) 
1.2111851229297446

>  <r_i_docking_score>  (1) 
-5.5932366294403124

>  <r_i_glide_ecoul>  (1) 
-1.5796277716517984

>  <r_i_glide_eff_state_penalty>  (1) 
-0

>  <r_i_glide_einternal>  (1) 
10.718264177491834

>  <r_i_glide_emodel>  (1) 
-36.298104906120777

>  <r_i_glide_emodel_strain>  (1) 
2.6755552774777129

>  <r_i_glide_energy>  (1) 
-37.633844224277375

>  <r_i_glide_erotb>  (1) 
0.6562967932688043

>  <r_i_glide_esite>  (1) 
0

>  <r_i_glide_evdw>  (1) 
-36.054216452625575

>  <r_i_glide_gscore>  (1) 
-5.5932366294403124

>  <r_i_glide_gscore_strain>  (1) 
0

>  <r_i_glide_hbond>  (1) 
0

>  <r_i_glide_ligand_efficiency>  (1) 
-0.15116855755244088

>  <r_i_glide_ligand_efficiency_ln>  (1) 
-1.2130419008549986

>  <r_i_glide_ligand_efficiency_sa>  (1) 
-0.50372717075804241

>  <r_i_glide_lipo>  (1) 
-3.2551511379063638

>  <r_i_glide_metal>  (1) 
-0

>  <r_i_glide_rewards>  (1) 
-0.95472729642370546

>  <r_lp_Energy>  (1) 
18.394539999999999

>  <r_lp_tautomer_probability>  (1) 
1

>  <s_epik_Chemistry_Notes>  (1) 
This compound has an imine and may undergo hydrolysis. This compound contains an acetal/aminal-like group ( X-CH(R)-Y where X, Y are N, S, or O) that may be acid/base labile, releasing an aldehyde.

>  <s_epik_cmdline>  (1) 
J2VwaWtfcHl0aG9uJywgJy1waHQnLCAnMS4wJywgJy1waCcsICc3LjQnLCAnLXRuJywgJzgnLCAnLW1hJywgJzUwMCcsICctaW1hZScsICc8aW5maWxlLm1hZT4nLCAnLW9tYWUnLCAnPG91dGZpbGUubWFlPic=

>  <s_epik_input>  (1) 
W0NIMl0xW0NIMl1OKFtDSDNdKUMoPUMxMilbQ0gyXVtDSDJdW0NAQEhdM0MoW0NIMl0yKT1OW0NASF0oTihDMz1PKVtDSDJdW0NIXShbQ0gzXSlbQ0gzXSlbQ0gyXVtDSDJdW0NIMl1bQ0BASF0oW05IXTQpU1tDSDJdW0NAQEhdNFtDSDJdW0NAQEhdKEMoPU8pW09IXSlbQ0gyXVtDSDJdW0NIMl1bQ0gzXQ==

>  <s_glide_docking_method>  (1) 
confgen

>  <s_i_glide_gridfile>  (1) 
gpcr_5ht2c_6bqh_protein_autoprepared_prepared

>  <s_lp_Force_Field>  (1) 
S-OPLS

>  <s_lp_Variant>  (1) 
DiffSBDD_48_num_sample_50-1

>  <s_m_source_file>  (1) 
generated__ligand_DiffSBDD_2026-05-06_prepared.sdf

>  <GenAI_Model>  (1) 
DiffSBDD

>  <Protein>  (1) 
GPCR_5HT2C

$$$$
DiffSBDD_29_num_sample_50
     RDKit          3D

  0  0  0  0  0  0  0  0  0  0999 V3000
M  V30 BEGIN CTAB
M  V30 COUNTS 79 81 0 0 1
M  V30 BEGIN ATOM
M  V30 1 C 41.322014 30.056182 65.769742 0
M  V30 2 C 41.065653 28.621100 59.339720 0
M  V30 3 C 40.994146 31.552950 65.812758 0
M  V30 4 C 39.534729 26.912053 53.902107 0
M  V30 5 C 36.023299 32.749699 60.018741 0
M  V30 6 C 37.867398 28.478309 54.992676 0
M  V30 7 C 39.696240 33.269839 61.132269 0 CFG=2
M  V30 8 N 38.672627 29.100710 58.733086 0 CHG=1
M  V30 9 C 37.502060 32.609878 60.007662 0 CFG=1
M  V30 10 N 38.092803 27.935431 56.128972 0
M  V30 11 C 38.199857 33.073641 61.305766 0
M  V30 12 C 38.558761 30.572931 58.708622 0 CFG=2
M  V30 13 O 38.768859 26.388546 58.653508 0
M  V30 14 O 40.494324 32.082801 61.053505 0
M  V30 15 C 35.330440 31.680362 59.756337 0
M  V30 16 C 39.467399 29.411399 53.316752 0
M  V30 17 C 35.423596 34.109136 60.301463 0
M  V30 18 C 40.451474 32.296321 63.469210 0
M  V30 19 C 37.522017 31.026493 59.741819 0 CFG=2
M  V30 20 C 40.202095 26.906048 55.286586 0
M  V30 21 C 40.793308 29.198445 66.918239 0
M  V30 22 F 41.362999 29.580902 68.060827 0
M  V30 23 O 39.832883 29.093647 61.413919 0
M  V30 24 O 37.769527 27.931381 52.653585 0
M  V30 25 C 35.901647 35.148452 59.281668 0
M  V30 26 C 39.943942 28.488980 58.275752 0 CFG=2
M  V30 27 F 39.474525 29.359901 67.015025 0
M  V30 28 C 36.071308 30.439173 59.466519 0
M  V30 29 C 40.720071 28.198970 60.780010 0
M  V30 30 C 39.680353 27.029832 57.788193 0 CFG=2
M  V30 31 C 41.310940 32.227395 64.495424 0
M  V30 32 F 41.067281 27.910084 66.703031 0
M  V30 33 C 39.103161 26.905509 56.351424 0 CFG=1
M  V30 34 O 41.982690 29.565611 64.850072 0
M  V30 35 C 40.743742 32.940608 62.170494 0 CFG=2
M  V30 36 C 38.655358 28.169556 53.725737 0 CFG=1
M  V30 37 C 38.348773 31.112359 57.279261 0
M  V30 38 H 41.429237 29.644405 59.363821 0
M  V30 39 H 41.923041 28.033551 59.008308 0
M  V30 40 H 41.535440 32.039175 66.624367 0
M  V30 41 H 39.929385 31.654727 66.015552 0
M  V30 42 H 38.908709 26.021497 53.830404 0
M  V30 43 H 40.267405 26.821434 53.100056 0
M  V30 44 H 37.074315 29.221413 54.864735 0
M  V30 45 H 39.964927 34.026886 60.397604 0
M  V30 46 H 37.937747 28.710190 58.156388 0
M  V30 47 H 37.884379 33.171646 59.157331 0
M  V30 48 H 37.811523 34.041335 61.619033 0
M  V30 49 H 37.981499 32.384269 62.119340 0
M  V30 50 H 39.467403 30.978684 59.098823 0
M  V30 51 H 38.577885 25.529258 58.305707 0
M  V30 52 H 34.252963 31.678589 59.724921 0
M  V30 53 H 40.179530 29.700626 54.090631 0
M  V30 54 H 40.022948 29.239332 52.393991 0
M  V30 55 H 38.822233 30.274546 53.147115 0
M  V30 56 H 34.338263 34.021438 60.245085 0
M  V30 57 H 35.652520 34.421053 61.319476 0
M  V30 58 H 39.475335 31.852969 63.576777 0
M  V30 59 H 37.820556 30.586572 60.693843 0
M  V30 60 H 40.837735 27.774044 55.453500 0
M  V30 61 H 40.832732 26.023326 55.397864 0
M  V30 62 H 39.752118 28.845197 62.326627 0
M  V30 63 H 38.234963 27.509691 51.947300 0
M  V30 64 H 35.467407 36.130248 59.453526 0
M  V30 65 H 36.982895 35.281999 59.306083 0
M  V30 66 H 35.622976 34.821434 58.279559 0
M  V30 67 H 40.296876 29.041016 57.405474 0
M  V30 68 H 35.899236 30.118825 58.438783 0
M  V30 69 H 35.846994 29.621643 60.137608 0
M  V30 70 H 41.625999 28.137837 61.382391 0
M  V30 71 H 40.267397 27.221420 60.786610 0
M  V30 72 H 40.608133 26.457142 57.831592 0
M  V30 73 H 42.293807 32.664580 64.400932 0
M  V30 74 H 38.610886 25.933896 56.267120 0
M  V30 75 H 41.701034 33.457747 62.125582 0
M  V30 76 H 38.261735 32.197046 57.251586 0
M  V30 77 H 39.181990 30.853203 56.627935 0
M  V30 78 H 37.446727 30.711400 56.824089 0
M  V30 79 H 38.543864 28.788046 59.686652 0
M  V30 END ATOM
M  V30 BEGIN BOND
M  V30 1 1 3 1
M  V30 2 1 9 5
M  V30 3 2 10 6
M  V30 4 1 11 7
M  V30 5 1 11 9
M  V30 6 1 12 8
M  V30 7 1 14 7
M  V30 8 2 15 5
M  V30 9 1 17 5
M  V30 10 1 19 9
M  V30 11 1 19 12
M  V30 12 1 20 4
M  V30 13 1 21 1
M  V30 14 1 22 21
M  V30 15 1 25 17
M  V30 16 1 26 2
M  V30 17 1 26 8
M  V30 18 1 27 21
M  V30 19 1 28 15
M  V30 20 1 28 19
M  V30 21 1 29 2
M  V30 22 1 29 23
M  V30 23 1 30 13
M  V30 24 1 30 26
M  V30 25 1 31 3
M  V30 26 2 31 18
M  V30 27 1 32 21
M  V30 28 1 33 10
M  V30 29 1 33 20
M  V30 30 1 33 30
M  V30 31 2 34 1
M  V30 32 1 35 7
M  V30 33 1 35 14
M  V30 34 1 35 18
M  V30 35 1 36 4
M  V30 36 1 36 6
M  V30 37 1 36 16
M  V30 38 1 36 24 CFG=3
M  V30 39 1 37 12
M  V30 40 1 38 2
M  V30 41 1 39 2
M  V30 42 1 40 3
M  V30 43 1 41 3
M  V30 44 1 42 4
M  V30 45 1 43 4
M  V30 46 1 44 6
M  V30 47 1 7 45 CFG=3
M  V30 48 1 46 8
M  V30 49 1 9 47 CFG=3
M  V30 50 1 48 11
M  V30 51 1 49 11
M  V30 52 1 12 50 CFG=1
M  V30 53 1 51 13
M  V30 54 1 52 15
M  V30 55 1 53 16
M  V30 56 1 54 16
M  V30 57 1 55 16
M  V30 58 1 56 17
M  V30 59 1 57 17
M  V30 60 1 58 18
M  V30 61 1 19 59 CFG=1
M  V30 62 1 60 20
M  V30 63 1 61 20
M  V30 64 1 62 23
M  V30 65 1 63 24
M  V30 66 1 64 25
M  V30 67 1 65 25
M  V30 68 1 66 25
M  V30 69 1 26 67 CFG=3
M  V30 70 1 68 28
M  V30 71 1 69 28
M  V30 72 1 70 29
M  V30 73 1 71 29
M  V30 74 1 30 72 CFG=3
M  V30 75 1 73 31
M  V30 76 1 33 74 CFG=1
M  V30 77 1 35 75 CFG=1
M  V30 78 1 76 37
M  V30 79 1 77 37
M  V30 80 1 78 37
M  V30 81 1 79 8
M  V30 END BOND
M  V30 END CTAB
M  END
>  <i_epik_Tot_Q>  (1) 
1

>  <i_epik_Tot_abs_Q>  (1) 
1

>  <i_i_glide_confnum>  (1) 
6415

>  <i_i_glide_lignum>  (1) 
75

>  <i_i_glide_posenum>  (1) 
165

>  <i_i_glide_rotatable_bonds>  (1) 
17

>  <i_lp_mmshare_version>  (1) 
72125

>  <i_m_source_file_index>  (1) 
30

>  <i_f3d_flags>  (1) 
0

>  <num_sample>  (1) 
50

>  <b_lp_Chiralities_Consistent>  (1) 
1

>  <r_epik_Charging_Adjusted_Penalty>  (1) 
0.073066720001252791

>  <r_epik_Ionization_Penalty>  (1) 
0.041882768558209021

>  <r_epik_Ionization_Penalty_Charging>  (1) 
0.011280877963412759

>  <r_epik_Ionization_Penalty_Neutral>  (1) 
0.030601890594796264

>  <r_epik_State_Penalty>  (1) 
0.061785842037840037

>  <r_glide_ring_energy>  (1) 
0

>  <r_i_docking_score>  (1) 
-5.5925905745000426

>  <r_i_glide_ecoul>  (1) 
-3.269536292852349

>  <r_i_glide_eff_state_penalty>  (1) 
0.061785842037840037

>  <r_i_glide_einternal>  (1) 
11.253914232446714

>  <r_i_glide_emodel>  (1) 
-55.344364782582623

>  <r_i_glide_emodel_strain>  (1) 
0.53363158905494856

>  <r_i_glide_energy>  (1) 
-42.913321028884482

>  <r_i_glide_erotb>  (1) 
0.87550365807384167

>  <r_i_glide_esite>  (1) 
-0.022733625487743533

>  <r_i_glide_evdw>  (1) 
-39.643784736032131

>  <r_i_glide_gscore>  (1) 
-5.6543764165378825

>  <r_i_glide_gscore_strain>  (1) 
0

>  <r_i_glide_hbond>  (1) 
0

>  <r_i_glide_ligand_efficiency>  (1) 
-0.15115109660810927

>  <r_i_glide_ligand_efficiency_ln>  (1) 
-1.212901786684131

>  <r_i_glide_ligand_efficiency_sa>  (1) 
-0.50366898701779028

>  <r_i_glide_lipo>  (1) 
-2.9905574464365929

>  <r_i_glide_metal>  (1) 
-0

>  <r_i_glide_rewards>  (1) 
-1.0439693219579289

>  <r_lp_Energy>  (1) 
33.860624000000001

>  <s_epik_Chemistry_Notes>  (1) 
This compound has an imine and may undergo hydrolysis.

>  <s_epik_cmdline>  (1) 
J2VwaWtfcHl0aG9uJywgJy1waHQnLCAnMS4wJywgJy1waCcsICc3LjQnLCAnLXRuJywgJzgnLCAnLW1hJywgJzUwMCcsICctaW1hZScsICc8aW5maWxlLm1hZT4nLCAnLW9tYWUnLCAnPG91dGZpbGUubWFlPic=

>  <s_epik_input>  (1) 
RkMoRikoRilDKD1PKVtDSDJdXFtDSF09W0NIXVxbQ0BIXTFPW0NASF0xW0NIMl1bQ0BIXTJbQ0BIXShbQ0gyXVtDSF09QzJbQ0gyXVtDSDNdKVtDQEhdKFtDSDNdKVtOSF1bQ0BASF0oW0NIMl1bQ0gyXVtPSF0pW0NAQEhdKFtPSF0pW0NAQEhdKE49W0NIXTMpW0NIMl1bQ0gyXVtDQEBdMyhbQ0gzXSlbT0hd

>  <s_glide_docking_method>  (1) 
confgen

>  <s_i_glide_gridfile>  (1) 
gpcr_5ht2c_6bqh_protein_autoprepared_prepared

>  <s_lp_Force_Field>  (1) 
S-OPLS

>  <s_lp_Variant>  (1) 
DiffSBDD_29_num_sample_50-3

>  <s_m_source_file>  (1) 
generated__ligand_DiffSBDD_2026-05-06_prepared.sdf

>  <GenAI_Model>  (1) 
DiffSBDD

>  <Protein>  (1) 
GPCR_5HT2C

$$$$
DiffSBDD_20_num_sample_50
     RDKit          3D

  0  0  0  0  0  0  0  0  0  0999 V3000
M  V30 BEGIN CTAB
M  V30 COUNTS 77 81 0 0 1
M  V30 BEGIN ATOM
M  V30 1 C 37.259911 36.486348 61.896417 0
M  V30 2 C 38.684250 36.959886 63.818091 0
M  V30 3 C 37.395411 33.225107 60.506879 0 CFG=2
M  V30 4 C 40.340687 27.850786 56.503370 0
M  V30 5 C 39.587153 35.964330 63.409589 0
M  V30 6 C 37.045237 29.958167 58.422050 0
M  V30 7 C 41.397577 33.950324 62.623382 0
M  V30 8 C 38.358963 30.025778 57.604119 0 CFG=1
M  V30 9 C 37.371861 29.809259 55.130592 0
M  V30 10 C 38.334818 29.252818 56.224772 0 CFG=2
M  V30 11 C 38.870031 31.475218 57.530364 0
M  V30 12 F 37.549049 24.072926 56.439822 0
M  V30 13 C 38.863430 32.179623 58.877301 0
M  V30 14 C 40.739227 35.704521 64.179484 0
M  V30 15 O 37.719250 30.421416 60.682475 0
M  V30 16 C 37.908885 27.790858 56.434790 0
M  V30 17 C 36.930671 35.392783 59.180280 0
M  V30 18 C 36.957666 30.950934 59.616276 0 CFG=1
M  V30 19 C 37.853849 34.684126 60.196222 0 CFG=1
M  V30 20 C 40.251264 34.202480 61.845633 0
M  V30 21 C 39.477857 31.021285 52.991266 0
M  V30 22 F 39.463362 23.895126 57.451771 0
M  V30 23 C 38.829291 31.776156 54.161691 0
M  V30 24 O 39.125508 25.752241 56.188482 0
M  V30 25 C 37.523095 37.218401 63.064863 0
M  V30 26 C 38.154635 35.480211 61.469352 0
M  V30 27 C 37.468371 31.259910 54.646277 0
M  V30 28 C 38.063568 25.460106 58.253252 0
M  V30 29 C 39.049396 26.596896 58.357333 0
M  V30 30 C 38.547913 24.744863 57.012325 0
M  V30 31 N 37.483389 32.307660 59.352432 0
M  V30 32 C 39.133558 26.994494 56.888725 0 CFG=1
M  V30 33 C 41.640427 34.700216 63.787648 0
M  V30 34 C 39.758860 29.003329 55.682418 0
M  V30 35 O 36.037382 33.253180 60.908609 0
M  V30 36 C 39.333028 35.213657 62.235734 0
M  V30 37 H 36.367812 36.695453 61.328751 0
M  V30 38 H 38.879623 37.527740 64.717271 0
M  V30 39 H 37.985295 32.818994 61.327968 0
M  V30 40 H 41.067839 27.276867 55.933235 0
M  V30 41 H 40.844564 28.238422 57.389141 0
M  V30 42 H 36.941519 28.959097 58.839289 0
M  V30 43 H 36.179411 30.021878 57.770109 0
M  V30 44 H 42.092871 33.179543 62.324726 0
M  V30 45 H 39.096198 29.529803 58.234199 0
M  V30 46 H 37.453168 29.182275 54.242399 0
M  V30 47 H 36.345411 29.664518 55.461867 0
M  V30 48 H 38.257557 32.118363 56.924921 0
M  V30 49 H 39.864884 31.503410 57.088009 0
M  V30 50 H 39.345382 33.132783 58.692630 0
M  V30 51 H 39.467407 31.661398 59.615733 0
M  V30 52 H 40.930053 36.277633 65.076425 0
M  V30 53 H 38.211927 29.687967 60.349146 0
M  V30 54 H 37.067485 27.691249 57.110193 0
M  V30 55 H 37.571128 27.359861 55.490185 0
M  V30 56 H 37.296061 36.390852 58.935554 0
M  V30 57 H 36.897258 34.821194 58.253513 0
M  V30 58 H 35.903191 35.492997 59.526889 0
M  V30 59 H 35.916259 31.004217 59.935695 0
M  V30 60 H 38.816790 34.703930 59.710593 0
M  V30 61 H 40.079833 33.617848 60.959310 0
M  V30 62 H 40.525830 30.819522 53.209261 0
M  V30 63 H 39.000649 30.065840 52.781147 0
M  V30 64 H 39.467602 31.617567 52.078706 0
M  V30 65 H 38.662600 32.812035 53.879751 0
M  V30 66 H 39.542817 31.829742 54.976616 0
M  V30 67 H 36.830356 37.981917 63.387498 0
M  V30 68 H 36.748043 31.372530 53.853513 0
M  V30 69 H 37.067403 31.940143 55.383929 0
M  V30 70 H 37.040421 25.807447 58.125301 0
M  V30 71 H 38.086327 24.821408 59.114900 0
M  V30 72 H 40.015811 26.233031 58.704842 0
M  V30 73 H 38.721008 27.388183 59.028687 0
M  V30 74 H 42.521108 34.505111 64.380999 0
M  V30 75 H 39.698597 28.667245 54.647883 0
M  V30 76 H 40.400377 29.877545 55.682285 0
M  V30 77 H 35.562306 33.761166 60.269109 0
M  V30 END ATOM
M  V30 BEGIN BOND
M  V30 1 1 5 2
M  V30 2 1 8 6
M  V30 3 1 10 8
M  V30 4 1 10 9 CFG=3
M  V30 5 1 11 8
M  V30 6 1 13 11
M  V30 7 2 14 5
M  V30 8 1 16 10
M  V30 9 1 18 6
M  V30 10 1 18 15
M  V30 11 1 19 3
M  V30 12 1 19 17
M  V30 13 1 20 7
M  V30 14 1 23 21
M  V30 15 1 25 1
M  V30 16 2 25 2
M  V30 17 2 26 1
M  V30 18 1 26 19
M  V30 19 1 27 9
M  V30 20 1 27 23
M  V30 21 1 29 28
M  V30 22 1 30 12
M  V30 23 1 30 22
M  V30 24 1 30 24
M  V30 25 1 30 28
M  V30 26 1 31 3
M  V30 27 1 31 13
M  V30 28 1 31 18
M  V30 29 1 32 4
M  V30 30 1 32 16
M  V30 31 1 32 24 CFG=3
M  V30 32 1 32 29
M  V30 33 2 33 7
M  V30 34 1 33 14
M  V30 35 1 34 4
M  V30 36 1 34 10
M  V30 37 1 35 3
M  V30 38 1 36 5
M  V30 39 2 36 20
M  V30 40 1 36 26
M  V30 41 1 37 1
M  V30 42 1 38 2
M  V30 43 1 3 39 CFG=1
M  V30 44 1 40 4
M  V30 45 1 41 4
M  V30 46 1 42 6
M  V30 47 1 43 6
M  V30 48 1 44 7
M  V30 49 1 8 45 CFG=1
M  V30 50 1 46 9
M  V30 51 1 47 9
M  V30 52 1 48 11
M  V30 53 1 49 11
M  V30 54 1 50 13
M  V30 55 1 51 13
M  V30 56 1 52 14
M  V30 57 1 53 15
M  V30 58 1 54 16
M  V30 59 1 55 16
M  V30 60 1 56 17
M  V30 61 1 57 17
M  V30 62 1 58 17
M  V30 63 1 18 59 CFG=1
M  V30 64 1 19 60 CFG=3
M  V30 65 1 61 20
M  V30 66 1 62 21
M  V30 67 1 63 21
M  V30 68 1 64 21
M  V30 69 1 65 23
M  V30 70 1 66 23
M  V30 71 1 67 25
M  V30 72 1 68 27
M  V30 73 1 69 27
M  V30 74 1 70 28
M  V30 75 1 71 28
M  V30 76 1 72 29
M  V30 77 1 73 29
M  V30 78 1 74 33
M  V30 79 1 75 34
M  V30 80 1 76 34
M  V30 81 1 77 35
M  V30 END BOND
M  V30 END CTAB
M  END
>  <i_epik_Tot_Q>  (1) 
0

>  <i_epik_Tot_abs_Q>  (1) 
0

>  <i_i_glide_confnum>  (1) 
653

>  <i_i_glide_lignum>  (1) 
56

>  <i_i_glide_posenum>  (1) 
151

>  <i_i_glide_rotatable_bonds>  (1) 
9

>  <i_lp_mmshare_version>  (1) 
72125

>  <i_m_source_file_index>  (1) 
21

>  <i_f3d_flags>  (1) 
0

>  <num_sample>  (1) 
50

>  <b_lp_Chiralities_Consistent>  (1) 
1

>  <r_epik_Charging_Adjusted_Penalty>  (1) 
0.32925283897171748

>  <r_epik_Ionization_Penalty>  (1) 
0.0090765548759611635

>  <r_epik_Ionization_Penalty_Charging>  (1) 
0

>  <r_epik_Ionization_Penalty_Neutral>  (1) 
0.0090765548759611635

>  <r_epik_State_Penalty>  (1) 
0.32925283897171748

>  <r_glide_ring_energy>  (1) 
0.13714382407628764

>  <r_i_docking_score>  (1) 
-5.5917833196822437

>  <r_i_glide_ecoul>  (1) 
-0.59396275206508709

>  <r_i_glide_eff_state_penalty>  (1) 
0.32925283897171748

>  <r_i_glide_einternal>  (1) 
3.4450487817248714

>  <r_i_glide_emodel>  (1) 
-24.956804626727187

>  <r_i_glide_emodel_strain>  (1) 
5.5287020933401294

>  <r_i_glide_energy>  (1) 
-31.7345095062397

>  <r_i_glide_erotb>  (1) 
0.48702584280874928

>  <r_i_glide_esite>  (1) 
-0.070220219700531147

>  <r_i_glide_evdw>  (1) 
-31.140546754174611

>  <r_i_glide_gscore>  (1) 
-5.921036158653961

>  <r_i_glide_gscore_strain>  (1) 
0.38217552333503235

>  <r_i_glide_hbond>  (1) 
0

>  <r_i_glide_ligand_efficiency>  (1) 
-0.15532731443561787

>  <r_i_glide_ligand_efficiency_ln>  (1) 
-1.2199760478279496

>  <r_i_glide_ligand_efficiency_sa>  (1) 
-0.51287949203259053

>  <r_i_glide_lipo>  (1) 
-3.7829606948526924

>  <r_i_glide_metal>  (1) 
-0

>  <r_i_glide_rewards>  (1) 
-1.2909348597260251

>  <r_lp_Energy>  (1) 
40.512656

>  <s_epik_Chemistry_Notes>  (1) 
This compound contains an acetal/aminal-like group ( X-CH(R)-Y where X, Y are N, S, or O) that may be acid/base labile, releasing an aldehyde.

>  <s_epik_cmdline>  (1) 
J2VwaWtfcHl0aG9uJywgJy1waHQnLCAnMS4wJywgJy1waCcsICc3LjQnLCAnLXRuJywgJzgnLCAnLW1hJywgJzUwMCcsICctaW1hZScsICc8aW5maWxlLm1hZT4nLCAnLW9tYWUnLCAnPG91dGZpbGUubWFlPic=

>  <s_epik_input>  (1) 
W2NIXTFbY0hdW2NIXVtjSF1jKGMxMiljKFtjSF1bY0hdW2NIXTIpW0NASF0oW0NIM10pW0NAQEhdKFtPSF0pTihbQ0gyXVtDSDJdMylbQ0BIXShbT0hdKVtDSDJdW0NASF0zW0NAQF0oW0NIMl00KShbQ0gyXVtDSDJdW0NIMl1bQ0gzXSlbQ0gyXVtDSDJdW0NAXTQ1T0MoRikoRilbQ0gyXVtDSDJdNQ==

>  <s_glide_docking_method>  (1) 
confgen

>  <s_i_glide_gridfile>  (1) 
gpcr_5ht2c_6bqh_protein_autoprepared_prepared

>  <s_lp_Force_Field>  (1) 
S-OPLS

>  <s_lp_Variant>  (1) 
DiffSBDD_20_num_sample_50-1

>  <s_m_source_file>  (1) 
generated__ligand_DiffSBDD_2026-05-06_prepared.sdf

>  <GenAI_Model>  (1) 
DiffSBDD

>  <Protein>  (1) 
GPCR_5HT2C

$$$$
DiffSBDD_7_num_sample_50
     RDKit          3D

  0  0  0  0  0  0  0  0  0  0999 V3000
M  V30 BEGIN CTAB
M  V30 COUNTS 93 96 0 0 1
M  V30 BEGIN ATOM
M  V30 1 C 38.707830 29.727186 54.673231 0 CFG=1
M  V30 2 O 39.527086 30.821415 63.666986 0
M  V30 3 C 39.096510 26.948940 56.891682 0
M  V30 4 C 41.537893 27.911790 63.454024 0
M  V30 5 O 36.452672 30.421592 54.653530 0 CHG=-1
M  V30 6 N 44.105933 31.085439 66.365529 0
M  V30 7 S 41.587246 34.478259 63.457074 0
M  V30 8 N 39.894722 35.621433 60.706420 0
M  V30 9 N 40.864996 28.823017 62.490888 0 CFG=1 CHG=1
M  V30 10 S 38.906371 33.677730 62.020755 0
M  V30 11 C 45.065307 31.540457 67.179496 0
M  V30 12 C 38.230302 24.482017 57.440297 0
M  V30 13 C 38.543552 30.660209 62.657510 0
M  V30 14 C 40.822669 31.196447 63.224504 0 CFG=1
M  V30 15 C 39.857519 34.933585 62.945569 0 CFG=2
M  V30 16 N 45.867448 32.007905 67.859059 0
M  V30 17 O 42.297145 29.482909 65.146122 0
M  V30 18 C 39.612793 27.061515 58.332874 0
M  V30 19 O 37.867362 37.847851 60.185766 0
M  V30 20 C 39.740366 26.291685 54.389237 0
M  V30 21 C 41.664019 31.712874 64.395521 0 CFG=2
M  V30 22 C 38.329626 38.264711 61.452453 0 CFG=1
M  V30 23 O 38.013133 32.005995 54.650442 0
M  V30 24 C 39.897648 36.191110 62.045280 0 CFG=2
M  V30 25 O 39.349785 33.746663 59.457187 0
M  V30 26 C 41.743946 30.722098 65.599983 0 CFG=2
M  V30 27 C 38.835157 29.257604 56.108868 0
M  V30 28 C 37.633015 30.812609 54.653561 0
M  V30 29 C 39.481295 29.531353 58.516723 0
M  V30 30 C 40.418918 28.331526 58.607460 0 CFG=1
M  V30 31 C 41.219713 28.355619 59.919371 0
M  V30 32 C 41.511897 30.140840 62.381212 0
M  V30 33 C 39.386176 29.981710 57.094913 0
M  V30 34 C 38.626040 37.045426 62.345197 0
M  V30 35 C 40.042204 30.199256 54.039237 0
M  V30 36 C 39.699413 25.995232 55.867460 0 CFG=2
M  V30 37 C 41.385465 28.419977 64.901407 0
M  V30 38 C 42.714711 31.250782 66.655628 0
M  V30 39 C 40.361859 28.251088 61.205410 0
M  V30 40 O 42.168448 35.621617 64.286586 0
M  V30 41 C 41.233081 33.161010 64.696177 0
M  V30 42 C 39.534902 39.221172 61.350266 0
M  V30 43 C 38.373168 25.664679 56.501954 0 CFG=2
M  V30 44 C 39.421650 34.362527 60.514947 0
M  V30 45 O 40.667453 33.431241 65.752459 0
M  V30 46 O 42.347087 31.797678 67.693427 0
M  V30 47 O 38.290887 28.007223 56.337834 0
M  V30 48 H 38.325244 28.896507 54.082297 0
M  V30 49 H 42.585019 27.765764 63.182793 0
M  V30 50 H 41.067789 26.930755 63.453052 0
M  V30 51 H 44.395506 30.622188 65.515602 0
M  V30 52 H 40.226730 36.141786 59.906540 0
M  V30 53 H 39.195966 24.195620 57.849267 0
M  V30 54 H 37.564108 24.744045 58.261309 0
M  V30 55 H 37.807268 23.623739 56.916957 0
M  V30 56 H 38.254714 29.621419 62.653325 0
M  V30 57 H 37.662615 31.257085 62.878709 0
M  V30 58 H 38.879824 30.913291 61.650305 0
M  V30 59 H 40.743410 32.016358 62.527088 0
M  V30 60 H 39.361439 35.221467 63.853459 0
M  V30 61 H 40.246739 26.198478 58.533359 0
M  V30 62 H 38.770662 26.985644 59.019220 0
M  V30 63 H 37.057329 37.371163 60.293173 0
M  V30 64 H 38.737971 26.385431 53.975882 0
M  V30 65 H 40.266945 27.221346 54.228862 0
M  V30 66 H 40.265191 25.497715 53.859711 0
M  V30 67 H 42.681188 31.839221 64.022346 0
M  V30 68 H 37.467813 38.802448 61.853499 0
M  V30 69 H 40.803620 36.772461 62.219730 0
M  V30 70 H 40.772335 30.585841 66.076954 0
M  V30 71 H 38.478744 29.285123 58.873082 0
M  V30 72 H 39.814647 30.367098 59.127047 0
M  V30 73 H 41.171230 28.411545 57.818599 0
M  V30 74 H 41.780801 29.267725 59.841172 0
M  V30 75 H 41.986061 27.594590 59.888335 0
M  V30 76 H 42.565502 30.073582 62.653492 0
M  V30 77 H 41.456829 30.537777 61.372232 0
M  V30 78 H 39.783030 30.962480 56.873065 0
M  V30 79 H 38.713594 37.410451 63.370588 0
M  V30 80 H 37.742114 36.406613 62.352937 0
M  V30 81 H 40.881531 30.081901 54.722931 0
M  V30 82 H 40.259202 29.621266 53.143097 0
M  V30 83 H 40.050781 31.235766 53.703770 0
M  V30 84 H 40.586025 25.474469 56.223364 0
M  V30 85 H 41.641095 27.618618 65.596099 0
M  V30 86 H 40.348410 28.679952 65.113050 0
M  V30 87 H 40.168044 27.221428 61.382936 0
M  V30 88 H 39.390148 28.692302 61.009914 0
M  V30 89 H 39.867354 39.621328 62.298518 0
M  V30 90 H 40.427606 38.695424 61.053518 0
M  V30 91 H 39.361980 40.046170 60.657798 0
M  V30 92 H 37.493143 25.799247 55.872865 0
M  V30 93 H 39.999214 29.033355 62.976108 0
M  V30 END ATOM
M  V30 BEGIN BOND
M  V30 1 1 9 4
M  V30 2 1 11 6
M  V30 3 1 13 2
M  V30 4 1 14 2
M  V30 5 1 15 7
M  V30 6 1 15 10
M  V30 7 3 16 11
M  V30 8 1 18 3
M  V30 9 1 21 14
M  V30 10 1 22 19
M  V30 11 1 24 8
M  V30 12 1 24 15
M  V30 13 1 26 17
M  V30 14 1 26 21
M  V30 15 1 27 1
M  V30 16 1 28 1
M  V30 17 1 28 5
M  V30 18 2 28 23
M  V30 19 1 30 18
M  V30 20 1 30 29
M  V30 21 1 31 30
M  V30 22 1 32 9
M  V30 23 1 32 14
M  V30 24 2 33 27
M  V30 25 1 33 29
M  V30 26 1 34 22
M  V30 27 1 34 24
M  V30 28 1 35 1
M  V30 29 1 36 3
M  V30 30 1 36 20
M  V30 31 1 37 4
M  V30 32 1 37 17
M  V30 33 1 38 6
M  V30 34 1 38 26
M  V30 35 1 39 9
M  V30 36 1 39 31
M  V30 37 2 40 7
M  V30 38 1 7 41 CFG=1
M  V30 39 1 41 21
M  V30 40 1 42 22
M  V30 41 1 43 3
M  V30 42 1 43 12
M  V30 43 1 43 36
M  V30 44 1 44 8
M  V30 45 1 44 10
M  V30 46 2 44 25
M  V30 47 2 45 41
M  V30 48 2 46 38
M  V30 49 1 47 3
M  V30 50 1 47 27
M  V30 51 1 1 48 CFG=3
M  V30 52 1 49 4
M  V30 53 1 50 4
M  V30 54 1 51 6
M  V30 55 1 52 8
M  V30 56 1 53 12
M  V30 57 1 54 12
M  V30 58 1 55 12
M  V30 59 1 56 13
M  V30 60 1 57 13
M  V30 61 1 58 13
M  V30 62 1 14 59 CFG=3
M  V30 63 1 15 60 CFG=1
M  V30 64 1 61 18
M  V30 65 1 62 18
M  V30 66 1 63 19
M  V30 67 1 64 20
M  V30 68 1 65 20
M  V30 69 1 66 20
M  V30 70 1 21 67 CFG=3
M  V30 71 1 22 68 CFG=1
M  V30 72 1 24 69 CFG=1
M  V30 73 1 26 70 CFG=1
M  V30 74 1 71 29
M  V30 75 1 72 29
M  V30 76 1 30 73 CFG=3
M  V30 77 1 74 31
M  V30 78 1 75 31
M  V30 79 1 76 32
M  V30 80 1 77 32
M  V30 81 1 78 33
M  V30 82 1 79 34
M  V30 83 1 80 34
M  V30 84 1 81 35
M  V30 85 1 82 35
M  V30 86 1 83 35
M  V30 87 1 36 84 CFG=1
M  V30 88 1 85 37
M  V30 89 1 86 37
M  V30 90 1 87 39
M  V30 91 1 88 39
M  V30 92 1 89 42
M  V30 93 1 90 42
M  V30 94 1 91 42
M  V30 95 1 43 92 CFG=3
M  V30 96 1 9 93 CFG=1
M  V30 END BOND
M  V30 END CTAB
M  END
>  <i_epik_Tot_Q>  (1) 
0

>  <i_epik_Tot_abs_Q>  (1) 
2

>  <i_i_glide_confnum>  (1) 
2172

>  <i_i_glide_lignum>  (1) 
27

>  <i_i_glide_posenum>  (1) 
76

>  <i_i_glide_rotatable_bonds>  (1) 
14

>  <i_lp_mmshare_version>  (1) 
72125

>  <i_m_source_file_index>  (1) 
8

>  <i_f3d_flags>  (1) 
0

>  <num_sample>  (1) 
50

>  <b_lp_Chiralities_Consistent>  (1) 
1

>  <r_epik_Charging_Adjusted_Penalty>  (1) 
2.2678334573304797

>  <r_epik_Ionization_Penalty>  (1) 
1.1498882506810455

>  <r_epik_Ionization_Penalty_Charging>  (1) 
1.1031410554290029

>  <r_epik_Ionization_Penalty_Neutral>  (1) 
0.046747195252042517

>  <r_epik_State_Penalty>  (1) 
1.164692401901477

>  <r_glide_ring_energy>  (1) 
0

>  <r_i_docking_score>  (1) 
-5.5877975112736804

>  <r_i_glide_ecoul>  (1) 
1.7347666229139511

>  <r_i_glide_eff_state_penalty>  (1) 
1.164692401901477

>  <r_i_glide_einternal>  (1) 
17.198786205990196

>  <r_i_glide_emodel>  (1) 
-42.062705814024923

>  <r_i_glide_emodel_strain>  (1) 
5.816674278563724

>  <r_i_glide_energy>  (1) 
-35.142971662935501

>  <r_i_glide_erotb>  (1) 
0.2643022598508753

>  <r_i_glide_esite>  (1) 
-0.066450251173844857

>  <r_i_glide_evdw>  (1) 
-36.877738285849453

>  <r_i_glide_gscore>  (1) 
-6.7524899131751575

>  <r_i_glide_gscore_strain>  (1) 
0.454168569640931

>  <r_i_glide_hbond>  (1) 
0

>  <r_i_glide_ligand_efficiency>  (1) 
-0.11888930875050384

>  <r_i_glide_ligand_efficiency_ln>  (1) 
-1.1520881363081696

>  <r_i_glide_ligand_efficiency_sa>  (1) 
-0.42905083806847988

>  <r_i_glide_lipo>  (1) 
-4.1553736334006475

>  <r_i_glide_metal>  (1) 
-0

>  <r_i_glide_rewards>  (1) 
-1.6654649372370915

>  <r_lp_Energy>  (1) 
32.883552999999999

>  <s_epik_Chemistry_Notes>  (1) 
This compound contains an acetal/aminal-like group ( X-CH(R)-Y where X, Y are N, S, or O) that may be acid/base labile, releasing an aldehyde.

>  <s_epik_cmdline>  (1) 
J2VwaWtfcHl0aG9uJywgJy1waHQnLCAnMS4wJywgJy1waCcsICc3LjQnLCAnLXRuJywgJzgnLCAnLW1hJywgJzUwMCcsICctaW1hZScsICc8aW5maWxlLm1hZT4nLCAnLW9tYWUnLCAnPG91dGZpbGUubWFlPic=

>  <s_epik_input>  (1) 
W09IXUMoPU8pW0NAQEhdKFtDSDNdKUMoTzEpPVtDSF1bQ0gyXVtDQEhdKFtDSDJdW0NAXTEyW0NASF0oW0NIM10pW0NAQEhdMltDSDNdKVtDSDJdW0NIMl1OM1tDSDJdW0NIMl1PW0NAQEhdKEMoPU8pW05IXUMjTilbQ0BASF0oW0NAQEhdKFtDSDJdMylPW0NIM10pQyg9TylTKD1PKVtDQEBIXTRTQyg9TylbTkhdW0NASF00W0NIMl1bQ0BIXShbT0hdKVtDSDNd

>  <s_glide_docking_method>  (1) 
confgen

>  <s_i_glide_gridfile>  (1) 
gpcr_5ht2c_6bqh_protein_autoprepared_prepared

>  <s_lp_Force_Field>  (1) 
S-OPLS

>  <s_lp_Variant>  (1) 
DiffSBDD_7_num_sample_50-5

>  <s_m_source_file>  (1) 
generated__ligand_DiffSBDD_2026-05-06_prepared.sdf

>  <GenAI_Model>  (1) 
DiffSBDD

>  <Protein>  (1) 
GPCR_5HT2C

$$$$
DiffSBDD_5_num_sample_50
     RDKit          3D

  0  0  0  0  0  0  0  0  0  0999 V3000
M  V30 BEGIN CTAB
M  V30 COUNTS 79 81 0 0 1
M  V30 BEGIN ATOM
M  V30 1 C 38.971736 29.148493 57.799425 0
M  V30 2 C 38.413398 26.946805 56.950953 0 CFG=2
M  V30 3 N 37.831431 36.030973 61.167543 0
M  V30 4 F 40.667341 29.621528 49.053500 0
M  V30 5 C 38.125397 30.659658 60.635136 0
M  V30 6 N 38.436357 30.218649 58.279871 0 CHG=1
M  V30 7 C 39.200239 32.604634 61.930539 0 CFG=1
M  V30 8 C 39.455650 29.460340 50.942012 0 CFG=2
M  V30 9 C 37.704079 24.715898 56.305406 0
M  V30 10 C 39.108904 30.719210 59.480723 0 CFG=2
M  V30 11 N 40.018525 28.768708 58.473521 0
M  V30 12 C 38.978786 24.152993 56.983274 0
M  V30 13 C 38.587196 27.826386 54.285832 0 CFG=2
M  V30 14 C 37.112998 23.817275 55.208422 0
M  V30 15 N 38.843983 27.340817 51.928273 0 CHG=1
M  V30 16 C 38.845488 35.016095 61.372747 0
M  V30 17 C 37.571528 26.813388 58.192081 0
M  V30 18 C 40.315766 29.621468 59.627930 0
M  V30 19 C 38.435565 28.428090 56.617289 0 CFG=2
M  V30 20 C 39.473544 27.942367 50.752667 0
M  V30 21 O 38.983409 37.622047 62.252011 0
M  V30 22 C 40.586970 30.184077 50.239555 0
M  V30 23 C 36.827076 38.234024 61.409160 0
M  V30 24 C 37.978082 37.263689 61.643196 0
M  V30 25 S 39.467521 29.794920 52.673344 0
M  V30 26 C 39.262748 28.656186 55.399216 0
M  V30 27 C 38.646527 26.320009 54.653131 0
M  V30 28 C 41.572107 32.473870 62.201546 0
M  V30 29 O 40.480770 32.605159 61.306089 0
M  V30 30 O 36.938421 33.507127 61.484629 0
M  V30 31 N 37.861896 26.117374 55.872542 0
M  V30 32 C 38.312948 33.602265 61.144233 0 CFG=2
M  V30 33 N 39.261185 28.147163 53.053308 0
M  V30 34 C 38.663803 31.168099 61.974737 0
M  V30 35 H 39.444310 26.660721 57.148256 0
M  V30 36 H 36.984586 35.772336 60.680852 0
M  V30 37 H 37.867126 29.621433 60.735791 0
M  V30 38 H 37.200991 31.167504 60.364546 0
M  V30 39 H 39.283968 32.951397 62.962916 0
M  V30 40 H 38.495733 29.835959 50.653121 0
M  V30 41 H 36.915789 24.708830 57.057454 0
M  V30 42 H 39.467362 31.727318 59.298830 0
M  V30 43 H 40.568820 27.949594 58.251871 0
M  V30 44 H 38.772847 23.221419 57.480442 0
M  V30 45 H 39.783811 24.026299 56.271711 0
M  V30 46 H 39.377265 24.746262 57.801548 0
M  V30 47 H 37.544881 28.132173 54.177307 0
M  V30 48 H 36.684994 22.908317 55.634511 0
M  V30 49 H 36.305353 24.320420 54.675104 0
M  V30 50 H 37.867596 23.516530 54.490630 0
M  V30 51 H 39.161972 26.394170 52.079179 0
M  V30 52 H 39.208069 35.100932 62.399109 0
M  V30 53 H 39.704261 35.209827 60.727032 0
M  V30 54 H 37.867409 27.541375 58.945051 0
M  V30 55 H 36.536997 26.988510 57.889094 0
M  V30 56 H 37.662141 25.836827 58.653499 0
M  V30 57 H 41.323106 30.021213 59.547646 0
M  V30 58 H 40.242418 29.046706 60.551821 0
M  V30 59 H 37.433033 28.803011 56.425774 0
M  V30 60 H 38.974216 27.618837 49.853346 0
M  V30 61 H 40.507126 27.621610 50.680061 0
M  V30 62 H 40.390448 31.248990 50.114357 0
M  V30 63 H 41.551952 30.050747 50.727425 0
M  V30 64 H 36.224493 37.931728 60.552970 0
M  V30 65 H 36.179882 38.266263 62.286569 0
M  V30 66 H 37.206799 39.239837 61.227337 0
M  V30 67 H 39.262459 29.731976 55.240209 0
M  V30 68 H 40.297644 28.352608 55.555469 0
M  V30 69 H 38.215707 25.721947 53.852912 0
M  V30 70 H 39.675439 25.985280 54.797571 0
M  V30 71 H 42.501848 32.442718 61.633866 0
M  V30 72 H 41.622950 33.325360 62.881450 0
M  V30 73 H 41.505933 31.557588 62.787797 0
M  V30 74 H 36.561819 32.757135 61.051604 0
M  V30 75 H 38.355651 33.407550 60.072940 0
M  V30 76 H 39.428142 30.492114 62.358744 0
M  V30 77 H 37.862985 31.127085 62.707361 0
M  V30 78 H 37.833885 27.386737 51.877549 0
M  V30 79 H 37.615761 30.669586 57.887932 0
M  V30 END ATOM
M  V30 BEGIN BOND
M  V30 1 2 6 1
M  V30 2 1 10 5
M  V30 3 1 10 6
M  V30 4 1 11 1
M  V30 5 1 12 9
M  V30 6 1 14 9
M  V30 7 1 16 3
M  V30 8 1 17 2
M  V30 9 1 18 10
M  V30 10 1 18 11
M  V30 11 1 19 1
M  V30 12 1 19 2
M  V30 13 1 20 8
M  V30 14 1 20 15
M  V30 15 1 22 4
M  V30 16 1 22 8
M  V30 17 1 24 3
M  V30 18 2 24 21
M  V30 19 1 24 23
M  V30 20 1 25 8
M  V30 21 1 26 13
M  V30 22 1 26 19
M  V30 23 1 27 13
M  V30 24 1 29 7
M  V30 25 1 29 28
M  V30 26 1 31 2
M  V30 27 1 31 9
M  V30 28 1 31 27
M  V30 29 1 32 7
M  V30 30 1 32 16
M  V30 31 1 32 30
M  V30 32 1 33 13
M  V30 33 1 33 15
M  V30 34 1 33 25
M  V30 35 1 34 5
M  V30 36 1 34 7
M  V30 37 1 2 35 CFG=1
M  V30 38 1 36 3
M  V30 39 1 37 5
M  V30 40 1 38 5
M  V30 41 1 7 39 CFG=1
M  V30 42 1 8 40 CFG=3
M  V30 43 1 41 9
M  V30 44 1 10 42 CFG=3
M  V30 45 1 43 11
M  V30 46 1 44 12
M  V30 47 1 45 12
M  V30 48 1 46 12
M  V30 49 1 13 47 CFG=3
M  V30 50 1 48 14
M  V30 51 1 49 14
M  V30 52 1 50 14
M  V30 53 1 51 15
M  V30 54 1 52 16
M  V30 55 1 53 16
M  V30 56 1 54 17
M  V30 57 1 55 17
M  V30 58 1 56 17
M  V30 59 1 57 18
M  V30 60 1 58 18
M  V30 61 1 19 59 CFG=3
M  V30 62 1 60 20
M  V30 63 1 61 20
M  V30 64 1 62 22
M  V30 65 1 63 22
M  V30 66 1 64 23
M  V30 67 1 65 23
M  V30 68 1 66 23
M  V30 69 1 67 26
M  V30 70 1 68 26
M  V30 71 1 69 27
M  V30 72 1 70 27
M  V30 73 1 71 28
M  V30 74 1 72 28
M  V30 75 1 73 28
M  V30 76 1 74 30
M  V30 77 1 32 75 CFG=3
M  V30 78 1 76 34
M  V30 79 1 77 34
M  V30 80 1 78 15
M  V30 81 1 79 6
M  V30 END BOND
M  V30 END CTAB
M  END
>  <i_epik_Tot_Q>  (1) 
2

>  <i_epik_Tot_abs_Q>  (1) 
2

>  <i_i_glide_confnum>  (1) 
12

>  <i_i_glide_lignum>  (1) 
18

>  <i_i_glide_posenum>  (1) 
361

>  <i_i_glide_rotatable_bonds>  (1) 
13

>  <i_lp_mmshare_version>  (1) 
72125

>  <i_m_source_file_index>  (1) 
6

>  <i_f3d_flags>  (1) 
0

>  <num_sample>  (1) 
50

>  <b_lp_Chiralities_Consistent>  (1) 
1

>  <r_epik_Charging_Adjusted_Penalty>  (1) 
1.2202907703101018

>  <r_epik_Ionization_Penalty>  (1) 
1.220291206888735

>  <r_epik_Ionization_Penalty_Charging>  (1) 
0.00010224848283174563

>  <r_epik_Ionization_Penalty_Neutral>  (1) 
1.2201889584059034

>  <r_epik_State_Penalty>  (1) 
1.2201885218272701

>  <r_glide_ring_energy>  (1) 
0

>  <r_i_docking_score>  (1) 
-5.5825507616133283

>  <r_i_glide_ecoul>  (1) 
-3.3875701983382389

>  <r_i_glide_eff_state_penalty>  (1) 
1.2201885218272701

>  <r_i_glide_einternal>  (1) 
6.2589610068129744

>  <r_i_glide_emodel>  (1) 
-49.694812540739974

>  <r_i_glide_emodel_strain>  (1) 
3.07760064378229

>  <r_i_glide_energy>  (1) 
-32.882282877726773

>  <r_i_glide_erotb>  (1) 
0.64218136225351719

>  <r_i_glide_esite>  (1) 
-0.029248884710764617

>  <r_i_glide_evdw>  (1) 
-29.494712679388535

>  <r_i_glide_gscore>  (1) 
-6.8027392834405989

>  <r_i_glide_gscore_strain>  (1) 
0

>  <r_i_glide_hbond>  (1) 
0

>  <r_i_glide_ligand_efficiency>  (1) 
-0.16419266945921554

>  <r_i_glide_ligand_efficiency_ln>  (1) 
-1.2333420484853519

>  <r_i_glide_ligand_efficiency_sa>  (1) 
-0.53192050966332771

>  <r_i_glide_lipo>  (1) 
-4.4226634712901243

>  <r_i_glide_metal>  (1) 
-0

>  <r_i_glide_rewards>  (1) 
-1.0101371259730632

>  <r_lp_Energy>  (1) 
23.621561999999997

>  <s_epik_Chemistry_Notes>  (1) 
This compound has an imine and may undergo hydrolysis. This compound has a N-S or N-O group and may undergo hydrolysis at high or low pH.

>  <s_epik_cmdline>  (1) 
J2VwaWtfcHl0aG9uJywgJy1waHQnLCAnMS4wJywgJy1waCcsICc3LjQnLCAnLXRuJywgJzgnLCAnLW1hJywgJzUwMCcsICctaW1hZScsICc8aW5maWxlLm1hZT4nLCAnLW9tYWUnLCAnPG91dGZpbGUubWFlPic=

>  <s_epik_input>  (1) 
RltDSDJdW0NASF0xW0NIMl1bTkhdTihTMSlbQ0BASF0oW0NIMl1OMltDSF0oW0NIM10pW0NIM10pW0NIMl1bQ0BASF0oW0NASF0yW0NIM10pQzM9TltDQEhdKFtDSDJdW05IXTMpW0NIMl1bQ0gyXVtDQEBIXShPW0NIM10pW0NAQEhdKFtPSF0pW0NIMl1bTkhdQyg9TylbQ0gzXQ==

>  <s_glide_docking_method>  (1) 
confgen

>  <s_i_glide_gridfile>  (1) 
gpcr_5ht2c_6bqh_protein_autoprepared_prepared

>  <s_lp_Force_Field>  (1) 
S-OPLS

>  <s_lp_Variant>  (1) 
DiffSBDD_5_num_sample_50-5

>  <s_m_source_file>  (1) 
generated__ligand_DiffSBDD_2026-05-06_prepared.sdf

>  <GenAI_Model>  (1) 
DiffSBDD

>  <Protein>  (1) 
GPCR_5HT2C

$$$$
DiffSBDD_20_num_sample_50
     RDKit          3D

  0  0  0  0  0  0  0  0  0  0999 V3000
M  V30 BEGIN CTAB
M  V30 COUNTS 77 81 0 0 1
M  V30 BEGIN ATOM
M  V30 1 C 39.341565 34.168967 61.630433 0
M  V30 2 C 37.752839 35.677358 60.569122 0
M  V30 3 C 39.649062 31.078878 60.498653 0 CFG=2
M  V30 4 C 37.723429 26.957195 54.677824 0
M  V30 5 C 36.877949 34.599612 60.333107 0
M  V30 6 C 37.957000 30.922363 56.954272 0
M  V30 7 C 35.089684 32.469336 59.878338 0
M  V30 8 C 37.726139 29.404795 56.861802 0 CFG=1
M  V30 9 C 40.114255 28.344482 57.268256 0
M  V30 10 C 38.870295 28.463094 56.315400 0 CFG=2
M  V30 11 C 37.127710 29.051295 58.219069 0
M  V30 12 F 40.730800 28.429390 51.453421 0
M  V30 13 C 38.065106 29.403600 59.379144 0
M  V30 14 C 35.669587 34.821355 59.656986 0
M  V30 15 O 38.784498 32.742579 58.183832 0
M  V30 16 C 39.180220 28.940863 54.876248 0
M  V30 17 C 39.864608 31.637750 63.010683 0
M  V30 18 C 38.958293 31.350346 57.989036 0 CFG=1
M  V30 19 C 38.933601 31.646703 61.773946 0 CFG=1
M  V30 20 C 36.304538 32.228529 60.538949 0
M  V30 21 C 42.490090 26.944695 58.653485 0
M  V30 22 F 39.067261 27.221355 50.811794 0
M  V30 23 C 42.657703 28.014098 57.603200 0
M  V30 24 O 39.467364 27.353462 53.057138 0
M  V30 25 C 38.974778 35.463409 61.224599 0
M  V30 26 C 38.474086 33.070885 61.400046 0
M  V30 27 C 41.470979 28.023389 56.639441 0
M  V30 28 C 38.643350 29.221391 51.915557 0
M  V30 29 C 37.600728 28.758014 52.907792 0
M  V30 30 C 39.526647 27.999148 51.788518 0
M  V30 31 N 38.667526 30.787721 59.365214 0 CFG=2 CHG=1
M  V30 32 C 38.488426 27.992050 53.871604 0 CFG=1
M  V30 33 C 34.775460 33.760673 59.434164 0
M  V30 34 C 38.349339 27.017530 56.066487 0
M  V30 35 O 40.285015 29.965174 60.775479 0 CHG=-1
M  V30 36 C 37.216669 33.293978 60.765597 0
M  V30 37 H 40.297434 34.014437 62.104979 0
M  V30 38 H 37.484980 36.672468 60.242373 0
M  V30 39 H 40.265638 31.938760 60.253494 0
M  V30 40 H 37.786706 25.959140 54.240693 0
M  V30 41 H 36.667503 27.220042 54.693437 0
M  V30 42 H 37.067404 31.354846 57.351593 0
M  V30 43 H 38.120031 31.413142 55.996368 0
M  V30 44 H 34.400421 31.657793 59.704599 0
M  V30 45 H 36.931893 29.332365 56.126401 0
M  V30 46 H 40.291653 29.218985 57.870840 0
M  V30 47 H 39.907095 27.558046 57.992671 0
M  V30 48 H 36.185023 29.586662 58.353503 0
M  V30 49 H 36.854181 28.004852 58.253457 0
M  V30 50 H 37.454245 29.322893 60.253497 0
M  V30 51 H 38.799168 28.612544 59.479431 0
M  V30 52 H 35.420990 35.813529 59.313196 0
M  V30 53 H 38.159382 33.061155 57.545602 0
M  V30 54 H 38.850536 29.959190 54.705381 0
M  V30 55 H 40.226768 29.029601 54.653539 0
M  V30 56 H 39.467368 32.253012 63.816555 0
M  V30 57 H 39.977660 30.622229 63.395045 0
M  V30 58 H 40.865861 31.999326 62.773766 0
M  V30 59 H 39.867407 31.139761 57.453789 0
M  V30 60 H 38.104565 31.012982 62.075262 0
M  V30 61 H 36.529335 31.233965 60.865603 0
M  V30 62 H 43.446172 26.609084 59.052953 0
M  V30 63 H 41.897641 27.365014 59.464223 0
M  V30 64 H 41.950634 26.087164 58.253534 0
M  V30 65 H 43.580386 27.828645 57.053540 0
M  V30 66 H 42.779782 28.980726 58.090518 0
M  V30 67 H 39.643852 36.293132 61.401216 0
M  V30 68 H 41.403233 27.066171 56.128716 0
M  V30 69 H 41.732498 28.789053 55.917698 0
M  V30 70 H 39.210184 30.056031 52.330696 0
M  V30 71 H 38.267398 29.528814 50.949820 0
M  V30 72 H 36.874977 28.100506 52.426992 0
M  V30 73 H 37.067426 29.545320 53.445784 0
M  V30 74 H 33.844168 33.942032 58.918883 0
M  V30 75 H 39.186124 26.318006 56.063586 0
M  V30 76 H 37.667079 26.646080 56.826875 0
M  V30 77 H 37.889416 31.379989 59.613320 0
M  V30 END ATOM
M  V30 BEGIN BOND
M  V30 1 1 5 2
M  V30 2 1 8 6
M  V30 3 1 10 8
M  V30 4 1 10 9 CFG=1
M  V30 5 1 11 8
M  V30 6 1 13 11
M  V30 7 2 14 5
M  V30 8 1 16 10
M  V30 9 1 18 6
M  V30 10 1 18 15
M  V30 11 1 19 3
M  V30 12 1 19 17
M  V30 13 1 20 7
M  V30 14 1 23 21
M  V30 15 1 25 1
M  V30 16 2 25 2
M  V30 17 2 26 1
M  V30 18 1 26 19
M  V30 19 1 27 9
M  V30 20 1 27 23
M  V30 21 1 29 28
M  V30 22 1 30 12
M  V30 23 1 30 22
M  V30 24 1 30 24
M  V30 25 1 30 28
M  V30 26 1 31 3
M  V30 27 1 31 13
M  V30 28 1 31 18
M  V30 29 1 32 4
M  V30 30 1 32 16
M  V30 31 1 32 24 CFG=3
M  V30 32 1 32 29
M  V30 33 2 33 7
M  V30 34 1 33 14
M  V30 35 1 34 4
M  V30 36 1 34 10
M  V30 37 1 35 3
M  V30 38 1 36 5
M  V30 39 2 36 20
M  V30 40 1 36 26
M  V30 41 1 37 1
M  V30 42 1 38 2
M  V30 43 1 3 39 CFG=3
M  V30 44 1 40 4
M  V30 45 1 41 4
M  V30 46 1 42 6
M  V30 47 1 43 6
M  V30 48 1 44 7
M  V30 49 1 8 45 CFG=3
M  V30 50 1 46 9
M  V30 51 1 47 9
M  V30 52 1 48 11
M  V30 53 1 49 11
M  V30 54 1 50 13
M  V30 55 1 51 13
M  V30 56 1 52 14
M  V30 57 1 53 15
M  V30 58 1 54 16
M  V30 59 1 55 16
M  V30 60 1 56 17
M  V30 61 1 57 17
M  V30 62 1 58 17
M  V30 63 1 18 59 CFG=3
M  V30 64 1 19 60 CFG=1
M  V30 65 1 61 20
M  V30 66 1 62 21
M  V30 67 1 63 21
M  V30 68 1 64 21
M  V30 69 1 65 23
M  V30 70 1 66 23
M  V30 71 1 67 25
M  V30 72 1 68 27
M  V30 73 1 69 27
M  V30 74 1 70 28
M  V30 75 1 71 28
M  V30 76 1 72 29
M  V30 77 1 73 29
M  V30 78 1 74 33
M  V30 79 1 75 34
M  V30 80 1 76 34
M  V30 81 1 31 77 CFG=1
M  V30 END BOND
M  V30 END CTAB
M  END
>  <i_epik_Tot_Q>  (1) 
0

>  <i_epik_Tot_abs_Q>  (1) 
2

>  <i_i_glide_confnum>  (1) 
747

>  <i_i_glide_lignum>  (1) 
57

>  <i_i_glide_posenum>  (1) 
31

>  <i_i_glide_rotatable_bonds>  (1) 
8

>  <i_lp_mmshare_version>  (1) 
72125

>  <i_m_source_file_index>  (1) 
21

>  <i_f3d_flags>  (1) 
0

>  <num_sample>  (1) 
50

>  <b_lp_Chiralities_Consistent>  (1) 
1

>  <r_epik_Charging_Adjusted_Penalty>  (1) 
0.70686764658740575

>  <r_epik_Ionization_Penalty>  (1) 
0.13730248461042968

>  <r_epik_Ionization_Penalty_Charging>  (1) 
0.016711854413244867

>  <r_epik_Ionization_Penalty_Neutral>  (1) 
0.12059063019718481

>  <r_epik_State_Penalty>  (1) 
0.6901557921741609

>  <r_glide_ring_energy>  (1) 
0.22414232888403762

>  <r_i_docking_score>  (1) 
-5.582015366196277

>  <r_i_glide_ecoul>  (1) 
-0.98196250716741007

>  <r_i_glide_eff_state_penalty>  (1) 
0.6901557921741609

>  <r_i_glide_einternal>  (1) 
4.5417080731381176

>  <r_i_glide_emodel>  (1) 
-35.06309502160245

>  <r_i_glide_emodel_strain>  (1) 
4.5087798165719875

>  <r_i_glide_energy>  (1) 
-25.822439112964208

>  <r_i_glide_erotb>  (1) 
0.48702584280874928

>  <r_i_glide_esite>  (1) 
-0.039719197138946713

>  <r_i_glide_evdw>  (1) 
-24.840476605796798

>  <r_i_glide_gscore>  (1) 
-6.2721711583704378

>  <r_i_glide_gscore_strain>  (1) 
0.12719495414299686

>  <r_i_glide_hbond>  (1) 
-0.010518257137739375

>  <r_i_glide_ligand_efficiency>  (1) 
-0.15505598239434104

>  <r_i_glide_ligand_efficiency_ln>  (1) 
-1.2178449442769175

>  <r_i_glide_ligand_efficiency_sa>  (1) 
-0.51198357337200029

>  <r_i_glide_lipo>  (1) 
-3.8747019688435942

>  <r_i_glide_metal>  (1) 
-0

>  <r_i_glide_rewards>  (1) 
-1.5721343258369507

>  <r_lp_Energy>  (1) 
66.418807999999999

>  <s_epik_Chemistry_Notes>  (1) 
This compound contains an acetal/aminal-like group ( X-CH(R)-Y where X, Y are N, S, or O) that may be acid/base labile, releasing an aldehyde.

>  <s_epik_cmdline>  (1) 
J2VwaWtfcHl0aG9uJywgJy1waHQnLCAnMS4wJywgJy1waCcsICc3LjQnLCAnLXRuJywgJzgnLCAnLW1hJywgJzUwMCcsICctaW1hZScsICc8aW5maWxlLm1hZT4nLCAnLW9tYWUnLCAnPG91dGZpbGUubWFlPic=

>  <s_epik_input>  (1) 
W2NIXTFbY0hdW2NIXVtjSF1jKGMxMiljKFtjSF1bY0hdW2NIXTIpW0NASF0oW0NIM10pW0NAQEhdKFtPSF0pTihbQ0gyXVtDSDJdMylbQ0BIXShbT0hdKVtDSDJdW0NASF0zW0NAQF0oW0NIMl00KShbQ0gyXVtDSDJdW0NIMl1bQ0gzXSlbQ0gyXVtDSDJdW0NAXTQ1T0MoRikoRilbQ0gyXVtDSDJdNQ==

>  <s_glide_docking_method>  (1) 
confgen

>  <s_i_glide_gridfile>  (1) 
gpcr_5ht2c_6bqh_protein_autoprepared_prepared

>  <s_lp_Force_Field>  (1) 
S-OPLS

>  <s_lp_Variant>  (1) 
DiffSBDD_20_num_sample_50-2

>  <s_m_source_file>  (1) 
generated__ligand_DiffSBDD_2026-05-06_prepared.sdf

>  <GenAI_Model>  (1) 
DiffSBDD

>  <Protein>  (1) 
GPCR_5HT2C

$$$$
DiffSBDD_17_num_sample_50
     RDKit          3D

  0  0  0  0  0  0  0  0  0  0999 V3000
M  V30 BEGIN CTAB
M  V30 COUNTS 67 69 0 0 1
M  V30 BEGIN ATOM
M  V30 1 C 42.033185 28.248721 57.995154 0
M  V30 2 S 36.522432 37.221051 59.960259 0
M  V30 3 C 37.065294 23.751566 56.616396 0
M  V30 4 O 38.475916 31.662211 56.112378 0
M  V30 5 C 38.903269 30.564977 56.460308 0
M  V30 6 C 37.374111 26.167405 55.237911 0
M  V30 7 N 38.907722 30.225982 57.804241 0
M  V30 8 C 37.392742 30.764395 59.926675 0 CFG=2
M  V30 9 O 36.587560 29.621449 59.704381 0
M  V30 10 C 38.345813 33.304779 61.386606 0
M  V30 11 C 39.303195 34.447581 61.059609 0
M  V30 12 C 41.001745 29.011876 58.856023 0
M  V30 13 C 36.515155 31.946306 60.440880 0
M  V30 14 O 37.867201 40.053910 60.451884 0 CHG=-1
M  V30 15 C 37.326567 24.922149 57.325709 0
M  V30 16 C 39.510102 28.950368 58.399228 0 CFG=2
M  V30 17 C 39.170848 27.537895 57.851698 0
M  V30 18 C 36.932627 23.781766 55.218533 0
M  V30 19 C 35.662830 29.629080 58.636408 0
M  V30 20 N 37.258965 33.226350 60.389757 0 CFG=1 CHG=1
M  V30 21 C 38.582927 35.777227 60.770808 0 CFG=1
M  V30 22 C 36.430413 34.458878 60.381554 0
M  V30 23 C 37.454615 37.878222 61.368783 0 CFG=2
M  V30 24 C 38.374505 39.087704 61.053252 0
M  V30 25 C 37.734090 27.396507 57.402925 0
M  V30 26 C 37.316624 35.617479 59.905179 0 CFG=1
M  V30 27 C 38.327657 31.198829 58.766741 0
M  V30 28 O 39.554439 39.028742 61.454125 0
M  V30 29 C 38.188568 36.647862 61.970200 0
M  V30 30 S 39.468243 29.508756 55.179591 0 CHG=-1
M  V30 31 C 37.476147 26.133183 56.640771 0
M  V30 32 C 37.089497 24.992417 54.529836 0
M  V30 33 H 43.061172 28.509827 58.251637 0
M  V30 34 H 41.903506 28.423914 56.932022 0
M  V30 35 H 41.934085 27.170056 58.148801 0
M  V30 36 H 36.944712 22.828670 57.149303 0
M  V30 37 H 37.489989 27.101120 54.706465 0
M  V30 38 H 38.040082 30.459885 60.747608 0
M  V30 39 H 38.914490 32.379955 61.451575 0
M  V30 40 H 37.882099 33.432769 62.342702 0
M  V30 41 H 40.038546 34.572892 61.856651 0
M  V30 42 H 39.870536 34.158189 60.170421 0
M  V30 43 H 41.054572 28.542478 59.841145 0
M  V30 44 H 41.334694 30.021422 59.064165 0
M  V30 45 H 35.629865 32.066009 59.817273 0
M  V30 46 H 36.146124 31.747048 61.448110 0
M  V30 47 H 37.405640 24.888479 58.399039 0
M  V30 48 H 39.008519 28.897318 59.361102 0
M  V30 49 H 39.825903 27.258789 57.024992 0
M  V30 50 H 39.372488 26.794099 58.629330 0
M  V30 51 H 36.707624 22.875452 54.675562 0
M  V30 52 H 35.118482 28.684822 58.657115 0
M  V30 53 H 36.178724 29.700836 57.683351 0
M  V30 54 H 34.924425 30.423297 58.653472 0
M  V30 55 H 39.292363 36.398795 60.246628 0
M  V30 56 H 35.587695 34.350482 59.694930 0
M  V30 57 H 36.015636 34.646067 61.372614 0
M  V30 58 H 36.728797 38.242115 62.101233 0
M  V30 59 H 37.069146 27.456111 58.251499 0
M  V30 60 H 37.467044 28.216821 56.757165 0
M  V30 61 H 37.486005 35.415622 58.849147 0
M  V30 62 H 39.134819 31.806795 59.162371 0
M  V30 63 H 37.698378 31.901287 58.220463 0
M  V30 64 H 37.505522 36.105994 62.621920 0
M  V30 65 H 39.043978 36.909819 62.593621 0
M  V30 66 H 36.987077 25.022548 53.454540 0
M  V30 67 H 37.695109 33.214794 59.476356 0
M  V30 END ATOM
M  V30 BEGIN BOND
M  V30 1 2 5 4
M  V30 2 1 7 5
M  V30 3 1 9 8
M  V30 4 1 11 10
M  V30 5 1 12 1
M  V30 6 1 13 8
M  V30 7 1 15 3
M  V30 8 1 16 7
M  V30 9 1 16 12
M  V30 10 1 17 16
M  V30 11 2 18 3
M  V30 12 1 19 9
M  V30 13 1 20 10
M  V30 14 1 20 13
M  V30 15 1 21 11
M  V30 16 1 22 20
M  V30 17 1 23 2
M  V30 18 1 24 14
M  V30 19 1 24 23
M  V30 20 1 25 17
M  V30 21 1 26 2
M  V30 22 1 26 21
M  V30 23 1 26 22
M  V30 24 1 27 7
M  V30 25 1 27 8
M  V30 26 2 28 24
M  V30 27 1 29 21
M  V30 28 1 29 23
M  V30 29 1 30 5
M  V30 30 1 31 6
M  V30 31 2 31 15
M  V30 32 1 31 25
M  V30 33 2 32 6
M  V30 34 1 32 18
M  V30 35 1 33 1
M  V30 36 1 34 1
M  V30 37 1 35 1
M  V30 38 1 36 3
M  V30 39 1 37 6
M  V30 40 1 8 38 CFG=1
M  V30 41 1 39 10
M  V30 42 1 40 10
M  V30 43 1 41 11
M  V30 44 1 42 11
M  V30 45 1 43 12
M  V30 46 1 44 12
M  V30 47 1 45 13
M  V30 48 1 46 13
M  V30 49 1 47 15
M  V30 50 1 16 48 CFG=1
M  V30 51 1 49 17
M  V30 52 1 50 17
M  V30 53 1 51 18
M  V30 54 1 52 19
M  V30 55 1 53 19
M  V30 56 1 54 19
M  V30 57 1 21 55 CFG=3
M  V30 58 1 56 22
M  V30 59 1 57 22
M  V30 60 1 23 58 CFG=1
M  V30 61 1 59 25
M  V30 62 1 60 25
M  V30 63 1 26 61 CFG=3
M  V30 64 1 62 27
M  V30 65 1 63 27
M  V30 66 1 64 29
M  V30 67 1 65 29
M  V30 68 1 66 32
M  V30 69 1 20 67 CFG=3
M  V30 END BOND
M  V30 END CTAB
M  END
>  <i_epik_Tot_Q>  (1) 
-1

>  <i_epik_Tot_abs_Q>  (1) 
3

>  <i_i_glide_confnum>  (1) 
676

>  <i_i_glide_lignum>  (1) 
48

>  <i_i_glide_posenum>  (1) 
108

>  <i_i_glide_rotatable_bonds>  (1) 
12

>  <i_lp_mmshare_version>  (1) 
72125

>  <i_m_source_file_index>  (1) 
18

>  <i_f3d_flags>  (1) 
0

>  <num_sample>  (1) 
50

>  <b_lp_Chiralities_Consistent>  (1) 
1

>  <r_epik_Charging_Adjusted_Penalty>  (1) 
0.068943464179595071

>  <r_epik_Ionization_Penalty>  (1) 
0.034590213650767733

>  <r_epik_Ionization_Penalty_Charging>  (1) 
0.034589667735814351

>  <r_epik_Ionization_Penalty_Neutral>  (1) 
5.4591495337813188e-07

>  <r_epik_State_Penalty>  (1) 
0.034353796443780713

>  <r_glide_ring_energy>  (1) 
0

>  <r_i_docking_score>  (1) 
-5.5675893184107119

>  <r_i_glide_ecoul>  (1) 
-1.2911095236461647

>  <r_i_glide_eff_state_penalty>  (1) 
0.034353796443780713

>  <r_i_glide_einternal>  (1) 
7.2968132996780177

>  <r_i_glide_emodel>  (1) 
-28.550511367329115

>  <r_i_glide_emodel_strain>  (1) 
4.2847167256562102

>  <r_i_glide_energy>  (1) 
-16.959680810114381

>  <r_i_glide_erotb>  (1) 
0.61675831554288163

>  <r_i_glide_esite>  (1) 
-0.046274016404044278

>  <r_i_glide_evdw>  (1) 
-15.668571286468218

>  <r_i_glide_gscore>  (1) 
-5.6019431148544925

>  <r_i_glide_gscore_strain>  (1) 
0.07117918141405255

>  <r_i_glide_hbond>  (1) 
-0.23021074863672056

>  <r_i_glide_ligand_efficiency>  (1) 
-0.17398716620033475

>  <r_i_glide_ligand_efficiency_ln>  (1) 
-1.2467350151450278

>  <r_i_glide_ligand_efficiency_sa>  (1) 
-0.55237482131075477

>  <r_i_glide_lipo>  (1) 
-4.0800921101252809

>  <r_i_glide_metal>  (1) 
-0

>  <r_i_glide_rewards>  (1) 
-0.9562087437750455

>  <r_lp_Energy>  (1) 
40.638894999999998

>  <s_epik_cmdline>  (1) 
J2VwaWtfcHl0aG9uJywgJy1waHQnLCAnMS4wJywgJy1waCcsICc3LjQnLCAnLXRuJywgJzgnLCAnLW1hJywgJzUwMCcsICctaW1hZScsICc8aW5maWxlLm1hZT4nLCAnLW9tYWUnLCAnPG91dGZpbGUubWFlPic=

>  <s_epik_input>  (1) 
W2NIXTFbY0hdW2NIXVtjSF1bY0hdYzFbQ0gyXVtDSDJdW0NAQEhdKFtDSDJdW0NIM10pTihDKD1PKVtTSF0pW0NIMl1bQ0hdKE9bQ0gzXSlbQ0gyXU4oW0NIMl1bQ0gyXTIpW0NIMl1bQ0BIXShbQ0BIXTIzKVNbQ0BASF0oW0NIMl0zKUMoPU8pW09IXQ==

>  <s_glide_docking_method>  (1) 
confgen

>  <s_i_glide_gridfile>  (1) 
gpcr_5ht2c_6bqh_protein_autoprepared_prepared

>  <s_lp_Force_Field>  (1) 
S-OPLS

>  <s_lp_Variant>  (1) 
DiffSBDD_17_num_sample_50-1

>  <s_m_source_file>  (1) 
generated__ligand_DiffSBDD_2026-05-06_prepared.sdf

>  <GenAI_Model>  (1) 
DiffSBDD

>  <Protein>  (1) 
GPCR_5HT2C

$$$$
DiffSBDD_6_num_sample_50
     RDKit          3D

  0  0  0  0  0  0  0  0  0  0999 V3000
M  V30 BEGIN CTAB
M  V30 COUNTS 65 68 0 0 1
M  V30 BEGIN ATOM
M  V30 1 N 39.954571 31.400800 63.068745 0
M  V30 2 N 39.156085 28.793166 59.697871 0
M  V30 3 C 38.803726 28.622636 58.476585 0
M  V30 4 C 42.104355 29.584916 65.632857 0
M  V30 5 C 39.823619 35.740388 61.311131 0
M  V30 6 N 38.475688 31.966274 58.411543 0
M  V30 7 N 38.158175 29.611873 57.843739 0
M  V30 8 N 36.654209 33.158010 59.453387 0
M  V30 9 C 40.390735 29.148616 62.246125 0
M  V30 10 C 38.425161 36.760444 63.529704 0
M  V30 11 N 38.990719 30.824437 60.885950 0 CHG=1
M  V30 12 O 37.870028 36.030853 59.921818 0
M  V30 13 C 39.077790 32.279167 56.221326 0
M  V30 14 C 39.479010 30.222364 52.902889 0
M  V30 15 F 37.751685 37.221280 64.604911 0
M  V30 16 C 37.849443 30.691019 58.702046 0 CFG=1
M  V30 17 C 38.474219 36.137572 61.163803 0
M  V30 18 C 40.808394 32.214621 65.196646 0
M  V30 19 C 39.752942 30.741189 54.316021 0
M  V30 20 F 40.499162 35.240842 60.253417 0
M  V30 21 C 40.468176 35.863017 62.554436 0
M  V30 22 C 38.516036 32.263927 60.860460 0
M  V30 23 C 40.680798 31.106406 64.168369 0
M  V30 24 C 39.771362 36.374037 63.661068 0
M  V30 25 C 41.145194 28.863927 63.398300 0
M  V30 26 C 38.634708 31.632466 54.898766 0
M  V30 27 C 38.092075 32.888220 59.482922 0 CFG=1
M  V30 28 C 41.295161 29.857314 64.376064 0
M  V30 29 O 37.996613 32.444994 57.140655 0
M  V30 30 F 36.483583 37.042665 62.169762 0
M  V30 31 C 36.199529 34.248757 60.316298 0
M  V30 32 C 37.773280 36.652295 62.284908 0
M  V30 33 C 38.689543 30.079893 59.829044 0
M  V30 34 C 36.519693 35.641812 59.742911 0
M  V30 35 C 39.801258 30.448852 62.111424 0
M  V30 36 H 38.994271 27.713589 57.902695 0
M  V30 37 H 37.772791 29.589535 56.910119 0
M  V30 38 H 42.484522 28.562453 65.647055 0
M  V30 39 H 41.489148 29.723931 66.522387 0
M  V30 40 H 42.960196 30.258678 65.690861 0
M  V30 41 H 36.356624 33.293898 58.489690 0
M  V30 42 H 40.285088 28.387939 61.515067 0
M  V30 43 H 39.547518 33.241606 56.032119 0
M  V30 44 H 39.866954 31.651733 56.637796 0
M  V30 45 H 40.267356 29.545893 52.577867 0
M  V30 46 H 39.467423 31.046329 52.189818 0
M  V30 47 H 38.538195 29.673374 52.850199 0
M  V30 48 H 40.333398 31.917734 66.131692 0
M  V30 49 H 40.331882 33.132339 64.850102 0
M  V30 50 H 41.856762 32.438033 65.393593 0
M  V30 51 H 39.911837 29.890705 54.979908 0
M  V30 52 H 40.696074 31.286356 54.299575 0
M  V30 53 H 41.500254 35.561114 62.659009 0
M  V30 54 H 39.357500 32.862745 61.209396 0
M  V30 55 H 37.734544 32.344069 61.616185 0
M  V30 56 H 40.267128 36.461569 64.617225 0
M  V30 57 H 41.603211 27.894048 63.526165 0
M  V30 58 H 38.345123 32.410670 54.191378 0
M  V30 59 H 37.742461 31.026584 55.061696 0
M  V30 60 H 38.635393 33.814116 59.304157 0
M  V30 61 H 35.114730 34.152837 60.368628 0
M  V30 62 H 36.556257 34.144407 61.340187 0
M  V30 63 H 35.866294 36.415797 60.120954 0
M  V30 64 H 36.327780 35.635475 58.670489 0
M  V30 65 H 36.784975 30.714144 58.941200 0
M  V30 END ATOM
M  V30 BEGIN BOND
M  V30 1 2 3 2
M  V30 2 1 7 3
M  V30 3 1 15 10
M  V30 4 1 16 6
M  V30 5 1 16 7
M  V30 6 2 17 5
M  V30 7 1 17 12
M  V30 8 1 19 14
M  V30 9 1 20 5
M  V30 10 1 21 5
M  V30 11 1 22 11
M  V30 12 1 23 1
M  V30 13 1 23 18
M  V30 14 1 24 10
M  V30 15 2 24 21
M  V30 16 2 25 9
M  V30 17 1 26 13
M  V30 18 1 26 19
M  V30 19 1 27 6
M  V30 20 1 27 8
M  V30 21 1 27 22
M  V30 22 1 28 4
M  V30 23 2 28 23
M  V30 24 1 28 25
M  V30 25 1 29 6
M  V30 26 1 29 13
M  V30 27 1 31 8
M  V30 28 2 32 10
M  V30 29 1 32 17
M  V30 30 1 32 30
M  V30 31 1 33 2
M  V30 32 2 33 11
M  V30 33 1 33 16
M  V30 34 1 34 12
M  V30 35 1 34 31
M  V30 36 2 35 1
M  V30 37 1 35 9
M  V30 38 1 35 11
M  V30 39 1 36 3
M  V30 40 1 37 7
M  V30 41 1 38 4
M  V30 42 1 39 4
M  V30 43 1 40 4
M  V30 44 1 41 8
M  V30 45 1 42 9
M  V30 46 1 43 13
M  V30 47 1 44 13
M  V30 48 1 45 14
M  V30 49 1 46 14
M  V30 50 1 47 14
M  V30 51 1 48 18
M  V30 52 1 49 18
M  V30 53 1 50 18
M  V30 54 1 51 19
M  V30 55 1 52 19
M  V30 56 1 53 21
M  V30 57 1 54 22
M  V30 58 1 55 22
M  V30 59 1 56 24
M  V30 60 1 57 25
M  V30 61 1 58 26
M  V30 62 1 59 26
M  V30 63 1 27 60 CFG=3
M  V30 64 1 61 31
M  V30 65 1 62 31
M  V30 66 1 63 34
M  V30 67 1 64 34
M  V30 68 1 16 65 CFG=1
M  V30 END BOND
M  V30 END CTAB
M  END
>  <i_epik_Tot_Q>  (1) 
1

>  <i_epik_Tot_abs_Q>  (1) 
1

>  <i_i_glide_confnum>  (1) 
45

>  <i_i_glide_lignum>  (1) 
21

>  <i_i_glide_posenum>  (1) 
284

>  <i_i_glide_rotatable_bonds>  (1) 
10

>  <i_lp_mmshare_version>  (1) 
72125

>  <i_m_source_file_index>  (1) 
7

>  <i_f3d_flags>  (1) 
0

>  <num_sample>  (1) 
50

>  <b_lp_Chiralities_Consistent>  (1) 
1

>  <r_epik_Charging_Adjusted_Penalty>  (1) 
0.81638474559902796

>  <r_epik_Ionization_Penalty>  (1) 
6.3086919552564762

>  <r_epik_Ionization_Penalty_Charging>  (1) 
0

>  <r_epik_Ionization_Penalty_Neutral>  (1) 
6.3086919552564762

>  <r_epik_State_Penalty>  (1) 
0.81638474559902796

>  <r_glide_ring_energy>  (1) 
0

>  <r_i_docking_score>  (1) 
-5.5525690960465797

>  <r_i_glide_ecoul>  (1) 
-2.5248474164199326

>  <r_i_glide_eff_state_penalty>  (1) 
0.81638474559902796

>  <r_i_glide_einternal>  (1) 
22.123540700913708

>  <r_i_glide_emodel>  (1) 
-52.034371112979315

>  <r_i_glide_emodel_strain>  (1) 
1.8502447560750568

>  <r_i_glide_energy>  (1) 
-46.493422468025528

>  <r_i_glide_erotb>  (1) 
0.67408029721787976

>  <r_i_glide_esite>  (1) 
-0.265173251438236

>  <r_i_glide_evdw>  (1) 
-43.968575051605598

>  <r_i_glide_gscore>  (1) 
-6.3689538416456077

>  <r_i_glide_gscore_strain>  (1) 
0

>  <r_i_glide_hbond>  (1) 
-0.022124677976337312

>  <r_i_glide_ligand_efficiency>  (1) 
-0.15864483131561657

>  <r_i_glide_ligand_efficiency_ln>  (1) 
-1.2189121492137125

>  <r_i_glide_ligand_efficiency_sa>  (1) 
-0.51893776300206518

>  <r_i_glide_lipo>  (1) 
-2.5776240762894869

>  <r_i_glide_metal>  (1) 
-0

>  <r_i_glide_rewards>  (1) 
-1.6009562681161562

>  <r_lp_Energy>  (1) 
46.442794999999997

>  <r_lp_tautomer_probability>  (1) 
0.23620936778007409

>  <s_epik_Chemistry_Notes>  (1) 
This compound has an imine and may undergo hydrolysis. This compound contains an acetal/aminal-like group ( X-CH(R)-Y where X, Y are N, S, or O) that may be acid/base labile, releasing an aldehyde. This compound has a N-S or N-O group and may undergo hydrolysis at high or low pH.

>  <s_epik_cmdline>  (1) 
J2VwaWtfcHl0aG9uJywgJy1waHQnLCAnMS4wJywgJy1waCcsICc3LjQnLCAnLXRuJywgJzgnLCAnLW1hJywgJzUwMCcsICctaW1hZScsICc8aW5maWxlLm1hZT4nLCAnLW9tYWUnLCAnPG91dGZpbGUubWFlPic=

>  <s_epik_input>  (1) 
W0NIM11jMVtjSF1bY0hdYyhuYzFbQ0gzXSlOKEMoQzIzKT1OW0NIMl1OPTMpW0NIMl1bQ0BASF0oTjJPW0NIMl1bQ0gyXVtDSDJdW0NIM10pW05IXVtDSDJdW0NIMl1PYyhjNEYpYyhGKWMoRilbY0hdW2NIXTQ=

>  <s_glide_docking_method>  (1) 
confgen

>  <s_i_glide_gridfile>  (1) 
gpcr_5ht2c_6bqh_protein_autoprepared_prepared

>  <s_lp_Force_Field>  (1) 
S-OPLS

>  <s_lp_Variant>  (1) 
DiffSBDD_6_num_sample_50-2

>  <s_m_source_file>  (1) 
generated__ligand_DiffSBDD_2026-05-06_prepared.sdf

>  <GenAI_Model>  (1) 
DiffSBDD

>  <Protein>  (1) 
GPCR_5HT2C

$$$$
DiffSBDD_30_num_sample_50
     RDKit          3D

  0  0  0  0  0  0  0  0  0  0999 V3000
M  V30 BEGIN CTAB
M  V30 COUNTS 68 67 0 0 1
M  V30 BEGIN ATOM
M  V30 1 C 39.681587 29.991776 53.979075 0
M  V30 2 C 37.257746 33.166517 60.047874 0 CFG=2
M  V30 3 C 35.859215 33.688895 59.655829 0
M  V30 4 O 37.425362 37.221439 59.071289 0
M  V30 5 C 38.224215 38.587825 60.883565 0
M  V30 6 C 39.511772 33.649028 61.181885 0
M  V30 7 C 37.400051 27.275908 53.919166 0
M  V30 8 C 39.456333 27.221444 51.137967 0
M  V30 9 C 38.402993 33.246650 57.735021 0
M  V30 10 C 38.212791 34.277857 60.613957 0 CFG=2
M  V30 11 C 39.049900 28.961945 52.999411 0 CFG=1
M  V30 12 C 37.549671 35.191303 61.686071 0
M  V30 13 C 39.867280 28.597000 51.699876 0 CFG=2
M  V30 14 C 39.113625 31.534986 55.997941 0
M  V30 15 C 40.650418 34.649189 61.453276 0
M  V30 16 C 37.844277 32.353093 58.855292 0
M  V30 17 C 37.467400 37.401493 60.284805 0
M  V30 18 C 36.759210 36.449800 61.252105 0 CFG=2
M  V30 19 C 38.622157 30.863113 54.693121 0
M  V30 20 C 39.717481 29.631704 50.569516 0
M  V30 21 O 38.268028 33.666460 55.453501 0 CHG=-1
M  V30 22 C 40.424723 30.967379 50.783949 0
M  V30 23 N 38.181419 32.675640 56.355180 0 CFG=2 CHG=1
M  V30 24 C 36.267398 37.193134 62.514941 0
M  V30 25 C 38.656366 27.734672 53.812826 0
M  V30 26 H 40.267390 29.468944 54.735190 0
M  V30 27 H 40.395953 30.640857 53.478535 0
M  V30 28 H 37.085715 32.450644 60.852784 0
M  V30 29 H 35.917106 34.516414 58.947867 0
M  V30 30 H 35.260211 32.906593 59.188107 0
M  V30 31 H 35.292747 34.021556 60.524512 0
M  V30 32 H 39.012995 38.241425 61.551373 0
M  V30 33 H 38.667242 39.195308 60.094744 0
M  V30 34 H 37.545071 39.236173 61.435169 0
M  V30 35 H 39.287192 33.092540 62.092794 0
M  V30 36 H 39.908443 32.920337 60.477791 0
M  V30 37 H 36.582239 27.769970 53.416410 0
M  V30 38 H 37.176087 26.400036 54.509968 0
M  V30 39 H 38.399530 27.194433 50.872566 0
M  V30 40 H 40.032534 26.971145 50.253271 0
M  V30 41 H 39.643122 26.416881 51.845736 0
M  V30 42 H 39.466324 33.452359 57.853173 0
M  V30 43 H 37.867424 34.196812 57.715981 0
M  V30 44 H 38.523985 34.915609 59.797856 0
M  V30 45 H 38.112432 29.388318 52.643350 0
M  V30 46 H 36.847816 34.577255 62.247614 0
M  V30 47 H 38.288879 35.520139 62.413328 0
M  V30 48 H 40.941004 28.525286 51.853515 0
M  V30 49 H 39.120851 30.833281 56.832147 0
M  V30 50 H 40.105074 31.973993 55.882022 0
M  V30 51 H 41.571266 34.117984 61.693947 0
M  V30 52 H 40.848763 35.270014 60.580005 0
M  V30 53 H 40.440721 35.312863 62.290635 0
M  V30 54 H 37.067396 31.703105 58.451448 0
M  V30 55 H 38.621278 31.669260 59.195054 0
M  V30 56 H 35.912366 36.115441 60.653551 0
M  V30 57 H 38.279317 31.615120 53.980853 0
M  V30 58 H 37.741623 30.266708 54.936082 0
M  V30 59 H 40.102589 29.211319 49.639541 0
M  V30 60 H 38.667402 29.814861 50.398356 0
M  V30 61 H 40.400386 31.556108 49.866824 0
M  V30 62 H 39.940738 31.566115 51.554500 0
M  V30 63 H 41.469713 30.821833 51.052706 0
M  V30 64 H 35.666933 38.067801 62.260994 0
M  V30 65 H 35.647400 36.542740 63.132611 0
M  V30 66 H 37.094221 37.522140 63.144921 0
M  V30 67 H 39.455209 27.219089 54.325706 0
M  V30 68 H 37.213359 32.275218 56.382472 0
M  V30 END ATOM
M  V30 BEGIN BOND
M  V30 1 1 3 2
M  V30 2 1 10 2
M  V30 3 1 10 6
M  V30 4 1 11 1
M  V30 5 1 12 10
M  V30 6 1 13 8
M  V30 7 1 13 11
M  V30 8 1 15 6
M  V30 9 1 16 2
M  V30 10 1 16 9
M  V30 11 2 17 4
M  V30 12 1 17 5
M  V30 13 1 18 12
M  V30 14 1 18 17
M  V30 15 1 19 1
M  V30 16 1 19 14
M  V30 17 1 20 13
M  V30 18 1 22 20
M  V30 19 1 23 9
M  V30 20 1 23 14
M  V30 21 1 23 21
M  V30 22 1 24 18
M  V30 23 2 25 7
M  V30 24 1 25 11
M  V30 25 1 26 1
M  V30 26 1 27 1
M  V30 27 1 2 28 CFG=1
M  V30 28 1 29 3
M  V30 29 1 30 3
M  V30 30 1 31 3
M  V30 31 1 32 5
M  V30 32 1 33 5
M  V30 33 1 34 5
M  V30 34 1 35 6
M  V30 35 1 36 6
M  V30 36 1 37 7
M  V30 37 1 38 7
M  V30 38 1 39 8
M  V30 39 1 40 8
M  V30 40 1 41 8
M  V30 41 1 42 9
M  V30 42 1 43 9
M  V30 43 1 10 44 CFG=3
M  V30 44 1 11 45 CFG=3
M  V30 45 1 46 12
M  V30 46 1 47 12
M  V30 47 1 13 48 CFG=1
M  V30 48 1 49 14
M  V30 49 1 50 14
M  V30 50 1 51 15
M  V30 51 1 52 15
M  V30 52 1 53 15
M  V30 53 1 54 16
M  V30 54 1 55 16
M  V30 55 1 18 56 CFG=3
M  V30 56 1 57 19
M  V30 57 1 58 19
M  V30 58 1 59 20
M  V30 59 1 60 20
M  V30 60 1 61 22
M  V30 61 1 62 22
M  V30 62 1 63 22
M  V30 63 1 64 24
M  V30 64 1 65 24
M  V30 65 1 66 24
M  V30 66 1 67 25
M  V30 67 1 23 68 CFG=1
M  V30 END BOND
M  V30 END CTAB
M  END
>  <i_epik_Tot_Q>  (1) 
0

>  <i_epik_Tot_abs_Q>  (1) 
2

>  <i_i_glide_confnum>  (1) 
1306

>  <i_i_glide_lignum>  (1) 
81

>  <i_i_glide_posenum>  (1) 
219

>  <i_i_glide_rotatable_bonds>  (1) 
15

>  <i_lp_mmshare_version>  (1) 
72125

>  <i_m_source_file_index>  (1) 
31

>  <i_f3d_flags>  (1) 
0

>  <num_sample>  (1) 
50

>  <b_lp_Chiralities_Consistent>  (1) 
1

>  <r_epik_Charging_Adjusted_Penalty>  (1) 
0.52251968911758562

>  <r_epik_Ionization_Penalty>  (1) 
0.019979657236955634

>  <r_epik_Ionization_Penalty_Charging>  (1) 
0.019979657236557934

>  <r_epik_Ionization_Penalty_Neutral>  (1) 
3.9770064437045143e-13

>  <r_epik_State_Penalty>  (1) 
0.50254003188102769

>  <r_glide_ring_energy>  (1) 
0

>  <r_i_docking_score>  (1) 
-5.5495401752715292

>  <r_i_glide_ecoul>  (1) 
-2.339117624179273

>  <r_i_glide_eff_state_penalty>  (1) 
0.50254003188102769

>  <r_i_glide_einternal>  (1) 
12.02446633182735

>  <r_i_glide_emodel>  (1) 
-45.35248591268963

>  <r_i_glide_emodel_strain>  (1) 
1.0209021729326544

>  <r_i_glide_energy>  (1) 
-36.594870145705691

>  <r_i_glide_erotb>  (1) 
1.833058027080513

>  <r_i_glide_esite>  (1) 
-0.083071386135587053

>  <r_i_glide_evdw>  (1) 
-34.255752521526418

>  <r_i_glide_gscore>  (1) 
-6.0520802071525566

>  <r_i_glide_gscore_strain>  (1) 
0

>  <r_i_glide_hbond>  (1) 
-0.17978168999327207

>  <r_i_glide_ligand_efficiency>  (1) 
-0.22198160701086117

>  <r_i_glide_ligand_efficiency_ln>  (1) 
-1.3154073278383107

>  <r_i_glide_ligand_efficiency_sa>  (1) 
-0.6490781564567556

>  <r_i_glide_lipo>  (1) 
-3.5525873602529705

>  <r_i_glide_metal>  (1) 
-0

>  <r_i_glide_rewards>  (1) 
-2.0060425281480283

>  <r_lp_Energy>  (1) 
18.093928999999999

>  <s_epik_cmdline>  (1) 
J2VwaWtfcHl0aG9uJywgJy1waHQnLCAnMS4wJywgJy1waCcsICc3LjQnLCAnLXRuJywgJzgnLCAnLW1hJywgJzUwMCcsICctaW1hZScsICc8aW5maWxlLm1hZT4nLCAnLW9tYWUnLCAnPG91dGZpbGUubWFlPic=

>  <s_epik_input>  (1) 
W0NIM11bQ0gyXVtDQEhdKFtDSDNdKVtDQEBIXShbQ0hdPVtDSDJdKVtDSDJdW0NIMl1bQ0gyXU4oW09IXSlbQ0gyXVtDSDJdW0NASF0oW0NIM10pW0NASF0oW0NIMl1bQ0gzXSlbQ0gyXVtDQEhdKFtDSDNdKUMoPU8pW0NIM10=

>  <s_glide_docking_method>  (1) 
confgen

>  <s_i_glide_gridfile>  (1) 
gpcr_5ht2c_6bqh_protein_autoprepared_prepared

>  <s_lp_Force_Field>  (1) 
S-OPLS

>  <s_lp_Variant>  (1) 
DiffSBDD_30_num_sample_50-5

>  <s_m_source_file>  (1) 
generated__ligand_DiffSBDD_2026-05-06_prepared.sdf

>  <GenAI_Model>  (1) 
DiffSBDD

>  <Protein>  (1) 
GPCR_5HT2C

$$$$
DiffSBDD_23_num_sample_50
     RDKit          3D

  0  0  0  0  0  0  0  0  0  0999 V3000
M  V30 BEGIN CTAB
M  V30 COUNTS 60 64 0 0 1
M  V30 BEGIN ATOM
M  V30 1 C 38.531264 27.025960 55.709623 0
M  V30 2 C 42.055718 34.316658 65.079945 0 CFG=1
M  V30 3 C 38.634145 31.782691 56.883126 0
M  V30 4 C 38.635635 32.656568 60.951492 0 CFG=1
M  V30 5 S 41.467460 30.699599 63.149292 0
M  V30 6 C 38.978258 30.445925 57.131756 0
M  V30 7 C 39.341269 28.070301 56.424103 0
M  V30 8 N 43.178244 30.239544 65.035707 0
M  V30 9 C 41.841631 31.976556 64.291518 0
M  V30 10 C 43.304856 32.392945 66.337958 0
M  V30 11 S 39.335056 35.305036 61.452554 0
M  V30 12 O 40.168445 35.166114 60.253940 0
M  V30 13 C 38.257829 31.268108 54.542431 0
M  V30 14 C 41.209717 33.324313 64.223148 0 CFG=2
M  V30 15 N 38.208702 33.976498 61.453495 0
M  V30 16 C 38.275735 32.191803 55.597655 0
M  V30 17 C 38.965440 29.495046 56.088767 0
M  V30 18 C 36.174048 33.832294 60.045250 0
M  V30 19 C 39.235751 26.850767 54.394820 0
M  V30 20 O 40.060880 25.954493 54.253573 0
M  V30 21 Cl 38.267384 31.499120 62.253490 0
M  V30 22 C 38.550367 28.988902 53.528803 0
M  V30 23 S 38.667375 32.960399 58.192990 0
M  V30 24 N 40.141398 34.926530 62.803317 0 CHG=-1
M  V30 25 O 38.554699 36.540247 61.619272 0
M  V30 26 N 38.860799 27.746343 53.431425 0
M  V30 27 C 36.752831 34.221116 61.408822 0
M  V30 28 C 42.760753 31.562831 65.224022 0
M  V30 29 C 42.586795 29.667995 63.994013 0
M  V30 30 O 36.490440 32.473574 59.777994 0
M  V30 31 C 38.597948 29.907718 54.751072 0
M  V30 32 N 41.043546 33.818860 62.860057 0
M  V30 33 N 41.317546 35.582350 65.242749 0 CHG=1
M  V30 34 C 37.889625 32.238653 59.666030 0 CFG=2
M  V30 35 C 42.481119 33.704428 66.452734 0
M  V30 36 H 37.476707 27.287212 55.608444 0
M  V30 37 H 38.577595 26.079628 56.250260 0
M  V30 38 H 42.967101 34.550733 64.527775 0
M  V30 39 H 39.715461 32.630212 60.805844 0
M  V30 40 H 39.258953 30.141302 58.127825 0
M  V30 41 H 39.177682 27.924809 57.492823 0
M  V30 42 H 40.419058 27.945899 56.290350 0
M  V30 43 H 43.287423 31.847873 67.282319 0
M  V30 44 H 44.348861 32.634126 66.135699 0
M  V30 45 H 37.981918 31.604134 53.555566 0
M  V30 46 H 40.223114 33.219321 64.668917 0
M  V30 47 H 38.011582 33.223487 55.414401 0
M  V30 48 H 36.544427 34.490243 59.258057 0
M  V30 49 H 35.089317 33.941636 60.057522 0
M  V30 50 H 38.211180 29.489839 52.619788 0
M  V30 51 H 36.516758 35.256785 61.644004 0
M  V30 52 H 36.272361 33.621464 62.181280 0
M  V30 53 H 42.811975 28.646091 63.724249 0
M  V30 54 H 41.935330 34.114673 62.488442 0
M  V30 55 H 40.620559 35.512435 65.966449 0
M  V30 56 H 41.923747 36.379226 65.382522 0
M  V30 57 H 37.996615 31.160437 59.573974 0
M  V30 58 H 41.572299 33.484105 67.014992 0
M  V30 59 H 43.036926 34.421443 67.053519 0
M  V30 60 H 40.833112 35.673799 64.339810 0
M  V30 END ATOM
M  V30 BEGIN BOND
M  V30 1 2 6 3
M  V30 2 1 7 1
M  V30 3 1 9 5
M  V30 4 2 12 11
M  V30 5 1 14 2
M  V30 6 1 14 9
M  V30 7 1 15 4
M  V30 8 1 15 11
M  V30 9 1 16 3
M  V30 10 2 16 13
M  V30 11 1 17 6
M  V30 12 1 17 7
M  V30 13 1 19 1
M  V30 14 2 20 19
M  V30 15 1 21 4
M  V30 16 1 23 3
M  V30 17 1 24 11
M  V30 18 2 25 11
M  V30 19 1 26 19
M  V30 20 2 26 22
M  V30 21 1 27 15
M  V30 22 1 27 18
M  V30 23 1 28 8
M  V30 24 2 28 9
M  V30 25 1 28 10
M  V30 26 1 29 5
M  V30 27 2 29 8
M  V30 28 1 30 18
M  V30 29 1 31 13
M  V30 30 2 31 17
M  V30 31 1 31 22
M  V30 32 1 32 14
M  V30 33 1 32 24
M  V30 34 1 33 2
M  V30 35 1 34 4
M  V30 36 1 34 23
M  V30 37 1 34 30
M  V30 38 1 35 2
M  V30 39 1 35 10
M  V30 40 1 36 1
M  V30 41 1 37 1
M  V30 42 1 2 38 CFG=3
M  V30 43 1 4 39 CFG=3
M  V30 44 1 40 6
M  V30 45 1 41 7
M  V30 46 1 42 7
M  V30 47 1 43 10
M  V30 48 1 44 10
M  V30 49 1 45 13
M  V30 50 1 14 46 CFG=1
M  V30 51 1 47 16
M  V30 52 1 48 18
M  V30 53 1 49 18
M  V30 54 1 50 22
M  V30 55 1 51 27
M  V30 56 1 52 27
M  V30 57 1 53 29
M  V30 58 1 54 32
M  V30 59 1 55 33
M  V30 60 1 56 33
M  V30 61 1 34 57 CFG=3
M  V30 62 1 58 35
M  V30 63 1 59 35
M  V30 64 1 60 33
M  V30 END BOND
M  V30 END CTAB
M  END
>  <i_epik_Tot_Q>  (1) 
0

>  <i_epik_Tot_abs_Q>  (1) 
2

>  <i_i_glide_confnum>  (1) 
65

>  <i_i_glide_lignum>  (1) 
64

>  <i_i_glide_posenum>  (1) 
152

>  <i_i_glide_rotatable_bonds>  (1) 
6

>  <i_lp_mmshare_version>  (1) 
72125

>  <i_m_source_file_index>  (1) 
24

>  <i_f3d_flags>  (1) 
0

>  <num_sample>  (1) 
50

>  <b_lp_Chiralities_Consistent>  (1) 
1

>  <r_epik_Charging_Adjusted_Penalty>  (1) 
2.2272092532468064

>  <r_epik_Ionization_Penalty>  (1) 
1.0462412004884125

>  <r_epik_Ionization_Penalty_Charging>  (1) 
1.0439143913358477

>  <r_epik_Ionization_Penalty_Neutral>  (1) 
0.002326809152564684

>  <r_epik_State_Penalty>  (1) 
1.1832948619109587

>  <r_glide_ring_energy>  (1) 
0.36391509760430862

>  <r_i_docking_score>  (1) 
-5.5493947761766895

>  <r_i_glide_ecoul>  (1) 
-2.6241585344342497

>  <r_i_glide_eff_state_penalty>  (1) 
1.1832948619109587

>  <r_i_glide_einternal>  (1) 
4.6033725542014192

>  <r_i_glide_emodel>  (1) 
-75.442648231892051

>  <r_i_glide_emodel_strain>  (1) 
1.0344724302943433

>  <r_i_glide_energy>  (1) 
-56.225360445403247

>  <r_i_glide_erotb>  (1) 
0.32509228849270932

>  <r_i_glide_esite>  (1) 
-0.020115460194734772

>  <r_i_glide_evdw>  (1) 
-53.601201910968996

>  <r_i_glide_gscore>  (1) 
-6.7326896380876482

>  <r_i_glide_gscore_strain>  (1) 
0

>  <r_i_glide_hbond>  (1) 
0

>  <r_i_glide_ligand_efficiency>  (1) 
-0.15855413646219113

>  <r_i_glide_ligand_efficiency_ln>  (1) 
-1.2182153155520379

>  <r_i_glide_ligand_efficiency_sa>  (1) 
-0.5186410941225178

>  <r_i_glide_lipo>  (1) 
-2.1512336208046201

>  <r_i_glide_metal>  (1) 
-0

>  <r_i_glide_rewards>  (1) 
-1.8127489698674146

>  <r_lp_Energy>  (1) 
43.619828999999996

>  <s_epik_Chemistry_Notes>  (1) 
This compound has an imine and may undergo hydrolysis. This compound contains an acetal/aminal-like group ( X-CH(R)-Y where X, Y are N, S, or O) that may be acid/base labile, releasing an aldehyde.

>  <s_epik_cmdline>  (1) 
J2VwaWtfcHl0aG9uJywgJy1waHQnLCAnMS4wJywgJy1waCcsICc3LjQnLCAnLXRuJywgJzgnLCAnLW1hJywgJzUwMCcsICctaW1hZScsICc8aW5maWxlLm1hZT4nLCAnLW9tYWUnLCAnPG91dGZpbGUubWFlPic=

>  <s_epik_input>  (1) 
W0NIMl0xW0NIMl1DKD1PKU49W0NIXWMoYzEyKVtjSF1bY0hdYyhbY0hdMilTW0NAQEhdM09bQ0gyXVtDSDJdTihbQ0BIXTNDbClTKD1PKSg9TylbTkhdW05IXVtDQEBIXTRbQ0BASF0oW05IMl0pW0NIMl1bQ0gyXWMoYzQ1KW5bY0hdczU=

>  <s_glide_docking_method>  (1) 
confgen

>  <s_i_glide_gridfile>  (1) 
gpcr_5ht2c_6bqh_protein_autoprepared_prepared

>  <s_lp_Force_Field>  (1) 
S-OPLS

>  <s_lp_Variant>  (1) 
DiffSBDD_23_num_sample_50-3

>  <s_m_source_file>  (1) 
generated__ligand_DiffSBDD_2026-05-06_prepared.sdf

>  <GenAI_Model>  (1) 
DiffSBDD

>  <Protein>  (1) 
GPCR_5HT2C

$$$$
DiffSBDD_9_num_sample_50
     RDKit          3D

  0  0  0  0  0  0  0  0  0  0999 V3000
M  V30 BEGIN CTAB
M  V30 COUNTS 72 73 0 0 1
M  V30 BEGIN ATOM
M  V30 1 C 38.463351 30.089224 59.936392 0
M  V30 2 C 39.525294 28.206661 55.904514 0
M  V30 3 C 41.948651 28.351313 64.576055 0
M  V30 4 O 40.546958 25.219148 65.436748 0
M  V30 5 C 37.850868 29.891340 58.554736 0
M  V30 6 C 40.242927 30.133826 65.219580 0
M  V30 7 C 41.407608 26.069876 65.214693 0
M  V30 8 C 37.328457 25.083657 56.906366 0
M  V30 9 C 42.658361 33.002267 65.240419 0
M  V30 10 C 42.905713 25.693515 65.367145 0
M  V30 11 O 38.232775 31.274385 62.066737 0
M  V30 12 C 41.956243 34.055456 66.111960 0
M  V30 13 C 39.134506 29.593936 55.322190 0 CFG=1
M  V30 14 C 40.905090 31.156645 66.078942 0 CFG=1
M  V30 15 C 42.218757 30.882668 66.789812 0
M  V30 16 F 43.414769 26.260279 66.463728 0
M  V30 17 C 38.451137 27.100676 55.799509 0 CFG=2
M  V30 18 C 39.855690 25.335836 57.035563 0
M  V30 19 O 43.172767 28.235910 64.628521 0
M  V30 20 C 37.586592 30.967172 60.841981 0
M  V30 21 C 41.321635 29.712370 64.193357 0 CFG=1
M  V30 22 N 38.480046 30.487902 57.531255 0
M  V30 23 F 43.024089 24.372650 65.501104 0
M  V30 24 O 36.842122 29.204560 58.416033 0
M  V30 25 P 39.737749 32.086474 62.126744 0
M  V30 26 C 38.745178 29.546095 53.837230 0
M  V30 27 N 41.068681 27.341387 64.836870 0
M  V30 28 O 39.867575 32.718750 63.451283 0 CHG=-1
M  V30 29 C 38.507870 26.072195 56.954581 0
M  V30 30 O 40.882881 30.828841 61.970059 0
M  V30 31 O 42.351517 30.715463 64.301869 0
M  V30 32 C 42.188435 31.569274 65.443008 0 CFG=2
M  V30 33 C 38.055499 30.341642 56.142454 0
M  V30 34 O 38.588395 26.434544 54.557072 0
M  V30 35 O 39.852347 32.923422 60.912888 0
M  V30 36 C 40.830215 29.624702 62.720920 0
M  V30 37 H 38.617844 29.113806 60.397141 0
M  V30 38 H 39.454262 30.521735 59.809203 0
M  V30 39 H 39.800232 28.342402 56.949345 0
M  V30 40 H 40.451678 27.856479 55.453865 0
M  V30 41 H 39.385718 30.576147 64.721315 0
M  V30 42 H 39.860158 29.335310 65.854643 0
M  V30 43 H 37.393832 24.415384 56.047591 0
M  V30 44 H 37.309028 24.460853 57.800998 0
M  V30 45 H 36.370449 25.606439 56.852589 0
M  V30 46 H 43.724075 33.028734 65.456157 0
M  V30 47 H 42.528856 33.266972 64.190787 0
M  V30 48 H 43.508371 25.922980 64.489497 0
M  V30 49 H 42.375035 35.044967 65.929328 0
M  V30 50 H 40.891835 34.110931 65.882514 0
M  V30 51 H 42.064444 33.841377 67.174766 0
M  V30 52 H 40.040104 30.201116 55.376206 0
M  V30 53 H 40.267601 31.913494 66.521998 0
M  V30 54 H 42.585521 29.860130 66.844948 0
M  V30 55 H 42.442748 31.492014 67.661125 0
M  V30 56 H 37.467774 27.562818 55.814305 0
M  V30 57 H 40.081625 24.817498 56.103608 0
M  V30 58 H 40.672500 26.032611 57.225883 0
M  V30 59 H 39.865661 24.606120 57.846144 0
M  V30 60 H 37.328913 31.902235 60.341825 0
M  V30 61 H 36.645643 30.458626 61.050513 0
M  V30 62 H 39.297869 31.048345 57.717220 0
M  V30 63 H 37.781011 29.057335 53.693813 0
M  V30 64 H 38.669866 30.555498 53.432893 0
M  V30 65 H 39.481669 29.005423 53.245379 0
M  V30 66 H 40.082031 27.553427 64.751499 0
M  V30 67 H 38.398863 26.628559 57.886216 0
M  V30 68 H 37.906125 31.343904 55.738424 0
M  V30 69 H 37.089979 29.842197 56.050269 0
M  V30 70 H 37.915736 25.774372 54.495814 0
M  V30 71 H 39.816613 29.226126 62.679601 0
M  V30 72 H 41.440523 28.912963 62.161157 0
M  V30 END ATOM
M  V30 BEGIN BOND
M  V30 1 1 5 1
M  V30 2 2 7 4
M  V30 3 1 10 7
M  V30 4 1 12 9
M  V30 5 1 13 2
M  V30 6 1 14 6
M  V30 7 1 15 14
M  V30 8 1 16 10
M  V30 9 1 17 2
M  V30 10 2 19 3
M  V30 11 1 20 1
M  V30 12 1 20 11
M  V30 13 1 21 3
M  V30 14 1 21 6
M  V30 15 1 22 5
M  V30 16 1 23 10
M  V30 17 2 24 5
M  V30 18 1 25 11
M  V30 19 1 26 13
M  V30 20 1 27 3
M  V30 21 1 27 7
M  V30 22 1 28 25
M  V30 23 1 29 8
M  V30 24 1 29 17
M  V30 25 1 29 18
M  V30 26 1 30 25
M  V30 27 1 31 21
M  V30 28 1 32 9 CFG=1
M  V30 29 1 32 14
M  V30 30 1 32 15
M  V30 31 1 32 31
M  V30 32 1 33 13
M  V30 33 1 33 22
M  V30 34 1 34 17
M  V30 35 2 35 25
M  V30 36 1 21 36 CFG=3
M  V30 37 1 36 30
M  V30 38 1 37 1
M  V30 39 1 38 1
M  V30 40 1 39 2
M  V30 41 1 40 2
M  V30 42 1 41 6
M  V30 43 1 42 6
M  V30 44 1 43 8
M  V30 45 1 44 8
M  V30 46 1 45 8
M  V30 47 1 46 9
M  V30 48 1 47 9
M  V30 49 1 48 10
M  V30 50 1 49 12
M  V30 51 1 50 12
M  V30 52 1 51 12
M  V30 53 1 13 52 CFG=3
M  V30 54 1 14 53 CFG=1
M  V30 55 1 54 15
M  V30 56 1 55 15
M  V30 57 1 17 56 CFG=3
M  V30 58 1 57 18
M  V30 59 1 58 18
M  V30 60 1 59 18
M  V30 61 1 60 20
M  V30 62 1 61 20
M  V30 63 1 62 22
M  V30 64 1 63 26
M  V30 65 1 64 26
M  V30 66 1 65 26
M  V30 67 1 66 27
M  V30 68 1 67 29
M  V30 69 1 68 33
M  V30 70 1 69 33
M  V30 71 1 70 34
M  V30 72 1 71 36
M  V30 73 1 72 36
M  V30 END BOND
M  V30 END CTAB
M  END
>  <i_epik_Tot_Q>  (1) 
-1

>  <i_epik_Tot_abs_Q>  (1) 
1

>  <i_i_glide_confnum>  (1) 
2099

>  <i_i_glide_lignum>  (1) 
31

>  <i_i_glide_posenum>  (1) 
270

>  <i_i_glide_rotatable_bonds>  (1) 
19

>  <i_lp_mmshare_version>  (1) 
72125

>  <i_m_source_file_index>  (1) 
10

>  <i_f3d_flags>  (1) 
0

>  <num_sample>  (1) 
50

>  <b_lp_Chiralities_Consistent>  (1) 
1

>  <r_epik_Charging_Adjusted_Penalty>  (1) 
0.00011155638353850814

>  <r_epik_Ionization_Penalty>  (1) 
0.00045402006549120547

>  <r_epik_Ionization_Penalty_Charging>  (1) 
0.00011155638353850814

>  <r_epik_Ionization_Penalty_Neutral>  (1) 
0.00034246368195269732

>  <r_epik_State_Penalty>  (1) 
-0

>  <r_glide_ring_energy>  (1) 
0

>  <r_i_docking_score>  (1) 
-5.5213640669804329

>  <r_i_glide_ecoul>  (1) 
-7.5938301170310263

>  <r_i_glide_eff_state_penalty>  (1) 
-0

>  <r_i_glide_einternal>  (1) 
7.4648324194192295

>  <r_i_glide_emodel>  (1) 
-68.187566713980686

>  <r_i_glide_emodel_strain>  (1) 
0.46760472812568565

>  <r_i_glide_energy>  (1) 
-56.011062085752961

>  <r_i_glide_erotb>  (1) 
1.0579039017731899

>  <r_i_glide_esite>  (1) 
-0.085121253195005478

>  <r_i_glide_evdw>  (1) 
-48.417231968721936

>  <r_i_glide_gscore>  (1) 
-5.5213640669804329

>  <r_i_glide_gscore_strain>  (1) 
0

>  <r_i_glide_hbond>  (1) 
-0.55259497786690048

>  <r_i_glide_ligand_efficiency>  (1) 
-0.1533712240827898

>  <r_i_glide_ligand_efficiency_ln>  (1) 
-1.2046124693967606

>  <r_i_glide_ligand_efficiency_sa>  (1) 
-0.50642062399528753

>  <r_i_glide_lipo>  (1) 
-2.7095763681400484

>  <r_i_glide_metal>  (1) 
-0

>  <r_i_glide_rewards>  (1) 
0.32796074643908324

>  <r_lp_Energy>  (1) 
21.957920999999999

>  <r_lp_tautomer_probability>  (1) 
1

>  <s_epik_cmdline>  (1) 
J2VwaWtfcHl0aG9uJywgJy1waHQnLCAnMS4wJywgJy1waCcsICc3LjQnLCAnLXRuJywgJzgnLCAnLW1hJywgJzUwMCcsICctaW1hZScsICc8aW5maWxlLm1hZT4nLCAnLW9tYWUnLCAnPG91dGZpbGUubWFlPic=

>  <s_epik_input>  (1) 
W0NIM11bQ0hdKFtDSDNdKVtDQEhdKFtPSF0pW0NIMl1bQ0BASF0oW0NIM10pW0NIMl1bTkhdQyg9TylbQ0gyXVtDSDJdT1tQQEBdKD1PKShbT0hdKU9bQ0gyXVtDQF0oTzEpKEMoPU8pW05IXUMoPU8pW0NIXShGKUYpW0NIMl1bQ0BASF0oW0NIMl0yKVtDQF0xMltDSDJdW0NIM10=

>  <s_glide_docking_method>  (1) 
confgen

>  <s_i_glide_gridfile>  (1) 
gpcr_5ht2c_6bqh_protein_autoprepared_prepared

>  <s_lp_Force_Field>  (1) 
S-OPLS

>  <s_lp_Variant>  (1) 
DiffSBDD_9_num_sample_50-1

>  <s_m_source_file>  (1) 
generated__ligand_DiffSBDD_2026-05-06_prepared.sdf

>  <GenAI_Model>  (1) 
DiffSBDD

>  <Protein>  (1) 
GPCR_5HT2C

$$$$
DiffSBDD_12_num_sample_50
     RDKit          3D

  0  0  0  0  0  0  0  0  0  0999 V3000
M  V30 BEGIN CTAB
M  V30 COUNTS 70 72 0 0 1
M  V30 BEGIN ATOM
M  V30 1 C 39.013452 26.301909 58.479051 0
M  V30 2 C 37.195464 31.925869 60.170635 0
M  V30 3 C 37.867403 30.850103 57.132070 0
M  V30 4 O 37.949099 29.282605 55.240166 0
M  V30 5 N 37.725022 30.751242 59.626813 0
M  V30 6 F 42.576867 31.430573 64.244161 0
M  V30 7 N 38.751199 31.750820 57.207640 0
M  V30 8 C 38.640338 25.925994 55.976796 0
M  V30 9 C 36.305253 34.968801 59.395926 0
M  V30 10 C 38.307146 25.517224 57.398523 0
M  V30 11 C 39.751305 27.334958 57.616858 0
M  V30 12 C 39.867447 27.975701 55.188524 0
M  V30 13 C 41.372197 31.421207 63.647760 0
M  V30 14 C 40.120621 29.787189 62.160980 0
M  V30 15 N 36.144953 32.492784 59.453491 0
M  V30 16 N 38.712448 30.031917 60.303619 0
M  V30 17 C 37.283794 30.397313 55.797621 0
M  V30 18 C 37.418574 25.926629 55.042844 0
M  V30 19 N 37.661618 32.442638 61.268037 0
M  V30 20 O 39.224742 29.176063 52.589083 0
M  V30 21 C 39.540536 32.803827 62.654299 0
M  V30 22 C 37.299838 30.149282 58.362788 0
M  V30 23 O 37.165014 35.370743 60.441062 0
M  V30 24 C 39.346588 29.403604 55.006398 0 CFG=1
M  V30 25 C 39.741073 25.037817 55.406949 0
M  V30 26 C 38.839483 31.932784 61.859113 0
M  V30 27 C 40.834604 32.596852 63.312657 0
M  V30 28 C 39.261155 30.547206 61.459204 0
M  V30 29 C 40.706462 30.118566 63.478491 0
M  V30 30 C 39.745722 29.543888 51.322074 0
M  V30 31 C 35.501632 33.739473 59.849546 0
M  V30 32 C 39.612083 30.053139 53.635694 0
M  V30 33 O 37.513286 24.616091 57.654828 0
M  V30 34 N 39.118924 27.297197 56.266607 0 CFG=1 CHG=1
M  V30 35 H 39.700389 25.682211 59.051428 0
M  V30 36 H 38.286938 26.762380 59.145904 0
M  V30 37 H 39.010639 31.958194 58.162698 0
M  V30 38 H 36.211860 30.162100 58.303265 0
M  V30 39 H 36.876409 34.758385 58.488299 0
M  V30 40 H 35.634303 35.796749 59.165525 0
M  V30 41 H 40.800945 27.051417 57.537223 0
M  V30 42 H 39.722402 28.339551 58.037351 0
M  V30 43 H 39.733141 27.442996 54.251079 0
M  V30 44 H 40.923325 27.954705 55.453530 0
M  V30 45 H 40.358376 28.801065 61.788677 0
M  V30 46 H 35.821906 32.107200 58.553307 0
M  V30 47 H 39.007778 29.144619 59.928937 0
M  V30 48 H 36.269058 30.023207 55.946203 0
M  V30 49 H 37.114841 24.908071 54.797689 0
M  V30 50 H 36.571647 26.420257 55.506111 0
M  V30 51 H 37.622158 26.436788 54.099438 0
M  V30 52 H 39.113459 33.791230 62.763428 0
M  V30 53 H 37.234199 31.228111 55.091394 0
M  V30 54 H 37.577587 29.096836 58.330704 0
M  V30 55 H 37.607134 34.593392 60.756195 0
M  V30 56 H 39.863956 29.991714 55.760092 0
M  V30 57 H 39.362763 24.021669 55.382296 0
M  V30 58 H 39.993991 25.307592 54.382310 0
M  V30 59 H 40.656580 25.065468 55.999965 0
M  V30 60 H 41.405362 33.483477 63.557497 0
M  V30 61 H 41.424041 29.335272 63.725116 0
M  V30 62 H 39.919992 30.035891 64.228556 0
M  V30 63 H 39.350380 28.873259 50.560295 0
M  V30 64 H 39.468762 30.564598 51.053540 0
M  V30 65 H 40.831909 29.463308 51.306031 0
M  V30 66 H 34.532060 33.756726 59.350390 0
M  V30 67 H 35.292913 33.764684 60.919582 0
M  V30 68 H 39.081240 30.999745 53.543332 0
M  V30 69 H 40.667406 30.292249 53.553612 0
M  V30 70 H 38.265607 27.840899 56.326710 0
M  V30 END ATOM
M  V30 BEGIN BOND
M  V30 1 1 5 2
M  V30 2 2 7 3
M  V30 3 1 10 1
M  V30 4 1 10 8
M  V30 5 1 11 1
M  V30 6 1 13 6
M  V30 7 1 15 2
M  V30 8 1 16 5
M  V30 9 1 17 3
M  V30 10 1 17 4
M  V30 11 1 18 8
M  V30 12 2 19 2
M  V30 13 1 22 3
M  V30 14 1 22 5
M  V30 15 1 23 9
M  V30 16 1 24 4
M  V30 17 1 24 12
M  V30 18 1 25 8
M  V30 19 1 26 19
M  V30 20 2 26 21
M  V30 21 2 27 13
M  V30 22 1 27 21
M  V30 23 2 28 14
M  V30 24 1 28 16
M  V30 25 1 28 26
M  V30 26 1 29 13
M  V30 27 1 29 14
M  V30 28 1 30 20
M  V30 29 1 31 9
M  V30 30 1 31 15
M  V30 31 1 32 20
M  V30 32 1 32 24
M  V30 33 2 33 10
M  V30 34 1 34 8
M  V30 35 1 34 11
M  V30 36 1 34 12
M  V30 37 1 35 1
M  V30 38 1 36 1
M  V30 39 1 37 7
M  V30 40 1 38 22
M  V30 41 1 39 9
M  V30 42 1 40 9
M  V30 43 1 41 11
M  V30 44 1 42 11
M  V30 45 1 43 12
M  V30 46 1 44 12
M  V30 47 1 45 14
M  V30 48 1 46 15
M  V30 49 1 47 16
M  V30 50 1 48 17
M  V30 51 1 49 18
M  V30 52 1 50 18
M  V30 53 1 51 18
M  V30 54 1 52 21
M  V30 55 1 53 17
M  V30 56 1 54 22
M  V30 57 1 55 23
M  V30 58 1 24 56 CFG=1
M  V30 59 1 57 25
M  V30 60 1 58 25
M  V30 61 1 59 25
M  V30 62 1 60 27
M  V30 63 1 61 29
M  V30 64 1 62 29
M  V30 65 1 63 30
M  V30 66 1 64 30
M  V30 67 1 65 30
M  V30 68 1 66 31
M  V30 69 1 67 31
M  V30 70 1 68 32
M  V30 71 1 69 32
M  V30 72 1 34 70 CFG=1
M  V30 END BOND
M  V30 END CTAB
M  END
>  <i_epik_Tot_Q>  (1) 
1

>  <i_epik_Tot_abs_Q>  (1) 
1

>  <i_i_glide_confnum>  (1) 
1074

>  <i_i_glide_lignum>  (1) 
40

>  <i_i_glide_posenum>  (1) 
283

>  <i_i_glide_rotatable_bonds>  (1) 
13

>  <i_lp_mmshare_version>  (1) 
72125

>  <i_m_source_file_index>  (1) 
13

>  <i_f3d_flags>  (1) 
0

>  <num_sample>  (1) 
50

>  <b_lp_Chiralities_Consistent>  (1) 
1

>  <r_epik_Charging_Adjusted_Penalty>  (1) 
2.2216491605189872

>  <r_epik_Ionization_Penalty>  (1) 
0.91881204336881139

>  <r_epik_Ionization_Penalty_Charging>  (1) 
0.90548466078319156

>  <r_epik_Ionization_Penalty_Neutral>  (1) 
0.013327382585619883

>  <r_epik_State_Penalty>  (1) 
1.3161644997357957

>  <r_glide_ring_energy>  (1) 
0

>  <r_i_docking_score>  (1) 
-5.5196778622105453

>  <r_i_glide_ecoul>  (1) 
-9.3686713205798178

>  <r_i_glide_eff_state_penalty>  (1) 
1.3161644997357957

>  <r_i_glide_einternal>  (1) 
11.230421880147077

>  <r_i_glide_emodel>  (1) 
-65.399104690915124

>  <r_i_glide_emodel_strain>  (1) 
2.8841178115337271

>  <r_i_glide_energy>  (1) 
-53.171414435735741

>  <r_i_glide_erotb>  (1) 
0.96958307808003152

>  <r_i_glide_esite>  (1) 
-0.22641026563669864

>  <r_i_glide_evdw>  (1) 
-43.80274311515592

>  <r_i_glide_gscore>  (1) 
-6.8358423619463409

>  <r_i_glide_gscore_strain>  (1) 
0

>  <r_i_glide_hbond>  (1) 
-0.16

>  <r_i_glide_ligand_efficiency>  (1) 
-0.16234346653560427

>  <r_i_glide_ligand_efficiency_ln>  (1) 
-1.2194516614821833

>  <r_i_glide_ligand_efficiency_sa>  (1) 
-0.52592981004903983

>  <r_i_glide_lipo>  (1) 
-2.8484179798388509

>  <r_i_glide_metal>  (1) 
-0

>  <r_i_glide_rewards>  (1) 
-0.97515934070605392

>  <r_lp_Energy>  (1) 
35.139842000000002

>  <r_lp_tautomer_probability>  (1) 
0.49996700039999997

>  <s_epik_Chemistry_Notes>  (1) 
This compound has an imine and may undergo hydrolysis.

>  <s_epik_cmdline>  (1) 
J2VwaWtfcHl0aG9uJywgJy1waHQnLCAnMS4wJywgJy1waCcsICc3LjQnLCAnLXRuJywgJzgnLCAnLW1hJywgJzUwMCcsICctaW1hZScsICc8aW5maWxlLm1hZT4nLCAnLW9tYWUnLCAnPG91dGZpbGUubWFlPic=

>  <s_epik_input>  (1) 
W0NIM11DMShbQ0gzXSlDKD1PKVtDSDJdW0NIMl1OMVtDSDJdW0NAQEhdKFtDSDJdT1tDSDNdKU8vW0NIXT1DKFxbTkgyXSlbQ0gyXU4oQyg9TjIpW05IXVtDSDJdW0NIMl1bT0hdKVtOSF1DKEMyMyk9W0NIXVtDSDJdQyhGKT1bQ0hdW0NIXT0z

>  <s_glide_docking_method>  (1) 
confgen

>  <s_i_glide_gridfile>  (1) 
gpcr_5ht2c_6bqh_protein_autoprepared_prepared

>  <s_lp_Force_Field>  (1) 
S-OPLS

>  <s_lp_Variant>  (1) 
DiffSBDD_12_num_sample_50-2

>  <s_m_source_file>  (1) 
generated__ligand_DiffSBDD_2026-05-06_prepared.sdf

>  <GenAI_Model>  (1) 
DiffSBDD

>  <Protein>  (1) 
GPCR_5HT2C

$$$$
DiffSBDD_5_num_sample_50
     RDKit          3D

  0  0  0  0  0  0  0  0  0  0999 V3000
M  V30 BEGIN CTAB
M  V30 COUNTS 79 81 0 0 1
M  V30 BEGIN ATOM
M  V30 1 C 38.525978 29.463961 58.133662 0
M  V30 2 C 39.578111 27.355750 57.276253 0 CFG=2
M  V30 3 N 36.842623 37.163286 60.188720 0
M  V30 4 F 39.867349 30.773866 50.166895 0
M  V30 5 C 37.547784 31.199732 60.935815 0
M  V30 6 N 38.499174 29.445978 59.420068 0 CHG=1
M  V30 7 C 36.086001 33.382417 60.434014 0 CFG=1
M  V30 8 C 40.146853 30.190475 52.446358 0 CFG=2
M  V30 9 C 38.062790 25.476996 56.726592 0
M  V30 10 C 37.269159 30.031737 59.971310 0 CFG=2
M  V30 11 N 37.467303 30.021350 57.645181 0
M  V30 12 C 39.184578 24.617361 56.150160 0
M  V30 13 C 38.386931 28.850959 55.106703 0 CFG=2
M  V30 14 C 36.701293 25.037978 56.152505 0
M  V30 15 N 38.267449 30.855145 53.853498 0 CHG=1
M  V30 16 C 36.741446 35.746922 59.815502 0
M  V30 17 C 39.749322 26.765304 58.690429 0
M  V30 18 C 36.509153 30.465372 58.653412 0
M  V30 19 C 39.646685 28.900003 57.304016 0 CFG=1
M  V30 20 C 39.391693 31.360264 53.055913 0
M  V30 21 O 38.713401 36.977721 61.453316 0
M  V30 22 C 40.782507 30.430000 51.068003 0
M  V30 23 C 37.886292 39.186608 61.053246 0
M  V30 24 C 37.845287 37.669643 60.923949 0
M  V30 25 S 39.067390 28.754896 52.462154 0
M  V30 26 C 39.600706 29.449667 55.876958 0
M  V30 27 C 38.405026 27.320864 55.170359 0
M  V30 28 C 33.912609 33.195772 59.453206 0
M  V30 29 O 34.693067 33.621462 60.554451 0
M  V30 30 O 38.162309 34.350824 61.141788 0
M  V30 31 N 38.342294 26.914035 56.583786 0
M  V30 32 C 36.800193 34.667193 60.928167 0 CFG=2
M  V30 33 N 38.198337 29.394078 53.774691 0
M  V30 34 C 36.329883 32.091939 61.260074 0
M  V30 35 H 40.440171 27.021098 56.697235 0
M  V30 36 H 36.154860 37.797541 59.806474 0
M  V30 37 H 38.371753 31.808100 60.564665 0
M  V30 38 H 37.902776 30.765045 61.871257 0
M  V30 39 H 36.375242 33.286723 59.393694 0
M  V30 40 H 40.891015 30.021436 53.205100 0
M  V30 41 H 37.984270 25.263411 57.791686 0
M  V30 42 H 36.620352 29.222239 60.253501 0
M  V30 43 H 37.288140 30.129210 56.660188 0
M  V30 44 H 39.030703 23.621431 56.532765 0
M  V30 45 H 39.166100 24.591167 55.059935 0
M  V30 46 H 40.185477 24.900518 56.465985 0
M  V30 47 H 37.440454 29.120669 55.553412 0
M  V30 48 H 36.504509 23.996886 56.409108 0
M  V30 49 H 35.878265 25.620506 56.562382 0
M  V30 50 H 36.666740 25.093532 55.064215 0
M  V30 51 H 37.394233 31.213743 53.493860 0
M  V30 52 H 37.465140 35.529636 59.026406 0
M  V30 53 H 35.769227 35.676572 59.325199 0
M  V30 54 H 40.559212 27.258200 59.227739 0
M  V30 55 H 38.838460 26.862687 59.280163 0
M  V30 56 H 40.003066 25.705371 58.652833 0
M  V30 57 H 35.546269 29.967549 58.528442 0
M  V30 58 H 36.359376 31.524288 58.653492 0
M  V30 59 H 40.586244 29.210195 57.762022 0
M  V30 60 H 40.001692 31.907074 53.763443 0
M  V30 61 H 39.067418 32.038509 52.279254 0
M  V30 62 H 41.523829 31.221383 51.095698 0
M  V30 63 H 41.284403 29.539050 50.697257 0
M  V30 64 H 37.820029 39.638678 60.065216 0
M  V30 65 H 37.067322 39.565488 61.666953 0
M  V30 66 H 38.844514 39.511387 61.453448 0
M  V30 67 H 39.590185 30.536645 55.949691 0
M  V30 68 H 40.529412 29.186443 55.376587 0
M  V30 69 H 37.545216 26.954041 54.613833 0
M  V30 70 H 39.299961 26.920941 54.691835 0
M  V30 71 H 32.865769 33.438413 59.636996 0
M  V30 72 H 34.216041 33.714217 58.543395 0
M  V30 73 H 33.995795 32.120589 59.300912 0
M  V30 74 H 38.609041 35.171195 61.334669 0
M  V30 75 H 36.354840 35.022270 61.858680 0
M  V30 76 H 36.474847 32.458447 62.253539 0
M  V30 77 H 35.430728 31.474561 61.289824 0
M  V30 78 H 38.373460 31.110375 54.823577 0
M  V30 79 H 39.219754 29.042405 60.001621 0
M  V30 END ATOM
M  V30 BEGIN BOND
M  V30 1 2 6 1
M  V30 2 1 10 5
M  V30 3 1 10 6
M  V30 4 1 11 1
M  V30 5 1 12 9
M  V30 6 1 14 9
M  V30 7 1 16 3
M  V30 8 1 17 2
M  V30 9 1 18 10
M  V30 10 1 18 11
M  V30 11 1 19 1
M  V30 12 1 19 2
M  V30 13 1 20 8
M  V30 14 1 20 15
M  V30 15 1 22 4
M  V30 16 1 22 8
M  V30 17 1 24 3
M  V30 18 2 24 21
M  V30 19 1 24 23
M  V30 20 1 25 8
M  V30 21 1 26 13
M  V30 22 1 26 19
M  V30 23 1 27 13
M  V30 24 1 29 7
M  V30 25 1 29 28
M  V30 26 1 31 2
M  V30 27 1 31 9
M  V30 28 1 31 27
M  V30 29 1 32 7
M  V30 30 1 32 16
M  V30 31 1 32 30
M  V30 32 1 33 13
M  V30 33 1 33 15
M  V30 34 1 33 25
M  V30 35 1 34 5
M  V30 36 1 34 7
M  V30 37 1 2 35 CFG=3
M  V30 38 1 36 3
M  V30 39 1 37 5
M  V30 40 1 38 5
M  V30 41 1 7 39 CFG=3
M  V30 42 1 8 40 CFG=1
M  V30 43 1 41 9
M  V30 44 1 10 42 CFG=1
M  V30 45 1 43 11
M  V30 46 1 44 12
M  V30 47 1 45 12
M  V30 48 1 46 12
M  V30 49 1 13 47 CFG=1
M  V30 50 1 48 14
M  V30 51 1 49 14
M  V30 52 1 50 14
M  V30 53 1 51 15
M  V30 54 1 52 16
M  V30 55 1 53 16
M  V30 56 1 54 17
M  V30 57 1 55 17
M  V30 58 1 56 17
M  V30 59 1 57 18
M  V30 60 1 58 18
M  V30 61 1 19 59 CFG=1
M  V30 62 1 60 20
M  V30 63 1 61 20
M  V30 64 1 62 22
M  V30 65 1 63 22
M  V30 66 1 64 23
M  V30 67 1 65 23
M  V30 68 1 66 23
M  V30 69 1 67 26
M  V30 70 1 68 26
M  V30 71 1 69 27
M  V30 72 1 70 27
M  V30 73 1 71 28
M  V30 74 1 72 28
M  V30 75 1 73 28
M  V30 76 1 74 30
M  V30 77 1 32 75 CFG=1
M  V30 78 1 76 34
M  V30 79 1 77 34
M  V30 80 1 78 15
M  V30 81 1 79 6
M  V30 END BOND
M  V30 END CTAB
M  END
>  <i_epik_Tot_Q>  (1) 
2

>  <i_epik_Tot_abs_Q>  (1) 
2

>  <i_i_glide_confnum>  (1) 
1715

>  <i_i_glide_lignum>  (1) 
19

>  <i_i_glide_posenum>  (1) 
10

>  <i_i_glide_rotatable_bonds>  (1) 
13

>  <i_lp_mmshare_version>  (1) 
72125

>  <i_m_source_file_index>  (1) 
6

>  <i_f3d_flags>  (1) 
0

>  <num_sample>  (1) 
50

>  <b_lp_Chiralities_Consistent>  (1) 
1

>  <r_epik_Charging_Adjusted_Penalty>  (1) 
1.2202907703101018

>  <r_epik_Ionization_Penalty>  (1) 
1.220291206888735

>  <r_epik_Ionization_Penalty_Charging>  (1) 
0.00010224848283174563

>  <r_epik_Ionization_Penalty_Neutral>  (1) 
1.2201889584059034

>  <r_epik_State_Penalty>  (1) 
1.2201885218272701

>  <r_glide_ring_energy>  (1) 
0

>  <r_i_docking_score>  (1) 
-5.5186957023883263

>  <r_i_glide_ecoul>  (1) 
-1.7977610826934036

>  <r_i_glide_eff_state_penalty>  (1) 
1.2201885218272701

>  <r_i_glide_einternal>  (1) 
25.613676915929421

>  <r_i_glide_emodel>  (1) 
-22.373838831764694

>  <r_i_glide_emodel_strain>  (1) 
4.9455032439774413

>  <r_i_glide_energy>  (1) 
-39.647290587546053

>  <r_i_glide_erotb>  (1) 
0.64218136225351719

>  <r_i_glide_esite>  (1) 
-0.094583073124814246

>  <r_i_glide_evdw>  (1) 
-37.849529504852647

>  <r_i_glide_gscore>  (1) 
-6.7388842242155969

>  <r_i_glide_gscore_strain>  (1) 
0.23637581099436034

>  <r_i_glide_hbond>  (1) 
-0.2477284253626707

>  <r_i_glide_ligand_efficiency>  (1) 
-0.16231457948200959

>  <r_i_glide_ligand_efficiency_ln>  (1) 
-1.2192346748288052

>  <r_i_glide_ligand_efficiency_sa>  (1) 
-0.52583622720931045

>  <r_i_glide_lipo>  (1) 
-3.8300300820544129

>  <r_i_glide_metal>  (1) 
-0

>  <r_i_glide_rewards>  (1) 
-1.2829591792749331

>  <r_lp_Energy>  (1) 
27.210827999999999

>  <s_epik_Chemistry_Notes>  (1) 
This compound has an imine and may undergo hydrolysis. This compound has a N-S or N-O group and may undergo hydrolysis at high or low pH.

>  <s_epik_cmdline>  (1) 
J2VwaWtfcHl0aG9uJywgJy1waHQnLCAnMS4wJywgJy1waCcsICc3LjQnLCAnLXRuJywgJzgnLCAnLW1hJywgJzUwMCcsICctaW1hZScsICc8aW5maWxlLm1hZT4nLCAnLW9tYWUnLCAnPG91dGZpbGUubWFlPic=

>  <s_epik_input>  (1) 
RltDSDJdW0NASF0xW0NIMl1bTkhdTihTMSlbQ0BASF0oW0NIMl1OMltDSF0oW0NIM10pW0NIM10pW0NIMl1bQ0BASF0oW0NASF0yW0NIM10pQzM9TltDQEhdKFtDSDJdW05IXTMpW0NIMl1bQ0gyXVtDQEBIXShPW0NIM10pW0NAQEhdKFtPSF0pW0NIMl1bTkhdQyg9TylbQ0gzXQ==

>  <s_glide_docking_method>  (1) 
confgen

>  <s_i_glide_gridfile>  (1) 
gpcr_5ht2c_6bqh_protein_autoprepared_prepared

>  <s_lp_Force_Field>  (1) 
S-OPLS

>  <s_lp_Variant>  (1) 
DiffSBDD_5_num_sample_50-6

>  <s_m_source_file>  (1) 
generated__ligand_DiffSBDD_2026-05-06_prepared.sdf

>  <GenAI_Model>  (1) 
DiffSBDD

>  <Protein>  (1) 
GPCR_5HT2C

$$$$
DiffSBDD_9_num_sample_50
     RDKit          3D

  0  0  0  0  0  0  0  0  0  0999 V3000
M  V30 BEGIN CTAB
M  V30 COUNTS 72 73 0 0 1
M  V30 BEGIN ATOM
M  V30 1 C 38.532594 30.172268 59.960876 0
M  V30 2 C 39.537126 28.283386 55.949530 0
M  V30 3 C 41.952546 28.400498 64.596187 0
M  V30 4 O 40.538638 25.227532 65.291991 0
M  V30 5 C 37.952985 29.963951 58.566990 0
M  V30 6 C 40.255016 30.194257 65.233967 0
M  V30 7 C 41.400181 26.095987 65.143535 0
M  V30 8 C 37.288208 25.234271 57.076584 0
M  V30 9 C 42.662043 33.059711 65.250908 0
M  V30 10 C 42.892449 25.730021 65.364833 0
M  V30 11 O 38.301376 31.416360 62.051348 0
M  V30 12 C 41.962183 34.114048 66.123352 0
M  V30 13 C 39.181757 29.673666 55.346650 0 CFG=1
M  V30 14 C 40.910747 31.215077 66.099670 0 CFG=1
M  V30 15 C 42.219625 30.950583 66.820541 0
M  V30 16 F 43.337351 26.275851 66.498963 0
M  V30 17 C 38.402180 27.236044 55.939334 0 CFG=2
M  V30 18 C 39.820329 25.336705 56.934060 0
M  V30 19 O 43.173487 28.289817 64.703409 0
M  V30 20 C 37.674642 31.119132 60.814621 0
M  V30 21 C 41.336780 29.768595 64.217257 0 CFG=1
M  V30 22 N 38.559832 30.615956 57.562110 0
M  V30 23 F 43.009116 24.408027 65.482900 0
M  V30 24 O 36.988044 29.221248 58.401679 0
M  V30 25 P 39.826353 32.183698 62.130364 0
M  V30 26 C 38.764704 29.616042 53.867373 0
M  V30 27 N 41.067601 27.377804 64.788095 0
M  V30 28 O 39.958593 32.813853 63.455069 0 CHG=-1
M  V30 29 C 38.523254 26.152562 57.038149 0
M  V30 30 O 40.938812 30.894329 61.988574 0
M  V30 31 O 42.373541 30.764279 64.334882 0
M  V30 32 C 42.198226 31.626812 65.467759 0 CFG=2
M  V30 33 C 38.147238 30.482794 56.167188 0
M  V30 34 O 38.340578 26.620077 54.666054 0
M  V30 35 O 39.967435 33.017350 60.917230 0
M  V30 36 C 40.842060 29.695905 62.745348 0
M  V30 37 H 38.627082 29.205000 60.454511 0
M  V30 38 H 39.545133 30.555380 59.853305 0
M  V30 39 H 39.866901 28.430480 56.978093 0
M  V30 40 H 40.415509 27.872802 55.453198 0
M  V30 41 H 39.412607 30.650485 64.724885 0
M  V30 42 H 39.856153 29.393111 65.855456 0
M  V30 43 H 37.180319 24.670684 56.149806 0
M  V30 44 H 37.353185 24.515186 57.893514 0
M  V30 45 H 36.374392 25.810297 57.222726 0
M  V30 46 H 43.730743 33.094366 65.453919 0
M  V30 47 H 42.524486 33.315971 64.199393 0
M  V30 48 H 43.543004 25.982005 64.527632 0
M  V30 49 H 42.376075 35.104680 65.936911 0
M  V30 50 H 40.898142 34.164746 65.892080 0
M  V30 51 H 42.074168 33.902766 67.187439 0
M  V30 52 H 40.108484 30.248745 55.373520 0
M  V30 53 H 40.267404 31.978817 66.521916 0
M  V30 54 H 42.583089 29.927752 66.883736 0
M  V30 55 H 42.438875 31.566447 67.689685 0
M  V30 56 H 37.467405 27.758484 56.104846 0
M  V30 57 H 39.894432 24.821446 55.976899 0
M  V30 58 H 40.686548 25.987543 57.033013 0
M  V30 59 H 39.880760 24.587933 57.722968 0
M  V30 60 H 37.496144 32.055824 60.283899 0
M  V30 61 H 36.696895 30.677669 61.008859 0
M  V30 62 H 39.342684 31.218432 57.767882 0
M  V30 63 H 37.783052 29.157919 53.741037 0
M  V30 64 H 38.708219 30.623007 53.452898 0
M  V30 65 H 39.480746 29.056065 53.267031 0
M  V30 66 H 40.083742 27.585320 64.661103 0
M  V30 67 H 38.551691 26.669506 57.998253 0
M  V30 68 H 38.060884 31.489958 55.757385 0
M  V30 69 H 37.148358 30.052740 56.072409 0
M  V30 70 H 38.217079 27.293604 54.015100 0
M  V30 71 H 39.810778 29.341933 62.713611 0
M  V30 72 H 41.416439 28.956275 62.184723 0
M  V30 END ATOM
M  V30 BEGIN BOND
M  V30 1 1 5 1
M  V30 2 2 7 4
M  V30 3 1 10 7
M  V30 4 1 12 9
M  V30 5 1 13 2
M  V30 6 1 14 6
M  V30 7 1 15 14
M  V30 8 1 16 10
M  V30 9 1 17 2
M  V30 10 2 19 3
M  V30 11 1 20 1
M  V30 12 1 20 11
M  V30 13 1 21 3
M  V30 14 1 21 6
M  V30 15 1 22 5
M  V30 16 1 23 10
M  V30 17 2 24 5
M  V30 18 1 25 11
M  V30 19 1 26 13
M  V30 20 1 27 3
M  V30 21 1 27 7
M  V30 22 1 28 25
M  V30 23 1 29 8
M  V30 24 1 29 17
M  V30 25 1 29 18
M  V30 26 1 30 25
M  V30 27 1 31 21
M  V30 28 1 32 9 CFG=1
M  V30 29 1 32 14
M  V30 30 1 32 15
M  V30 31 1 32 31
M  V30 32 1 33 13
M  V30 33 1 33 22
M  V30 34 1 34 17
M  V30 35 2 35 25
M  V30 36 1 21 36 CFG=3
M  V30 37 1 36 30
M  V30 38 1 37 1
M  V30 39 1 38 1
M  V30 40 1 39 2
M  V30 41 1 40 2
M  V30 42 1 41 6
M  V30 43 1 42 6
M  V30 44 1 43 8
M  V30 45 1 44 8
M  V30 46 1 45 8
M  V30 47 1 46 9
M  V30 48 1 47 9
M  V30 49 1 48 10
M  V30 50 1 49 12
M  V30 51 1 50 12
M  V30 52 1 51 12
M  V30 53 1 13 52 CFG=3
M  V30 54 1 14 53 CFG=1
M  V30 55 1 54 15
M  V30 56 1 55 15
M  V30 57 1 17 56 CFG=1
M  V30 58 1 57 18
M  V30 59 1 58 18
M  V30 60 1 59 18
M  V30 61 1 60 20
M  V30 62 1 61 20
M  V30 63 1 62 22
M  V30 64 1 63 26
M  V30 65 1 64 26
M  V30 66 1 65 26
M  V30 67 1 66 27
M  V30 68 1 67 29
M  V30 69 1 68 33
M  V30 70 1 69 33
M  V30 71 1 70 34
M  V30 72 1 71 36
M  V30 73 1 72 36
M  V30 END BOND
M  V30 END CTAB
M  END
>  <i_epik_Tot_Q>  (1) 
-1

>  <i_epik_Tot_abs_Q>  (1) 
1

>  <i_i_glide_confnum>  (1) 
2099

>  <i_i_glide_lignum>  (1) 
31

>  <i_i_glide_posenum>  (1) 
270

>  <i_i_glide_rotatable_bonds>  (1) 
19

>  <i_lp_mmshare_version>  (1) 
72125

>  <i_m_source_file_index>  (1) 
10

>  <i_f3d_flags>  (1) 
0

>  <num_sample>  (1) 
50

>  <b_lp_Chiralities_Consistent>  (1) 
1

>  <r_epik_Charging_Adjusted_Penalty>  (1) 
0.00011155638353850814

>  <r_epik_Ionization_Penalty>  (1) 
0.00045402006549120547

>  <r_epik_Ionization_Penalty_Charging>  (1) 
0.00011155638353850814

>  <r_epik_Ionization_Penalty_Neutral>  (1) 
0.00034246368195269732

>  <r_epik_State_Penalty>  (1) 
-0

>  <r_glide_ring_energy>  (1) 
0

>  <r_i_docking_score>  (1) 
-5.5160059584892185

>  <r_i_glide_ecoul>  (1) 
-7.7109177636375028

>  <r_i_glide_eff_state_penalty>  (1) 
-0

>  <r_i_glide_einternal>  (1) 
7.3910691362575367

>  <r_i_glide_emodel>  (1) 
-68.20511731574021

>  <r_i_glide_emodel_strain>  (1) 
0.28604697867022821

>  <r_i_glide_energy>  (1) 
-55.826065601281236

>  <r_i_glide_erotb>  (1) 
1.0579039017731899

>  <r_i_glide_esite>  (1) 
-0.083242417310088024

>  <r_i_glide_evdw>  (1) 
-48.115147837643732

>  <r_i_glide_gscore>  (1) 
-5.5160059584892185

>  <r_i_glide_gscore_strain>  (1) 
0

>  <r_i_glide_hbond>  (1) 
-0.54149760581125372

>  <r_i_glide_ligand_efficiency>  (1) 
-0.15322238773581162

>  <r_i_glide_ligand_efficiency_ln>  (1) 
-1.20344347488334

>  <r_i_glide_ligand_efficiency_sa>  (1) 
-0.5059291772055744

>  <r_i_glide_lipo>  (1) 
-2.7109754127869152

>  <r_i_glide_metal>  (1) 
-0

>  <r_i_glide_rewards>  (1) 
0.32420063207366101

>  <r_lp_Energy>  (1) 
21.957920999999999

>  <r_lp_tautomer_probability>  (1) 
1

>  <s_epik_cmdline>  (1) 
J2VwaWtfcHl0aG9uJywgJy1waHQnLCAnMS4wJywgJy1waCcsICc3LjQnLCAnLXRuJywgJzgnLCAnLW1hJywgJzUwMCcsICctaW1hZScsICc8aW5maWxlLm1hZT4nLCAnLW9tYWUnLCAnPG91dGZpbGUubWFlPic=

>  <s_epik_input>  (1) 
W0NIM11bQ0hdKFtDSDNdKVtDQEhdKFtPSF0pW0NIMl1bQ0BASF0oW0NIM10pW0NIMl1bTkhdQyg9TylbQ0gyXVtDSDJdT1tQQEBdKD1PKShbT0hdKU9bQ0gyXVtDQF0oTzEpKEMoPU8pW05IXUMoPU8pW0NIXShGKUYpW0NIMl1bQ0BASF0oW0NIMl0yKVtDQF0xMltDSDJdW0NIM10=

>  <s_glide_docking_method>  (1) 
confgen

>  <s_i_glide_gridfile>  (1) 
gpcr_5ht2c_6bqh_protein_autoprepared_prepared

>  <s_lp_Force_Field>  (1) 
S-OPLS

>  <s_lp_Variant>  (1) 
DiffSBDD_9_num_sample_50-1

>  <s_m_source_file>  (1) 
generated__ligand_DiffSBDD_2026-05-06_prepared.sdf

>  <GenAI_Model>  (1) 
DiffSBDD

>  <Protein>  (1) 
GPCR_5HT2C

$$$$
DiffSBDD_27_num_sample_50
     RDKit          3D

  0  0  0  0  0  0  0  0  0  0999 V3000
M  V30 BEGIN CTAB
M  V30 COUNTS 64 66 0 0 1
M  V30 BEGIN ATOM
M  V30 1 C 39.471802 29.332433 57.794419 0
M  V30 2 C 41.067033 28.834243 61.707405 0
M  V30 3 C 40.667361 26.636327 56.486919 0
M  V30 4 C 41.254455 29.913642 62.592042 0
M  V30 5 O 37.939671 25.792926 56.749519 0
M  V30 6 C 39.147846 29.946147 60.727998 0
M  V30 7 N 41.590883 32.103062 64.323131 0
M  V30 8 C 39.316027 30.690875 55.652191 0 CFG=1
M  V30 9 C 35.810526 32.735222 60.939811 0
M  V30 10 C 37.532967 33.094993 57.796583 0
M  V30 11 C 39.327708 31.040597 61.595790 0
M  V30 12 C 37.553857 34.750083 59.647038 0
M  V30 13 C 40.391021 31.034614 62.527779 0
M  V30 14 C 33.298179 34.021423 58.753717 0
M  V30 15 O 39.835910 27.845165 59.892122 0
M  V30 16 C 39.222807 32.144356 56.231583 0
M  V30 17 C 38.020569 29.921095 59.744553 0
M  V30 18 N 38.509805 30.084970 58.383149 0 CHG=1
M  V30 19 C 36.783932 35.088660 60.931718 0
M  V30 20 C 36.936624 33.608834 58.856333 0
M  V30 21 O 39.898542 33.221555 63.338109 0
M  V30 22 C 40.601058 32.221121 63.433923 0
M  V30 23 C 40.017567 28.867927 60.768622 0
M  V30 24 C 37.837407 32.326979 56.765525 0
M  V30 25 C 36.409223 33.862761 61.774003 0
M  V30 26 O 39.467389 31.221432 53.256742 0
M  V30 27 C 38.351989 26.649972 57.528375 0
M  V30 28 C 40.133524 30.653074 54.350781 0
M  V30 29 C 40.147830 28.150158 58.528950 0 CFG=1
M  V30 30 O 35.467410 31.672565 61.453492 0
M  V30 31 C 35.669833 32.967986 59.439450 0 CFG=2
M  V30 32 C 34.395928 33.605463 59.078766 0
M  V30 33 N 39.867393 29.613377 56.525910 0
M  V30 34 C 39.852786 26.826562 57.778769 0 CFG=2
M  V30 35 H 41.735239 27.990593 61.741832 0
M  V30 36 H 40.659830 25.591366 56.174968 0
M  V30 37 H 40.282969 27.212807 55.645476 0
M  V30 38 H 41.708956 26.912829 56.653550 0
M  V30 39 H 42.068487 29.886344 63.300247 0
M  V30 40 H 41.786510 32.863030 64.957233 0
M  V30 41 H 42.137165 31.257371 64.362434 0
M  V30 42 H 38.319778 30.340595 55.377970 0
M  V30 43 H 38.656899 31.883649 61.546558 0
M  V30 44 H 37.472087 35.632071 59.009217 0
M  V30 45 H 38.606288 34.550791 59.854194 0
M  V30 46 H 32.344192 34.385751 58.445874 0
M  V30 47 H 39.406144 32.895347 55.462675 0
M  V30 48 H 39.893513 32.330950 57.053473 0
M  V30 49 H 37.316708 30.716657 59.960660 0
M  V30 50 H 37.475689 28.981911 59.828393 0
M  V30 51 H 35.870043 35.602532 60.639870 0
M  V30 52 H 37.349746 35.799994 61.532919 0
M  V30 53 H 37.068279 31.763897 56.253472 0
M  V30 54 H 35.705345 34.144058 62.557357 0
M  V30 55 H 37.301658 33.466004 62.253412 0
M  V30 56 H 39.582880 32.162077 53.272756 0
M  V30 57 H 37.698638 27.322976 58.082942 0
M  V30 58 H 41.116332 31.109769 54.471711 0
M  V30 59 H 40.267397 29.621418 54.058463 0
M  V30 60 H 41.224389 28.332843 58.504034 0
M  V30 61 H 35.590380 31.955388 59.053486 0
M  V30 62 H 40.588481 29.033723 56.118764 0
M  V30 63 H 40.150514 26.012297 58.440785 0
M  V30 64 H 38.097070 30.838604 57.847547 0
M  V30 END ATOM
M  V30 BEGIN BOND
M  V30 1 2 4 2
M  V30 2 1 11 6
M  V30 3 1 13 4
M  V30 4 2 13 11
M  V30 5 1 16 8
M  V30 6 1 17 6
M  V30 7 2 18 1
M  V30 8 1 18 17
M  V30 9 1 19 12
M  V30 10 2 20 10
M  V30 11 1 20 12
M  V30 12 1 22 7
M  V30 13 1 22 13
M  V30 14 2 22 21
M  V30 15 1 23 2
M  V30 16 2 23 6
M  V30 17 1 23 15
M  V30 18 2 24 10
M  V30 19 1 24 16
M  V30 20 1 25 9
M  V30 21 1 25 19
M  V30 22 2 27 5
M  V30 23 1 28 8
M  V30 24 1 28 26
M  V30 25 1 29 1
M  V30 26 1 29 15
M  V30 27 2 30 9
M  V30 28 1 31 9
M  V30 29 1 31 20
M  V30 30 3 32 14
M  V30 31 1 32 31
M  V30 32 1 33 1
M  V30 33 1 33 8
M  V30 34 1 34 3
M  V30 35 1 34 27
M  V30 36 1 34 29
M  V30 37 1 35 2
M  V30 38 1 36 3
M  V30 39 1 37 3
M  V30 40 1 38 3
M  V30 41 1 39 4
M  V30 42 1 40 7
M  V30 43 1 41 7
M  V30 44 1 8 42 CFG=3
M  V30 45 1 43 11
M  V30 46 1 44 12
M  V30 47 1 45 12
M  V30 48 1 46 14
M  V30 49 1 47 16
M  V30 50 1 48 16
M  V30 51 1 49 17
M  V30 52 1 50 17
M  V30 53 1 51 19
M  V30 54 1 52 19
M  V30 55 1 53 24
M  V30 56 1 54 25
M  V30 57 1 55 25
M  V30 58 1 56 26
M  V30 59 1 57 27
M  V30 60 1 58 28
M  V30 61 1 59 28
M  V30 62 1 29 60 CFG=1
M  V30 63 1 31 61 CFG=3
M  V30 64 1 62 33
M  V30 65 1 34 63 CFG=1
M  V30 66 1 64 18
M  V30 END BOND
M  V30 END CTAB
M  END
>  <i_epik_Tot_Q>  (1) 
1

>  <i_epik_Tot_abs_Q>  (1) 
1

>  <i_i_glide_confnum>  (1) 
202

>  <i_i_glide_lignum>  (1) 
70

>  <i_i_glide_posenum>  (1) 
248

>  <i_i_glide_rotatable_bonds>  (1) 
10

>  <i_lp_mmshare_version>  (1) 
72125

>  <i_m_source_file_index>  (1) 
28

>  <i_f3d_flags>  (1) 
0

>  <num_sample>  (1) 
50

>  <b_lp_Chiralities_Consistent>  (1) 
1

>  <r_epik_Charging_Adjusted_Penalty>  (1) 
0.046741104871076994

>  <r_epik_Ionization_Penalty>  (1) 
0.019812372092419556

>  <r_epik_Ionization_Penalty_Charging>  (1) 
0.019701646860550703

>  <r_epik_Ionization_Penalty_Neutral>  (1) 
0.00011072523186885321

>  <r_epik_State_Penalty>  (1) 
0.027039458010526287

>  <r_glide_ring_energy>  (1) 
1.1279086995901264

>  <r_i_docking_score>  (1) 
-5.513762630070036

>  <r_i_glide_ecoul>  (1) 
-7.2340859681624856

>  <r_i_glide_eff_state_penalty>  (1) 
0.027039458010526287

>  <r_i_glide_einternal>  (1) 
3.7519003897132581

>  <r_i_glide_emodel>  (1) 
-48.446477885592422

>  <r_i_glide_emodel_strain>  (1) 
5.9562550875666673

>  <r_i_glide_energy>  (1) 
-40.261798412169398

>  <r_i_glide_erotb>  (1) 
0.65393697564197784

>  <r_i_glide_esite>  (1) 
-0.018603057670985263

>  <r_i_glide_evdw>  (1) 
-33.027712444006909

>  <r_i_glide_gscore>  (1) 
-5.5408020880805626

>  <r_i_glide_gscore_strain>  (1) 
0.48906377189166683

>  <r_i_glide_hbond>  (1) 
-0.2887437870845635

>  <r_i_glide_ligand_efficiency>  (1) 
-0.16216948911970694

>  <r_i_glide_ligand_efficiency_ln>  (1) 
-1.2181448207857033

>  <r_i_glide_ligand_efficiency_sa>  (1) 
-0.5253661907593431

>  <r_i_glide_lipo>  (1) 
-2.1860024927224653

>  <r_i_glide_metal>  (1) 
-0

>  <r_i_glide_rewards>  (1) 
-1.4539549807114744

>  <r_lp_Energy>  (1) 
12.568142999999999

>  <r_lp_tautomer_probability>  (1) 
0.99985000999950013

>  <s_epik_Chemistry_Notes>  (1) 
This compound has an imine and may undergo hydrolysis.

>  <s_epik_cmdline>  (1) 
J2VwaWtfcHl0aG9uJywgJy1waHQnLCAnMS4wJywgJy1waCcsICc3LjQnLCAnLXRuJywgJzgnLCAnLW1hJywgJzUwMCcsICctaW1hZScsICc8aW5maWxlLm1hZT4nLCAnLW9tYWUnLCAnPG91dGZpbGUubWFlPic=

>  <s_epik_input>  (1) 
W05IMl1DKD1PKWMoW2NIXTEpW2NIXVtjSF1jKGMxMilPW0NAQEhdKFtDQEhdKFtDSDNdKVtDSF09TylDKD1OW0NIMl0yKVtOSF1bQ0BIXShbQ0gyXVtPSF0pW0NIMl1bQ0hdPUM9QyhbQ0BASF0zQyNbQ0hdKVtDSDJdW0NIMl1bQ0gyXUMzPU8=

>  <s_glide_docking_method>  (1) 
confgen

>  <s_i_glide_gridfile>  (1) 
gpcr_5ht2c_6bqh_protein_autoprepared_prepared

>  <s_lp_Force_Field>  (1) 
S-OPLS

>  <s_lp_Variant>  (1) 
DiffSBDD_27_num_sample_50-1

>  <s_m_source_file>  (1) 
generated__ligand_DiffSBDD_2026-05-06_prepared.sdf

>  <GenAI_Model>  (1) 
DiffSBDD

>  <Protein>  (1) 
GPCR_5HT2C

$$$$
DiffSBDD_10_num_sample_50
     RDKit          3D

  0  0  0  0  0  0  0  0  0  0999 V3000
M  V30 BEGIN CTAB
M  V30 COUNTS 65 67 0 0 1
M  V30 BEGIN ATOM
M  V30 1 C 39.556658 31.912300 55.159507 0
M  V30 2 C 39.491365 31.238338 53.791350 0
M  V30 3 C 38.124498 24.939601 55.296851 0
M  V30 4 N 38.698009 29.168184 54.886016 0 CFG=1 CHG=1
M  V30 5 O 40.293190 31.709075 62.868061 0 CHG=-1
M  V30 6 O 37.867606 34.021427 56.495812 0
M  V30 7 C 40.385455 36.135434 62.551353 0
M  V30 8 C 37.398860 25.675382 54.349623 0
M  V30 9 C 37.977613 35.223073 61.405035 0
M  V30 10 O 39.773112 30.406195 60.743452 0
M  V30 11 N 41.467361 34.054649 61.963698 0
M  V30 12 C 37.604174 27.052312 54.219393 0
M  V30 13 C 37.809341 32.716167 59.856577 0
M  V30 14 C 40.332539 34.856276 61.963322 0
M  V30 15 C 39.675467 29.726529 53.901617 0 CFG=1
M  V30 16 C 40.440890 29.551315 51.345157 0
M  V30 17 C 38.552787 27.680808 55.013389 0
M  V30 18 O 37.867480 31.123651 62.253857 0
M  V30 19 C 38.650781 29.846610 56.199318 0
M  V30 20 N 38.268932 31.961641 57.305604 0
M  V30 21 C 39.529696 29.069108 52.489328 0
M  V30 22 P 39.223379 31.538898 61.864127 0
M  V30 23 C 36.807838 37.383575 62.012403 0
M  V30 24 C 39.244063 36.955447 62.565244 0
M  V30 25 C 37.952800 33.250945 57.439467 0
M  V30 26 N 37.728231 33.621085 58.709169 0
M  V30 27 C 39.108974 25.578577 56.091861 0
M  V30 28 O 36.869286 27.777862 53.336493 0 CHG=-1
M  V30 29 F 37.867459 23.623561 55.453285 0
M  V30 30 C 39.330924 26.965905 55.944977 0
M  V30 31 C 39.125857 34.391621 61.379128 0
M  V30 32 C 38.419980 31.334930 56.009797 0 CFG=1
M  V30 33 C 39.072974 33.003775 60.694794 0 CFG=2
M  V30 34 C 38.039324 36.499983 61.995007 0
M  V30 35 H 39.466647 32.988756 55.052874 0
M  V30 36 H 40.526484 31.740623 55.618964 0
M  V30 37 H 38.539958 31.484503 53.331310 0
M  V30 38 H 40.267670 31.621486 53.141552 0
M  V30 39 H 41.305683 36.488001 62.995046 0
M  V30 40 H 36.664899 25.181204 53.737637 0
M  V30 41 H 37.052590 34.888184 60.967518 0
M  V30 42 H 39.761426 29.583449 61.206263 0
M  V30 43 H 42.225303 34.321502 62.573315 0
M  V30 44 H 41.333822 33.047947 61.898756 0
M  V30 45 H 37.759234 31.657520 59.600049 0
M  V30 46 H 36.908231 32.852049 60.454741 0
M  V30 47 H 40.663328 29.621498 54.335949 0
M  V30 48 H 40.101334 29.121989 50.403566 0
M  V30 49 H 40.422278 30.631388 51.207290 0
M  V30 50 H 41.469126 29.222076 51.457375 0
M  V30 51 H 39.573393 29.679825 56.756981 0
M  V30 52 H 37.832238 29.427264 56.787469 0
M  V30 53 H 38.329243 31.381032 58.127155 0
M  V30 54 H 39.645295 27.987474 52.559561 0
M  V30 55 H 38.513398 29.237028 52.138512 0
M  V30 56 H 37.062273 38.422773 62.209777 0
M  V30 57 H 36.298720 37.336901 61.049661 0
M  V30 58 H 36.114973 37.054119 62.785979 0
M  V30 59 H 39.295643 37.934764 63.014996 0
M  V30 60 H 37.480337 34.582143 58.890493 0
M  V30 61 H 39.676190 25.010943 56.814139 0
M  V30 62 H 40.067123 27.469328 56.554421 0
M  V30 63 H 37.472515 31.478216 55.483060 0
M  V30 64 H 39.924044 32.964094 60.018911 0
M  V30 65 H 37.820362 29.431799 54.453656 0
M  V30 END ATOM
M  V30 BEGIN BOND
M  V30 1 1 2 1
M  V30 2 2 8 3
M  V30 3 1 12 8
M  V30 4 1 14 7
M  V30 5 1 14 11
M  V30 6 1 15 2
M  V30 7 1 15 4
M  V30 8 1 17 4
M  V30 9 2 17 12
M  V30 10 1 19 4
M  V30 11 1 21 15
M  V30 12 1 21 16
M  V30 13 1 22 5
M  V30 14 1 22 10
M  V30 15 2 22 18
M  V30 16 2 24 7
M  V30 17 2 25 6
M  V30 18 1 25 20
M  V30 19 1 26 13
M  V30 20 1 26 25
M  V30 21 1 27 3
M  V30 22 1 28 12
M  V30 23 1 29 3
M  V30 24 1 30 17
M  V30 25 2 30 27
M  V30 26 1 31 9
M  V30 27 2 31 14
M  V30 28 1 32 1
M  V30 29 1 32 19
M  V30 30 1 32 20
M  V30 31 1 33 13
M  V30 32 1 33 22
M  V30 33 1 33 31
M  V30 34 2 34 9
M  V30 35 1 34 23
M  V30 36 1 34 24
M  V30 37 1 35 1
M  V30 38 1 36 1
M  V30 39 1 37 2
M  V30 40 1 38 2
M  V30 41 1 39 7
M  V30 42 1 40 8
M  V30 43 1 41 9
M  V30 44 1 42 10
M  V30 45 1 43 11
M  V30 46 1 44 11
M  V30 47 1 45 13
M  V30 48 1 46 13
M  V30 49 1 15 47 CFG=1
M  V30 50 1 48 16
M  V30 51 1 49 16
M  V30 52 1 50 16
M  V30 53 1 51 19
M  V30 54 1 52 19
M  V30 55 1 53 20
M  V30 56 1 54 21
M  V30 57 1 55 21
M  V30 58 1 56 23
M  V30 59 1 57 23
M  V30 60 1 58 23
M  V30 61 1 59 24
M  V30 62 1 60 26
M  V30 63 1 61 27
M  V30 64 1 62 30
M  V30 65 1 32 63 CFG=3
M  V30 66 1 33 64 CFG=3
M  V30 67 1 4 65 CFG=3
M  V30 END BOND
M  V30 END CTAB
M  END
>  <i_epik_Tot_Q>  (1) 
-1

>  <i_epik_Tot_abs_Q>  (1) 
3

>  <i_i_glide_confnum>  (1) 
247

>  <i_i_glide_lignum>  (1) 
36

>  <i_i_glide_posenum>  (1) 
264

>  <i_i_glide_rotatable_bonds>  (1) 
10

>  <i_lp_mmshare_version>  (1) 
72125

>  <i_m_source_file_index>  (1) 
11

>  <i_f3d_flags>  (1) 
0

>  <num_sample>  (1) 
50

>  <b_lp_Chiralities_Consistent>  (1) 
1

>  <r_epik_Charging_Adjusted_Penalty>  (1) 
0.95893062563682818

>  <r_epik_Ionization_Penalty>  (1) 
0.45630296270815951

>  <r_epik_Ionization_Penalty_Charging>  (1) 
0.042165092744118775

>  <r_epik_Ionization_Penalty_Neutral>  (1) 
0.41413786996404073

>  <r_epik_State_Penalty>  (1) 
0.91676553289270946

>  <r_glide_ring_energy>  (1) 
0

>  <r_i_docking_score>  (1) 
-5.50678783581637

>  <r_i_glide_ecoul>  (1) 
-4.1433752880136279

>  <r_i_glide_eff_state_penalty>  (1) 
0.91676553289270946

>  <r_i_glide_einternal>  (1) 
19.833059727464288

>  <r_i_glide_emodel>  (1) 
-44.112634958003873

>  <r_i_glide_emodel_strain>  (1) 
2.8990469919111916

>  <r_i_glide_energy>  (1) 
-39.228519698092796

>  <r_i_glide_erotb>  (1) 
0.66918926381983879

>  <r_i_glide_esite>  (1) 
-0.22835398210815128

>  <r_i_glide_evdw>  (1) 
-35.085144410079167

>  <r_i_glide_gscore>  (1) 
-6.4235533687090793

>  <r_i_glide_gscore_strain>  (1) 
0

>  <r_i_glide_hbond>  (1) 
-0.10630785044585811

>  <r_i_glide_ligand_efficiency>  (1) 
-0.16196434811224616

>  <r_i_glide_ligand_efficiency_ln>  (1) 
-1.2166038930987162

>  <r_i_glide_ligand_efficiency_sa>  (1) 
-0.52470161353064726

>  <r_i_glide_lipo>  (1) 
-4.3273117827141441

>  <r_i_glide_metal>  (1) 
-0

>  <r_i_glide_rewards>  (1) 
-0.055005503554762747

>  <r_lp_Energy>  (1) 
33.820101999999999

>  <s_epik_cmdline>  (1) 
J2VwaWtfcHl0aG9uJywgJy1waHQnLCAnMS4wJywgJy1waCcsICc3LjQnLCAnLXRuJywgJzgnLCAnLW1hJywgJzUwMCcsICctaW1hZScsICc8aW5maWxlLm1hZT4nLCAnLW9tYWUnLCAnPG91dGZpbGUubWFlPic=

>  <s_epik_input>  (1) 
RmMxW2NIXWMoW09IXSljKFtjSF1bY0hdMSlOMltDQEBIXShbQ0gyXVtDSDNdKVtDSDJdW0NIMl1bQ0BASF0oW0NIMl0yKVtOSF1DKD1PKVtOSF1bQ0gyXVtDQEhdKFAoPU8pKFtPSF0pW09IXSljM1tjSF1jKFtDSDNdKVtjSF1bY0hdYzNbTkgyXQ==

>  <s_glide_docking_method>  (1) 
confgen

>  <s_i_glide_gridfile>  (1) 
gpcr_5ht2c_6bqh_protein_autoprepared_prepared

>  <s_lp_Force_Field>  (1) 
S-OPLS

>  <s_lp_Variant>  (1) 
DiffSBDD_10_num_sample_50-5

>  <s_m_source_file>  (1) 
generated__ligand_DiffSBDD_2026-05-06_prepared.sdf

>  <GenAI_Model>  (1) 
DiffSBDD

>  <Protein>  (1) 
GPCR_5HT2C

$$$$
DiffSBDD_10_num_sample_50
     RDKit          3D

  0  0  0  0  0  0  0  0  0  0999 V3000
M  V30 BEGIN CTAB
M  V30 COUNTS 65 67 0 0 1
M  V30 BEGIN ATOM
M  V30 1 C 38.095934 26.495085 58.340018 0
M  V30 2 C 38.086889 25.304982 57.398855 0
M  V30 3 C 38.596054 28.051489 51.528757 0
M  V30 4 N 38.586252 26.894994 55.603613 0 CFG=1 CHG=1
M  V30 5 O 35.423160 31.621600 60.942323 0 CHG=-1
M  V30 6 O 40.698424 28.021449 60.192810 0
M  V30 7 C 41.198968 32.916809 63.470724 0
M  V30 8 C 39.536455 27.187832 52.013205 0
M  V30 9 C 39.416375 33.918351 61.527213 0
M  V30 10 O 36.905432 33.118774 59.457777 0
M  V30 11 N 39.985607 30.820483 63.527885 0
M  V30 12 C 39.537574 26.821477 53.356594 0
M  V30 13 C 38.457424 30.843426 60.335764 0
M  V30 14 C 40.139423 32.109647 63.012399 0
M  V30 15 C 37.657607 25.799440 56.008393 0 CFG=1
M  V30 16 C 36.565575 23.549434 55.311927 0
M  V30 17 C 38.549802 27.302297 54.188168 0
M  V30 18 O 36.266916 33.855781 61.842321 0
M  V30 19 C 38.662789 28.046376 56.528792 0
M  V30 20 N 39.014427 28.695523 58.838563 0
M  V30 21 C 37.611821 24.630431 54.999520 0
M  V30 22 P 36.482884 32.646090 61.024588 0
M  V30 23 C 40.664688 36.122405 61.459872 0
M  V30 24 C 41.366327 34.217889 62.967422 0
M  V30 25 C 39.811302 28.816803 59.912723 0
M  V30 26 N 39.531919 29.901093 60.657067 0
M  V30 27 C 37.585723 28.543954 52.368533 0
M  V30 28 O 40.510878 26.021408 53.853374 0 CHG=-1
M  V30 29 F 38.667395 28.426374 50.253504 0
M  V30 30 C 37.550220 28.161316 53.719777 0
M  V30 31 C 39.236821 32.610975 62.032545 0
M  V30 32 C 39.088262 27.573215 57.914538 0 CFG=1
M  V30 33 C 38.075327 31.735282 61.526305 0 CFG=2
M  V30 34 C 40.478775 34.720117 61.997137 0
M  V30 35 H 38.267891 26.184408 59.365820 0
M  V30 36 H 37.098901 26.924930 58.253498 0
M  V30 37 H 39.066792 24.824209 57.370009 0
M  V30 38 H 37.383070 24.569794 57.785540 0
M  V30 39 H 41.884929 32.536805 64.213636 0
M  V30 40 H 40.267377 26.825431 51.344857 0
M  V30 41 H 38.739083 34.308577 60.783172 0
M  V30 42 H 36.264299 32.738529 58.871386 0
M  V30 43 H 40.508131 30.543984 64.346413 0
M  V30 44 H 39.129793 30.304343 63.365691 0
M  V30 45 H 37.554275 30.306918 60.037385 0
M  V30 46 H 38.769501 31.458655 59.489890 0
M  V30 47 H 36.658648 26.224031 56.068483 0
M  V30 48 H 36.667531 22.722492 54.610133 0
M  V30 49 H 36.667463 23.122216 56.307039 0
M  V30 50 H 35.551854 23.943020 55.226367 0
M  V30 51 H 37.696310 28.551614 56.572040 0
M  V30 52 H 39.382802 28.772839 56.150027 0
M  V30 53 H 38.307757 29.396973 58.674741 0
M  V30 54 H 37.372914 25.010660 54.006539 0
M  V30 55 H 38.599636 24.177016 54.923202 0
M  V30 56 H 41.011949 36.794232 62.247458 0
M  V30 57 H 41.398780 36.125423 60.652556 0
M  V30 58 H 39.719545 36.507996 61.075918 0
M  V30 59 H 42.178430 34.833484 63.326587 0
M  V30 60 H 40.077288 30.077172 61.492359 0
M  V30 61 H 36.859305 29.215623 51.975607 0
M  V30 62 H 36.783205 28.537347 54.378963 0
M  V30 63 H 40.100059 27.164714 57.870073 0
M  V30 64 H 37.769096 31.086727 62.343593 0
M  V30 65 H 39.497407 26.453738 55.674365 0
M  V30 END ATOM
M  V30 BEGIN BOND
M  V30 1 1 2 1
M  V30 2 2 8 3
M  V30 3 1 12 8
M  V30 4 1 14 7
M  V30 5 1 14 11
M  V30 6 1 15 2
M  V30 7 1 15 4
M  V30 8 1 17 4
M  V30 9 2 17 12
M  V30 10 1 19 4
M  V30 11 1 21 15
M  V30 12 1 21 16
M  V30 13 1 22 5
M  V30 14 1 22 10
M  V30 15 2 22 18
M  V30 16 2 24 7
M  V30 17 2 25 6
M  V30 18 1 25 20
M  V30 19 1 26 13
M  V30 20 1 26 25
M  V30 21 1 27 3
M  V30 22 1 28 12
M  V30 23 1 29 3
M  V30 24 1 30 17
M  V30 25 2 30 27
M  V30 26 1 31 9
M  V30 27 2 31 14
M  V30 28 1 32 1
M  V30 29 1 32 19
M  V30 30 1 32 20
M  V30 31 1 33 13
M  V30 32 1 33 22
M  V30 33 1 33 31
M  V30 34 2 34 9
M  V30 35 1 34 23
M  V30 36 1 34 24
M  V30 37 1 35 1
M  V30 38 1 36 1
M  V30 39 1 37 2
M  V30 40 1 38 2
M  V30 41 1 39 7
M  V30 42 1 40 8
M  V30 43 1 41 9
M  V30 44 1 42 10
M  V30 45 1 43 11
M  V30 46 1 44 11
M  V30 47 1 45 13
M  V30 48 1 46 13
M  V30 49 1 15 47 CFG=1
M  V30 50 1 48 16
M  V30 51 1 49 16
M  V30 52 1 50 16
M  V30 53 1 51 19
M  V30 54 1 52 19
M  V30 55 1 53 20
M  V30 56 1 54 21
M  V30 57 1 55 21
M  V30 58 1 56 23
M  V30 59 1 57 23
M  V30 60 1 58 23
M  V30 61 1 59 24
M  V30 62 1 60 26
M  V30 63 1 61 27
M  V30 64 1 62 30
M  V30 65 1 32 63 CFG=3
M  V30 66 1 33 64 CFG=1
M  V30 67 1 4 65 CFG=3
M  V30 END BOND
M  V30 END CTAB
M  END
>  <i_epik_Tot_Q>  (1) 
-1

>  <i_epik_Tot_abs_Q>  (1) 
3

>  <i_i_glide_confnum>  (1) 
281

>  <i_i_glide_lignum>  (1) 
36

>  <i_i_glide_posenum>  (1) 
89

>  <i_i_glide_rotatable_bonds>  (1) 
10

>  <i_lp_mmshare_version>  (1) 
72125

>  <i_m_source_file_index>  (1) 
11

>  <i_f3d_flags>  (1) 
0

>  <num_sample>  (1) 
50

>  <b_lp_Chiralities_Consistent>  (1) 
1

>  <r_epik_Charging_Adjusted_Penalty>  (1) 
0.95893062563682818

>  <r_epik_Ionization_Penalty>  (1) 
0.45630296270815951

>  <r_epik_Ionization_Penalty_Charging>  (1) 
0.042165092744118775

>  <r_epik_Ionization_Penalty_Neutral>  (1) 
0.41413786996404073

>  <r_epik_State_Penalty>  (1) 
0.91676553289270946

>  <r_glide_ring_energy>  (1) 
0

>  <r_i_docking_score>  (1) 
-5.5025109673732917

>  <r_i_glide_ecoul>  (1) 
-1.3141837668118808

>  <r_i_glide_eff_state_penalty>  (1) 
0.91676553289270946

>  <r_i_glide_einternal>  (1) 
15.655298609431822

>  <r_i_glide_emodel>  (1) 
-41.012108705790226

>  <r_i_glide_emodel_strain>  (1) 
0.64593661111952372

>  <r_i_glide_energy>  (1) 
-31.797787144621925

>  <r_i_glide_erotb>  (1) 
0.66918926381983879

>  <r_i_glide_esite>  (1) 
0

>  <r_i_glide_evdw>  (1) 
-30.483603377810045

>  <r_i_glide_gscore>  (1) 
-6.4192765002660011

>  <r_i_glide_gscore_strain>  (1) 
0

>  <r_i_glide_hbond>  (1) 
-0.081993448686553103

>  <r_i_glide_ligand_efficiency>  (1) 
-0.16183855786392035

>  <r_i_glide_ligand_efficiency_ln>  (1) 
-1.2156590128975437

>  <r_i_glide_ligand_efficiency_sa>  (1) 
-0.52429410195768522

>  <r_i_glide_lipo>  (1) 
-4.9946617301388256

>  <r_i_glide_metal>  (1) 
-0

>  <r_i_glide_rewards>  (1) 
-0.29050285134817733

>  <r_lp_Energy>  (1) 
33.820101999999999

>  <s_epik_cmdline>  (1) 
J2VwaWtfcHl0aG9uJywgJy1waHQnLCAnMS4wJywgJy1waCcsICc3LjQnLCAnLXRuJywgJzgnLCAnLW1hJywgJzUwMCcsICctaW1hZScsICc8aW5maWxlLm1hZT4nLCAnLW9tYWUnLCAnPG91dGZpbGUubWFlPic=

>  <s_epik_input>  (1) 
RmMxW2NIXWMoW09IXSljKFtjSF1bY0hdMSlOMltDQEBIXShbQ0gyXVtDSDNdKVtDSDJdW0NIMl1bQ0BASF0oW0NIMl0yKVtOSF1DKD1PKVtOSF1bQ0gyXVtDQEhdKFAoPU8pKFtPSF0pW09IXSljM1tjSF1jKFtDSDNdKVtjSF1bY0hdYzNbTkgyXQ==

>  <s_glide_docking_method>  (1) 
confgen

>  <s_i_glide_gridfile>  (1) 
gpcr_5ht2c_6bqh_protein_autoprepared_prepared

>  <s_lp_Force_Field>  (1) 
S-OPLS

>  <s_lp_Variant>  (1) 
DiffSBDD_10_num_sample_50-5

>  <s_m_source_file>  (1) 
generated__ligand_DiffSBDD_2026-05-06_prepared.sdf

>  <GenAI_Model>  (1) 
DiffSBDD

>  <Protein>  (1) 
GPCR_5HT2C

$$$$
DiffSBDD_30_num_sample_50
     RDKit          3D

  0  0  0  0  0  0  0  0  0  0999 V3000
M  V30 BEGIN CTAB
M  V30 COUNTS 68 67 0 0 1
M  V30 BEGIN ATOM
M  V30 1 C 39.104562 29.993155 53.811211 0
M  V30 2 C 36.951905 33.371140 59.696332 0 CFG=2
M  V30 3 C 35.886870 34.409405 60.097181 0
M  V30 4 O 41.319143 36.364296 62.653442 0
M  V30 5 C 39.085252 36.730640 63.453634 0
M  V30 6 C 37.621773 32.228296 61.872636 0
M  V30 7 C 37.619001 26.847239 53.426377 0
M  V30 8 C 39.467283 27.899583 50.483078 0
M  V30 9 C 38.417772 32.509979 57.790548 0
M  V30 10 C 38.093931 33.191005 60.754556 0 CFG=2
M  V30 11 C 38.814024 28.959737 52.696239 0 CFG=1
M  V30 12 C 38.665980 34.549302 61.258820 0
M  V30 13 C 39.829556 28.972221 51.516134 0 CFG=2
M  V30 14 C 38.455348 30.621566 56.216374 0
M  V30 15 C 38.708652 31.304823 62.449371 0
M  V30 16 C 37.445777 33.607779 58.254800 0
M  V30 17 C 40.184910 35.913170 62.787335 0
M  V30 18 C 39.819747 34.499920 62.296743 0 CFG=2
M  V30 19 C 37.982941 30.080269 54.862079 0
M  V30 20 C 39.971566 30.345404 50.816899 0
M  V30 21 O 38.752241 32.861402 55.469373 0 CHG=-1
M  V30 22 C 41.165181 30.421467 49.865978 0
M  V30 23 N 38.118686 32.086165 56.374339 0 CFG=2 CHG=1
M  V30 24 C 41.083038 33.777368 61.786748 0
M  V30 25 C 38.745020 27.572080 53.326120 0
M  V30 26 H 40.045978 29.730031 54.292132 0
M  V30 27 H 39.242701 30.997813 53.421412 0
M  V30 28 H 36.417061 32.422714 59.620964 0
M  V30 29 H 36.275097 35.427231 60.039352 0
M  V30 30 H 35.025017 34.362510 59.430439 0
M  V30 31 H 35.525170 34.236310 61.110919 0
M  V30 32 H 38.333233 36.073443 63.885390 0
M  V30 33 H 39.508293 37.348138 64.247653 0
M  V30 34 H 38.601476 37.379063 62.723059 0
M  V30 35 H 37.127442 32.792598 62.653527 0
M  V30 36 H 36.854787 31.556375 61.490764 0
M  V30 37 H 36.679417 27.225041 53.053547 0
M  V30 38 H 37.624434 25.868273 53.882149 0
M  V30 39 H 38.667412 28.261120 49.853145 0
M  V30 40 H 40.320193 27.690331 49.853738 0
M  V30 41 H 39.163741 26.940670 50.901573 0
M  V30 42 H 38.301704 31.626691 58.416991 0
M  V30 43 H 39.460729 32.820905 57.831463 0
M  V30 44 H 38.917270 32.677571 60.266335 0
M  V30 45 H 37.832062 29.186627 52.282556 0
M  V30 46 H 38.992326 35.131028 60.395269 0
M  V30 47 H 37.850480 35.118746 61.700161 0
M  V30 48 H 40.820497 28.703245 51.865737 0
M  V30 49 H 37.908661 30.096624 57.001422 0
M  V30 50 H 39.525824 30.501924 56.389741 0
M  V30 51 H 38.268584 30.539408 63.088540 0
M  V30 52 H 39.247938 30.784281 61.658244 0
M  V30 53 H 39.436337 31.840804 63.052542 0
M  V30 54 H 37.866945 34.597276 58.138773 0
M  V30 55 H 36.584423 33.621466 57.594050 0
M  V30 56 H 39.463728 33.969317 63.176839 0
M  V30 57 H 37.137406 30.654847 54.479725 0
M  V30 58 H 37.581824 29.089460 55.059378 0
M  V30 59 H 39.067503 30.581027 50.259167 0
M  V30 60 H 40.109360 31.149376 51.534826 0
M  V30 61 H 41.232128 31.414378 49.432575 0
M  V30 62 H 42.099317 30.238241 50.395059 0
M  V30 63 H 41.071370 29.706155 49.050892 0
M  V30 64 H 41.779966 33.593103 62.604964 0
M  V30 65 H 40.865935 32.813200 61.332717 0
M  V30 66 H 41.607930 34.387663 61.054666 0
M  V30 67 H 39.671332 27.170469 53.707701 0
M  V30 68 H 37.075602 32.125533 56.286657 0
M  V30 END ATOM
M  V30 BEGIN BOND
M  V30 1 1 3 2
M  V30 2 1 10 2
M  V30 3 1 10 6
M  V30 4 1 11 1
M  V30 5 1 12 10
M  V30 6 1 13 8
M  V30 7 1 13 11
M  V30 8 1 15 6
M  V30 9 1 16 2
M  V30 10 1 16 9
M  V30 11 2 17 4
M  V30 12 1 17 5
M  V30 13 1 18 12
M  V30 14 1 18 17
M  V30 15 1 19 1
M  V30 16 1 19 14
M  V30 17 1 20 13
M  V30 18 1 22 20
M  V30 19 1 23 9
M  V30 20 1 23 14
M  V30 21 1 23 21
M  V30 22 1 24 18
M  V30 23 2 25 7
M  V30 24 1 25 11
M  V30 25 1 26 1
M  V30 26 1 27 1
M  V30 27 1 2 28 CFG=3
M  V30 28 1 29 3
M  V30 29 1 30 3
M  V30 30 1 31 3
M  V30 31 1 32 5
M  V30 32 1 33 5
M  V30 33 1 34 5
M  V30 34 1 35 6
M  V30 35 1 36 6
M  V30 36 1 37 7
M  V30 37 1 38 7
M  V30 38 1 39 8
M  V30 39 1 40 8
M  V30 40 1 41 8
M  V30 41 1 42 9
M  V30 42 1 43 9
M  V30 43 1 10 44 CFG=3
M  V30 44 1 11 45 CFG=3
M  V30 45 1 46 12
M  V30 46 1 47 12
M  V30 47 1 13 48 CFG=1
M  V30 48 1 49 14
M  V30 49 1 50 14
M  V30 50 1 51 15
M  V30 51 1 52 15
M  V30 52 1 53 15
M  V30 53 1 54 16
M  V30 54 1 55 16
M  V30 55 1 18 56 CFG=1
M  V30 56 1 57 19
M  V30 57 1 58 19
M  V30 58 1 59 20
M  V30 59 1 60 20
M  V30 60 1 61 22
M  V30 61 1 62 22
M  V30 62 1 63 22
M  V30 63 1 64 24
M  V30 64 1 65 24
M  V30 65 1 66 24
M  V30 66 1 67 25
M  V30 67 1 23 68 CFG=3
M  V30 END BOND
M  V30 END CTAB
M  END
>  <i_epik_Tot_Q>  (1) 
0

>  <i_epik_Tot_abs_Q>  (1) 
2

>  <i_i_glide_confnum>  (1) 
3286

>  <i_i_glide_lignum>  (1) 
81

>  <i_i_glide_posenum>  (1) 
333

>  <i_i_glide_rotatable_bonds>  (1) 
15

>  <i_lp_mmshare_version>  (1) 
72125

>  <i_m_source_file_index>  (1) 
31

>  <i_f3d_flags>  (1) 
0

>  <num_sample>  (1) 
50

>  <b_lp_Chiralities_Consistent>  (1) 
1

>  <r_epik_Charging_Adjusted_Penalty>  (1) 
0.52251968911758562

>  <r_epik_Ionization_Penalty>  (1) 
0.019979657236955634

>  <r_epik_Ionization_Penalty_Charging>  (1) 
0.019979657236557934

>  <r_epik_Ionization_Penalty_Neutral>  (1) 
3.9770064437045143e-13

>  <r_epik_State_Penalty>  (1) 
0.50254003188102769

>  <r_glide_ring_energy>  (1) 
0

>  <r_i_docking_score>  (1) 
-5.494000346525679

>  <r_i_glide_ecoul>  (1) 
-1.3975512606998826

>  <r_i_glide_eff_state_penalty>  (1) 
0.50254003188102769

>  <r_i_glide_einternal>  (1) 
17.04138583208352

>  <r_i_glide_emodel>  (1) 
-43.592080223279069

>  <r_i_glide_emodel_strain>  (1) 
3.210351681086653

>  <r_i_glide_energy>  (1) 
-39.67728514703802

>  <r_i_glide_erotb>  (1) 
1.833058027080513

>  <r_i_glide_esite>  (1) 
-0.10000000000000001

>  <r_i_glide_evdw>  (1) 
-38.279733886338136

>  <r_i_glide_gscore>  (1) 
-5.9965403784067064

>  <r_i_glide_gscore_strain>  (1) 
0

>  <r_i_glide_hbond>  (1) 
-0.17551773309360688

>  <r_i_glide_ligand_efficiency>  (1) 
-0.21976001386102717

>  <r_i_glide_ligand_efficiency_ln>  (1) 
-1.3022427240311851

>  <r_i_glide_ligand_efficiency_sa>  (1) 
-0.64258217867954881

>  <r_i_glide_lipo>  (1) 
-3.7145065360853882

>  <r_i_glide_metal>  (1) 
-0

>  <r_i_glide_rewards>  (1) 
-1.715954752886335

>  <r_lp_Energy>  (1) 
18.093928999999999

>  <s_epik_cmdline>  (1) 
J2VwaWtfcHl0aG9uJywgJy1waHQnLCAnMS4wJywgJy1waCcsICc3LjQnLCAnLXRuJywgJzgnLCAnLW1hJywgJzUwMCcsICctaW1hZScsICc8aW5maWxlLm1hZT4nLCAnLW9tYWUnLCAnPG91dGZpbGUubWFlPic=

>  <s_epik_input>  (1) 
W0NIM11bQ0gyXVtDQEhdKFtDSDNdKVtDQEBIXShbQ0hdPVtDSDJdKVtDSDJdW0NIMl1bQ0gyXU4oW09IXSlbQ0gyXVtDSDJdW0NASF0oW0NIM10pW0NASF0oW0NIMl1bQ0gzXSlbQ0gyXVtDQEhdKFtDSDNdKUMoPU8pW0NIM10=

>  <s_glide_docking_method>  (1) 
confgen

>  <s_i_glide_gridfile>  (1) 
gpcr_5ht2c_6bqh_protein_autoprepared_prepared

>  <s_lp_Force_Field>  (1) 
S-OPLS

>  <s_lp_Variant>  (1) 
DiffSBDD_30_num_sample_50-5

>  <s_m_source_file>  (1) 
generated__ligand_DiffSBDD_2026-05-06_prepared.sdf

>  <GenAI_Model>  (1) 
DiffSBDD

>  <Protein>  (1) 
GPCR_5HT2C

$$$$
DiffSBDD_30_num_sample_50
     RDKit          3D

  0  0  0  0  0  0  0  0  0  0999 V3000
M  V30 BEGIN CTAB
M  V30 COUNTS 68 67 0 0 1
M  V30 BEGIN ATOM
M  V30 1 C 39.305454 30.836917 53.447019 0
M  V30 2 C 37.643197 32.106549 60.577846 0 CFG=2
M  V30 3 C 37.557520 30.844168 61.445859 0
M  V30 4 O 37.467370 37.343979 59.555546 0
M  V30 5 C 36.363431 38.326516 61.453502 0
M  V30 6 C 35.460923 33.296630 61.429160 0
M  V30 7 C 37.985856 27.479874 53.744759 0
M  V30 8 C 39.588145 28.050373 50.675830 0
M  V30 9 C 38.029535 30.992224 58.291422 0
M  V30 10 C 37.007019 33.355808 61.246540 0 CFG=2
M  V30 11 C 39.052736 29.516367 52.683470 0 CFG=1
M  V30 12 C 37.512564 34.677338 60.600832 0
M  V30 13 C 40.025358 29.282907 51.484187 0 CFG=2
M  V30 14 C 38.588468 30.658490 55.903025 0
M  V30 15 C 34.585052 33.563141 60.184903 0
M  V30 16 C 37.099787 31.831190 59.171344 0
M  V30 17 C 37.105700 37.211845 60.723903 0
M  V30 18 C 37.387815 35.924405 61.512341 0 CFG=2
M  V30 19 C 38.267628 31.211055 54.510239 0
M  V30 20 C 40.167785 30.511134 50.548968 0
M  V30 21 O 38.667397 32.786086 56.911274 0 CHG=-1
M  V30 22 C 41.353044 30.421399 49.595916 0
M  V30 23 N 38.010292 31.600920 56.918699 0 CFG=2 CHG=1
M  V30 24 C 38.638745 36.125019 62.388351 0
M  V30 25 C 39.011588 28.341859 53.652906 0
M  V30 26 H 40.315749 30.868550 53.856809 0
M  V30 27 H 39.245156 31.670100 52.756087 0
M  V30 28 H 38.706996 32.326982 60.479820 0
M  V30 29 H 36.541714 30.455103 61.453453 0
M  V30 30 H 38.201557 30.058458 61.049480 0
M  V30 31 H 37.870834 31.033272 62.472669 0
M  V30 32 H 36.880353 39.276522 61.317208 0
M  V30 33 H 35.353837 38.423139 61.054312 0
M  V30 34 H 36.297974 38.120306 62.521625 0
M  V30 35 H 35.176759 32.334158 61.853434 0
M  V30 36 H 35.176342 34.025086 62.189271 0
M  V30 37 H 37.114616 27.579512 53.113992 0
M  V30 38 H 38.006998 26.664487 54.452614 0
M  V30 39 H 38.600519 28.206755 50.253520 0
M  V30 40 H 40.267387 27.850737 49.853502 0
M  V30 41 H 39.550150 27.146200 51.281543 0
M  V30 42 H 37.668987 29.965818 58.218940 0
M  V30 43 H 39.067400 30.990028 58.622900 0
M  V30 44 H 37.419485 33.341399 62.253400 0
M  V30 45 H 38.055363 29.577974 52.258431 0
M  V30 46 H 38.560280 34.572477 60.316273 0
M  V30 47 H 37.000528 34.834506 59.652710 0
M  V30 48 H 41.025566 29.073820 51.853494 0
M  V30 49 H 38.137807 29.676904 56.053830 0
M  V30 50 H 39.659484 30.608103 56.104336 0
M  V30 51 H 33.534989 33.621424 60.462561 0
M  V30 52 H 34.833366 34.499867 59.690381 0
M  V30 53 H 34.636758 32.777040 59.437923 0
M  V30 54 H 36.886537 32.780875 58.680856 0
M  V30 55 H 36.146279 31.307968 59.227109 0
M  V30 56 H 36.530858 35.781264 62.169004 0
M  V30 57 H 38.239546 32.301989 54.546023 0
M  V30 58 H 37.259320 30.919281 54.216916 0
M  V30 59 H 39.245564 30.698617 50.000038 0
M  V30 60 H 40.374888 31.414261 51.112131 0
M  V30 61 H 41.467703 31.351921 49.053554 0
M  V30 62 H 42.267407 30.280168 50.165727 0
M  V30 63 H 41.240315 29.621435 48.864480 0
M  V30 64 H 38.485684 36.915491 63.123428 0
M  V30 65 H 38.895779 35.221422 62.938005 0
M  V30 66 H 39.506737 36.394282 61.784598 0
M  V30 67 H 39.867368 28.215913 54.298319 0
M  V30 68 H 36.988452 31.696211 56.679711 0
M  V30 END ATOM
M  V30 BEGIN BOND
M  V30 1 1 3 2
M  V30 2 1 10 2
M  V30 3 1 10 6
M  V30 4 1 11 1
M  V30 5 1 12 10
M  V30 6 1 13 8
M  V30 7 1 13 11
M  V30 8 1 15 6
M  V30 9 1 16 2
M  V30 10 1 16 9
M  V30 11 2 17 4
M  V30 12 1 17 5
M  V30 13 1 18 12
M  V30 14 1 18 17
M  V30 15 1 19 1
M  V30 16 1 19 14
M  V30 17 1 20 13
M  V30 18 1 22 20
M  V30 19 1 23 9
M  V30 20 1 23 14
M  V30 21 1 23 21
M  V30 22 1 24 18
M  V30 23 2 25 7
M  V30 24 1 25 11
M  V30 25 1 26 1
M  V30 26 1 27 1
M  V30 27 1 2 28 CFG=3
M  V30 28 1 29 3
M  V30 29 1 30 3
M  V30 30 1 31 3
M  V30 31 1 32 5
M  V30 32 1 33 5
M  V30 33 1 34 5
M  V30 34 1 35 6
M  V30 35 1 36 6
M  V30 36 1 37 7
M  V30 37 1 38 7
M  V30 38 1 39 8
M  V30 39 1 40 8
M  V30 40 1 41 8
M  V30 41 1 42 9
M  V30 42 1 43 9
M  V30 43 1 10 44 CFG=1
M  V30 44 1 11 45 CFG=3
M  V30 45 1 46 12
M  V30 46 1 47 12
M  V30 47 1 13 48 CFG=1
M  V30 48 1 49 14
M  V30 49 1 50 14
M  V30 50 1 51 15
M  V30 51 1 52 15
M  V30 52 1 53 15
M  V30 53 1 54 16
M  V30 54 1 55 16
M  V30 55 1 18 56 CFG=1
M  V30 56 1 57 19
M  V30 57 1 58 19
M  V30 58 1 59 20
M  V30 59 1 60 20
M  V30 60 1 61 22
M  V30 61 1 62 22
M  V30 62 1 63 22
M  V30 63 1 64 24
M  V30 64 1 65 24
M  V30 65 1 66 24
M  V30 66 1 67 25
M  V30 67 1 23 68 CFG=3
M  V30 END BOND
M  V30 END CTAB
M  END
>  <i_epik_Tot_Q>  (1) 
0

>  <i_epik_Tot_abs_Q>  (1) 
2

>  <i_i_glide_confnum>  (1) 
2251

>  <i_i_glide_lignum>  (1) 
81

>  <i_i_glide_posenum>  (1) 
126

>  <i_i_glide_rotatable_bonds>  (1) 
15

>  <i_lp_mmshare_version>  (1) 
72125

>  <i_m_source_file_index>  (1) 
31

>  <i_f3d_flags>  (1) 
0

>  <num_sample>  (1) 
50

>  <b_lp_Chiralities_Consistent>  (1) 
1

>  <r_epik_Charging_Adjusted_Penalty>  (1) 
0.52251968911758562

>  <r_epik_Ionization_Penalty>  (1) 
0.019979657236955634

>  <r_epik_Ionization_Penalty_Charging>  (1) 
0.019979657236557934

>  <r_epik_Ionization_Penalty_Neutral>  (1) 
3.9770064437045143e-13

>  <r_epik_State_Penalty>  (1) 
0.50254003188102769

>  <r_glide_ring_energy>  (1) 
0

>  <r_i_docking_score>  (1) 
-5.4481572046524143

>  <r_i_glide_ecoul>  (1) 
-3.2763633207683598

>  <r_i_glide_eff_state_penalty>  (1) 
0.50254003188102769

>  <r_i_glide_einternal>  (1) 
12.288381829609309

>  <r_i_glide_emodel>  (1) 
-47.00798225279275

>  <r_i_glide_emodel_strain>  (1) 
1.4732781780573916

>  <r_i_glide_energy>  (1) 
-39.099223048614164

>  <r_i_glide_erotb>  (1) 
1.833058027080513

>  <r_i_glide_esite>  (1) 
-0.10000000000000001

>  <r_i_glide_evdw>  (1) 
-35.822859727845803

>  <r_i_glide_gscore>  (1) 
-5.9506972365334416

>  <r_i_glide_gscore_strain>  (1) 
0

>  <r_i_glide_hbond>  (1) 
-0.16

>  <r_i_glide_ligand_efficiency>  (1) 
-0.21792628818609658

>  <r_i_glide_ligand_efficiency_ln>  (1) 
-1.291376525599119

>  <r_i_glide_ligand_efficiency_sa>  (1) 
-0.63722033227903541

>  <r_i_glide_lipo>  (1) 
-3.1276055014628623

>  <r_i_glide_metal>  (1) 
-0

>  <r_i_glide_rewards>  (1) 
-2.1135522776435471

>  <r_lp_Energy>  (1) 
18.093928999999999

>  <s_epik_cmdline>  (1) 
J2VwaWtfcHl0aG9uJywgJy1waHQnLCAnMS4wJywgJy1waCcsICc3LjQnLCAnLXRuJywgJzgnLCAnLW1hJywgJzUwMCcsICctaW1hZScsICc8aW5maWxlLm1hZT4nLCAnLW9tYWUnLCAnPG91dGZpbGUubWFlPic=

>  <s_epik_input>  (1) 
W0NIM11bQ0gyXVtDQEhdKFtDSDNdKVtDQEBIXShbQ0hdPVtDSDJdKVtDSDJdW0NIMl1bQ0gyXU4oW09IXSlbQ0gyXVtDSDJdW0NASF0oW0NIM10pW0NASF0oW0NIMl1bQ0gzXSlbQ0gyXVtDQEhdKFtDSDNdKUMoPU8pW0NIM10=

>  <s_glide_docking_method>  (1) 
confgen

>  <s_i_glide_gridfile>  (1) 
gpcr_5ht2c_6bqh_protein_autoprepared_prepared

>  <s_lp_Force_Field>  (1) 
S-OPLS

>  <s_lp_Variant>  (1) 
DiffSBDD_30_num_sample_50-5

>  <s_m_source_file>  (1) 
generated__ligand_DiffSBDD_2026-05-06_prepared.sdf

>  <GenAI_Model>  (1) 
DiffSBDD

>  <Protein>  (1) 
GPCR_5HT2C

$$$$
DiffSBDD_5_num_sample_50
     RDKit          3D

  0  0  0  0  0  0  0  0  0  0999 V3000
M  V30 BEGIN CTAB
M  V30 COUNTS 80 82 0 0 1
M  V30 BEGIN ATOM
M  V30 1 C 38.123165 30.275130 58.903117 0
M  V30 2 C 38.538345 30.899433 56.513554 0 CFG=2
M  V30 3 N 39.848996 36.225219 63.412864 0
M  V30 4 F 37.494286 24.820289 58.253442 0
M  V30 5 C 38.538044 32.177574 61.671058 0
M  V30 6 N 38.770325 30.321944 60.025390 0 CHG=1
M  V30 7 C 40.521841 33.440502 62.754566 0 CFG=1
M  V30 8 C 38.088627 24.422294 56.063401 0 CFG=2
M  V30 9 C 39.359954 31.419827 54.155565 0
M  V30 10 C 37.974069 30.842677 61.155244 0 CFG=2
M  V30 11 N 36.893247 30.674618 59.028650 0
M  V30 12 C 38.130002 32.283469 53.903716 0
M  V30 13 C 38.892498 28.094196 55.826699 0 CFG=2
M  V30 14 C 39.874923 30.826479 52.829962 0
M  V30 15 N 37.467369 26.400991 54.780665 0 CHG=1
M  V30 16 C 40.951679 36.023734 62.472352 0
M  V30 17 C 39.067573 32.265917 57.009409 0
M  V30 18 C 36.539794 31.067736 60.405837 0
M  V30 19 C 38.738332 29.818829 57.609750 0 CFG=2
M  V30 20 C 36.917704 25.257914 55.529476 0
M  V30 21 O 37.756304 36.907770 63.889595 0
M  V30 22 C 37.848327 23.833347 57.448044 0
M  V30 23 C 38.543628 37.417405 61.691621 0
M  V30 24 C 38.685048 36.821435 63.094263 0
M  V30 25 S 39.545039 25.483989 56.123714 0
M  V30 26 C 38.216435 28.427469 57.176350 0
M  V30 27 C 38.532949 29.152301 54.790432 0
M  V30 28 C 41.721551 33.377027 64.820961 0
M  V30 29 O 41.719150 33.077798 63.433392 0
M  V30 30 O 40.047494 34.716055 60.674864 0
M  V30 31 N 39.160175 30.419552 55.232425 0 CFG=2 CHG=1
M  V30 32 C 40.883747 34.625578 61.809104 0 CFG=2
M  V30 33 N 38.785037 26.742438 55.290007 0
M  V30 34 C 40.032640 32.147657 62.065067 0
M  V30 35 H 37.467708 31.016138 56.345220 0
M  V30 36 H 39.960034 35.855764 64.344748 0
M  V30 37 H 37.949229 32.476372 62.539941 0
M  V30 38 H 38.351302 32.944273 60.922040 0
M  V30 39 H 39.738024 33.722242 63.453402 0
M  V30 40 H 38.267990 23.622044 55.348944 0
M  V30 41 H 40.173085 32.021306 54.531977 0
M  V30 42 H 37.926117 30.102683 61.954832 0
M  V30 43 H 36.239139 30.772443 58.250152 0
M  V30 44 H 38.267417 32.821063 52.967295 0
M  V30 45 H 37.238527 31.661245 53.853573 0
M  V30 46 H 37.947767 33.043956 54.655349 0
M  V30 47 H 39.967769 28.185336 55.995382 0
M  V30 48 H 40.266622 31.606781 52.176848 0
M  V30 49 H 40.667259 30.107971 53.002102 0
M  V30 50 H 39.092684 30.313067 52.273098 0
M  V30 51 H 36.876363 27.215059 54.859325 0
M  V30 52 H 41.860196 36.069657 63.073955 0
M  V30 53 H 41.071850 36.819386 61.737113 0
M  V30 54 H 39.066986 32.328655 58.096845 0
M  V30 55 H 40.074234 32.474327 56.654652 0
M  V30 56 H 38.438245 33.092314 56.684653 0
M  V30 57 H 35.757498 30.421856 60.799610 0
M  V30 58 H 36.197642 32.101986 60.437915 0
M  V30 59 H 39.812187 29.723640 57.782140 0
M  V30 60 H 36.267334 24.660128 54.893618 0
M  V30 61 H 36.306589 25.655770 56.338565 0
M  V30 62 H 37.063143 23.085976 57.451002 0
M  V30 63 H 38.747785 23.369424 57.853350 0
M  V30 64 H 39.320876 38.154317 61.492361 0
M  V30 65 H 38.547905 36.656896 60.916081 0
M  V30 66 H 37.589248 37.940003 61.615312 0
M  V30 67 H 38.461372 27.683445 57.935374 0
M  V30 68 H 37.132437 28.450593 57.090793 0
M  V30 69 H 38.910250 28.802020 53.833262 0
M  V30 70 H 37.455259 29.280497 54.676555 0
M  V30 71 H 42.669017 33.065728 65.261267 0
M  V30 72 H 41.606082 34.446325 64.996915 0
M  V30 73 H 40.918433 32.850263 65.339143 0
M  V30 74 H 40.043925 33.881229 60.234943 0
M  V30 75 H 41.867360 34.414439 61.400035 0
M  V30 76 H 40.666046 31.930038 61.204991 0
M  V30 77 H 40.172000 31.319224 62.761611 0
M  V30 78 H 37.597605 26.145651 53.809674 0
M  V30 79 H 39.733901 30.037995 60.133200 0
M  V30 80 H 40.105733 30.163900 55.478111 0
M  V30 END ATOM
M  V30 BEGIN BOND
M  V30 1 2 6 1
M  V30 2 1 10 5
M  V30 3 1 10 6
M  V30 4 1 11 1
M  V30 5 1 12 9
M  V30 6 1 14 9
M  V30 7 1 16 3
M  V30 8 1 17 2
M  V30 9 1 18 10
M  V30 10 1 18 11
M  V30 11 1 19 1
M  V30 12 1 19 2
M  V30 13 1 20 8
M  V30 14 1 20 15
M  V30 15 1 22 4
M  V30 16 1 22 8
M  V30 17 1 24 3
M  V30 18 2 24 21
M  V30 19 1 24 23
M  V30 20 1 25 8
M  V30 21 1 26 13
M  V30 22 1 26 19
M  V30 23 1 27 13
M  V30 24 1 29 7
M  V30 25 1 29 28
M  V30 26 1 31 2
M  V30 27 1 31 9
M  V30 28 1 31 27
M  V30 29 1 32 7
M  V30 30 1 32 16
M  V30 31 1 32 30
M  V30 32 1 33 13
M  V30 33 1 33 15
M  V30 34 1 33 25
M  V30 35 1 34 5
M  V30 36 1 34 7
M  V30 37 1 2 35 CFG=3
M  V30 38 1 36 3
M  V30 39 1 37 5
M  V30 40 1 38 5
M  V30 41 1 7 39 CFG=1
M  V30 42 1 8 40 CFG=3
M  V30 43 1 41 9
M  V30 44 1 10 42 CFG=1
M  V30 45 1 43 11
M  V30 46 1 44 12
M  V30 47 1 45 12
M  V30 48 1 46 12
M  V30 49 1 13 47 CFG=1
M  V30 50 1 48 14
M  V30 51 1 49 14
M  V30 52 1 50 14
M  V30 53 1 51 15
M  V30 54 1 52 16
M  V30 55 1 53 16
M  V30 56 1 54 17
M  V30 57 1 55 17
M  V30 58 1 56 17
M  V30 59 1 57 18
M  V30 60 1 58 18
M  V30 61 1 19 59 CFG=1
M  V30 62 1 60 20
M  V30 63 1 61 20
M  V30 64 1 62 22
M  V30 65 1 63 22
M  V30 66 1 64 23
M  V30 67 1 65 23
M  V30 68 1 66 23
M  V30 69 1 67 26
M  V30 70 1 68 26
M  V30 71 1 69 27
M  V30 72 1 70 27
M  V30 73 1 71 28
M  V30 74 1 72 28
M  V30 75 1 73 28
M  V30 76 1 74 30
M  V30 77 1 32 75 CFG=3
M  V30 78 1 76 34
M  V30 79 1 77 34
M  V30 80 1 78 15
M  V30 81 1 79 6
M  V30 82 1 31 80 CFG=1
M  V30 END BOND
M  V30 END CTAB
M  END
>  <i_epik_Tot_Q>  (1) 
3

>  <i_epik_Tot_abs_Q>  (1) 
3

>  <i_i_glide_confnum>  (1) 
681

>  <i_i_glide_lignum>  (1) 
15

>  <i_i_glide_posenum>  (1) 
315

>  <i_i_glide_rotatable_bonds>  (1) 
13

>  <i_lp_mmshare_version>  (1) 
72125

>  <i_m_source_file_index>  (1) 
6

>  <i_f3d_flags>  (1) 
0

>  <num_sample>  (1) 
50

>  <b_lp_Chiralities_Consistent>  (1) 
1

>  <r_epik_Charging_Adjusted_Penalty>  (1) 
0.16301919670703535

>  <r_epik_Ionization_Penalty>  (1) 
0.082191666583868089

>  <r_epik_Ionization_Penalty_Charging>  (1) 
0.082191230012028396

>  <r_epik_Ionization_Penalty_Neutral>  (1) 
4.3657183969654913e-07

>  <r_epik_State_Penalty>  (1) 
0.080827966695006942

>  <r_glide_ring_energy>  (1) 
0

>  <r_i_docking_score>  (1) 
-5.4234691300581526

>  <r_i_glide_ecoul>  (1) 
-1.6723112946910987

>  <r_i_glide_eff_state_penalty>  (1) 
0.080827966695006942

>  <r_i_glide_einternal>  (1) 
10.520519981916042

>  <r_i_glide_emodel>  (1) 
-51.016661111668071

>  <r_i_glide_emodel_strain>  (1) 
3.2505138950251506

>  <r_i_glide_energy>  (1) 
-39.142098604172574

>  <r_i_glide_erotb>  (1) 
0.63983490757673345

>  <r_i_glide_esite>  (1) 
-0.12526253043197341

>  <r_i_glide_evdw>  (1) 
-37.469787309481475

>  <r_i_glide_gscore>  (1) 
-5.5042970967531595

>  <r_i_glide_gscore_strain>  (1) 
0

>  <r_i_glide_hbond>  (1) 
-0.20000000000000001

>  <r_i_glide_ligand_efficiency>  (1) 
-0.15951379794288684

>  <r_i_glide_ligand_efficiency_ln>  (1) 
-1.1981964539861893

>  <r_i_glide_ligand_efficiency_sa>  (1) 
-0.51676278228236827

>  <r_i_glide_lipo>  (1) 
-3.8327203824335738

>  <r_i_glide_metal>  (1) 
-0

>  <r_i_glide_rewards>  (1) 
0.13818696821339338

>  <r_lp_Energy>  (1) 
42.756794999999997

>  <s_epik_Chemistry_Notes>  (1) 
This compound has an imine and may undergo hydrolysis. This compound has a N-S or N-O group and may undergo hydrolysis at high or low pH.

>  <s_epik_cmdline>  (1) 
J2VwaWtfcHl0aG9uJywgJy1waHQnLCAnMS4wJywgJy1waCcsICc3LjQnLCAnLXRuJywgJzgnLCAnLW1hJywgJzUwMCcsICctaW1hZScsICc8aW5maWxlLm1hZT4nLCAnLW9tYWUnLCAnPG91dGZpbGUubWFlPic=

>  <s_epik_input>  (1) 
RltDSDJdW0NASF0xW0NIMl1bTkhdTihTMSlbQ0BASF0oW0NIMl1OMltDSF0oW0NIM10pW0NIM10pW0NIMl1bQ0BASF0oW0NASF0yW0NIM10pQzM9TltDQEhdKFtDSDJdW05IXTMpW0NIMl1bQ0gyXVtDQEBIXShPW0NIM10pW0NAQEhdKFtPSF0pW0NIMl1bTkhdQyg9TylbQ0gzXQ==

>  <s_glide_docking_method>  (1) 
confgen

>  <s_i_glide_gridfile>  (1) 
gpcr_5ht2c_6bqh_protein_autoprepared_prepared

>  <s_lp_Force_Field>  (1) 
S-OPLS

>  <s_lp_Variant>  (1) 
DiffSBDD_5_num_sample_50-2

>  <s_m_source_file>  (1) 
generated__ligand_DiffSBDD_2026-05-06_prepared.sdf

>  <GenAI_Model>  (1) 
DiffSBDD

>  <Protein>  (1) 
GPCR_5HT2C

$$$$
DiffSBDD_11_num_sample_50
     RDKit          3D

  0  0  0  0  0  0  0  0  0  0999 V3000
M  V30 BEGIN CTAB
M  V30 COUNTS 37 39 0 0 1
M  V30 BEGIN ATOM
M  V30 1 C 37.296982 24.232440 56.748243 0
M  V30 2 C 38.573115 29.109118 53.595133 0 CFG=2
M  V30 3 C 39.731142 28.508157 51.430044 0 CFG=2
M  V30 4 O 37.867408 30.256648 54.018488 0
M  V30 5 C 38.458071 28.918773 52.078633 0 CFG=1
M  V30 6 C 38.900658 25.486214 55.291836 0 CFG=1
M  V30 7 C 38.893911 26.593145 54.212555 0
M  V30 8 C 36.529203 23.323519 55.777071 0
M  V30 9 C 38.470324 28.012740 54.657449 0 CFG=1
M  V30 10 N 39.134649 28.439035 55.931150 0 CHG=1
M  V30 11 O 38.617165 27.612201 51.471114 0
M  V30 12 O 40.267403 28.895027 55.853509 0 CHG=-1
M  V30 13 O 38.500786 28.297904 56.972108 0
M  V30 14 C 40.162573 25.496171 56.170305 0
M  V30 15 C 39.738443 29.410099 52.658656 0 CFG=2
M  V30 16 C 40.263821 30.832358 52.564220 0
M  V30 17 O 39.867402 29.216894 50.215808 0
M  V30 18 N 37.664844 25.512138 56.110117 0 CHG=1
M  V30 19 H 38.173529 23.728690 57.154725 0
M  V30 20 H 36.667397 24.461459 57.606117 0
M  V30 21 H 38.401676 30.756369 54.619985 0
M  V30 22 H 38.918817 24.545215 54.740902 0
M  V30 23 H 39.872056 26.628556 53.732715 0
M  V30 24 H 38.192808 26.271170 53.443076 0
M  V30 25 H 36.267395 22.378710 56.253630 0
M  V30 26 H 37.111754 23.088317 54.886115 0
M  V30 27 H 35.599554 23.789117 55.450939 0
M  V30 28 H 37.417379 27.959567 54.931719 0
M  V30 29 H 41.055359 25.621431 55.556613 0
M  V30 30 H 40.267392 24.558412 56.715190 0
M  V30 31 H 40.168599 26.287704 56.916591 0
M  V30 32 H 41.067402 30.907017 51.831435 0
M  V30 33 H 40.647124 31.153129 53.533014 0
M  V30 34 H 39.472734 31.519101 52.261795 0
M  V30 35 H 39.018182 29.541831 49.947281 0
M  V30 36 H 36.888736 25.790781 55.526622 0
M  V30 37 H 37.786220 26.213074 56.830984 0
M  V30 END ATOM
M  V30 BEGIN BOND
M  V30 1 1 2 4 CFG=1
M  V30 2 1 5 2
M  V30 3 1 5 3
M  V30 4 1 7 6
M  V30 5 1 8 1
M  V30 6 1 9 2
M  V30 7 1 9 7
M  V30 8 1 10 9
M  V30 9 1 11 3
M  V30 10 1 5 11 CFG=3
M  V30 11 1 12 10
M  V30 12 2 13 10
M  V30 13 1 14 6
M  V30 14 1 15 2
M  V30 15 1 15 3
M  V30 16 1 15 5
M  V30 17 1 15 16 CFG=3
M  V30 18 1 3 17 CFG=3
M  V30 19 1 18 1
M  V30 20 1 18 6
M  V30 21 1 19 1
M  V30 22 1 20 1
M  V30 23 1 21 4
M  V30 24 1 6 22 CFG=3
M  V30 25 1 23 7
M  V30 26 1 24 7
M  V30 27 1 25 8
M  V30 28 1 26 8
M  V30 29 1 27 8
M  V30 30 1 9 28 CFG=1
M  V30 31 1 29 14
M  V30 32 1 30 14
M  V30 33 1 31 14
M  V30 34 1 32 16
M  V30 35 1 33 16
M  V30 36 1 34 16
M  V30 37 1 35 17
M  V30 38 1 36 18
M  V30 39 1 37 18
M  V30 END BOND
M  V30 END CTAB
M  END
>  <i_epik_Tot_Q>  (1) 
1

>  <i_epik_Tot_abs_Q>  (1) 
3

>  <i_i_glide_confnum>  (1) 
14

>  <i_i_glide_lignum>  (1) 
38

>  <i_i_glide_posenum>  (1) 
155

>  <i_i_glide_rotatable_bonds>  (1) 
8

>  <i_lp_mmshare_version>  (1) 
72125

>  <i_m_source_file_index>  (1) 
12

>  <i_f3d_flags>  (1) 
2

>  <num_sample>  (1) 
50

>  <b_lp_Chiralities_Consistent>  (1) 
0

>  <r_epik_Charging_Adjusted_Penalty>  (1) 
0.0033658080042713689

>  <r_epik_Ionization_Penalty>  (1) 
0.035780381166706003

>  <r_epik_Ionization_Penalty_Charging>  (1) 
0.0033658080042713689

>  <r_epik_Ionization_Penalty_Neutral>  (1) 
0.032414573162434637

>  <r_epik_State_Penalty>  (1) 
-0

>  <r_glide_ring_energy>  (1) 
0

>  <r_i_docking_score>  (1) 
-5.4042067973814314

>  <r_i_glide_ecoul>  (1) 
-1.2871799983430605

>  <r_i_glide_eff_state_penalty>  (1) 
-0

>  <r_i_glide_einternal>  (1) 
3.7207184010651373

>  <r_i_glide_emodel>  (1) 
-39.40587543076515

>  <r_i_glide_emodel_strain>  (1) 
0.24370256215112107

>  <r_i_glide_energy>  (1) 
-27.794452136764651

>  <r_i_glide_erotb>  (1) 
1.0519887520240689

>  <r_i_glide_esite>  (1) 
0

>  <r_i_glide_evdw>  (1) 
-26.507272138421591

>  <r_i_glide_gscore>  (1) 
-5.4042067973814314

>  <r_i_glide_gscore_strain>  (1) 
0

>  <r_i_glide_hbond>  (1) 
-0.28755253772155004

>  <r_i_glide_ligand_efficiency>  (1) 
-0.30023371096563506

>  <r_i_glide_ligand_efficiency_ln>  (1) 
-1.38912349093957

>  <r_i_glide_ligand_efficiency_sa>  (1) 
-0.7868349142645894

>  <r_i_glide_lipo>  (1) 
-2.4589602231932308

>  <r_i_glide_metal>  (1) 
-0

>  <r_i_glide_rewards>  (1) 
-2.1912421818181818

>  <r_lp_Energy>  (1) 
94.058552999999989

>  <r_lp_tautomer_probability>  (1) 
1

>  <s_epik_cmdline>  (1) 
J2VwaWtfcHl0aG9uJywgJy1waHQnLCAnMS4wJywgJy1waCcsICc3LjQnLCAnLXRuJywgJzgnLCAnLW1hJywgJzUwMCcsICctaW1hZScsICc8aW5maWxlLm1hZT4nLCAnLW9tYWUnLCAnPG91dGZpbGUubWFlPic=

>  <s_epik_input>  (1) 
W0NIM11bQ0gyXVtOSF1bQ0BIXShbQ0gzXSlbQ0gyXVtDQEBIXShbTitdKFtPLV0pPU8pW0NAXTEoW09IXSlDMihbQ0gzXSlDKFtDQEBdMTIzKShPMylbT0hd

>  <s_glide_docking_method>  (1) 
confgen

>  <s_i_glide_gridfile>  (1) 
gpcr_5ht2c_6bqh_protein_autoprepared_prepared

>  <s_lp_Force_Field>  (1) 
S-OPLS

>  <s_lp_Variant>  (1) 
DiffSBDD_11_num_sample_50-1

>  <s_m_source_file>  (1) 
generated__ligand_DiffSBDD_2026-05-06_prepared.sdf

>  <GenAI_Model>  (1) 
DiffSBDD

>  <Protein>  (1) 
GPCR_5HT2C

$$$$
DiffSBDD_3_num_sample_50
     RDKit          3D

  0  0  0  0  0  0  0  0  0  0999 V3000
M  V30 BEGIN CTAB
M  V30 COUNTS 73 76 0 0 1
M  V30 BEGIN ATOM
M  V30 1 C 39.845648 30.676717 56.727761 0
M  V30 2 N 37.876210 23.968377 57.815893 0
M  V30 3 C 40.247483 28.148513 56.581346 0
M  V30 4 C 38.020991 32.293945 61.702786 0 CFG=2
M  V30 5 C 35.099714 32.390214 60.016143 0
M  V30 6 S 39.061140 29.226207 51.788898 0
M  V30 7 C 38.612967 28.003563 58.341001 0
M  V30 8 C 37.481112 24.939365 57.348504 0
M  V30 9 C 40.517162 30.035341 62.604631 0
M  V30 10 C 40.064288 27.810023 51.485962 0 CFG=1
M  V30 11 C 39.451853 32.082480 61.585920 0 CFG=2
M  V30 12 C 39.939540 29.460110 55.856703 0
M  V30 13 C 37.922641 30.569189 58.324740 0 CFG=2
M  V30 14 C 36.371572 31.635431 59.861608 0
M  V30 15 C 37.187325 31.201616 61.053213 0
M  V30 16 C 39.674296 26.747535 52.503959 0
M  V30 17 N 39.056872 27.449100 57.061592 0
M  V30 18 C 36.958547 26.167761 56.761293 0
M  V30 19 O 38.946110 33.215903 60.944090 0
M  V30 20 C 38.488498 26.458203 54.761924 0
M  V30 21 C 38.043452 28.433258 53.057848 0
M  V30 22 C 37.991145 27.104151 56.085597 0 CFG=2
M  V30 23 C 40.969658 33.736264 62.682494 0
M  V30 24 C 35.201837 33.530099 61.008453 0
M  V30 25 N 36.742737 31.334357 58.663742 0 CHG=1
M  V30 26 C 40.721033 31.446396 62.099552 0 CFG=1
M  V30 27 C 38.501638 31.216488 57.057564 0 CFG=2
M  V30 28 C 37.507110 29.086994 58.271634 0
M  V30 29 C 39.013503 27.418894 53.681471 0 CFG=2
M  V30 30 O 37.740374 31.240087 55.871370 0
M  V30 31 N 40.132616 32.542042 62.815409 0
M  V30 32 F 39.838041 27.378949 50.260830 0
M  V30 33 O 41.736993 29.517044 63.069062 0
M  V30 34 H 40.287952 30.424038 57.674595 0
M  V30 35 H 40.305060 31.504629 56.202340 0
M  V30 36 H 40.979915 28.316434 57.372187 0
M  V30 37 H 40.763175 27.483706 55.889726 0
M  V30 38 H 37.614888 32.720663 62.619070 0
M  V30 39 H 34.787645 32.793616 59.053223 0
M  V30 40 H 39.465634 28.337755 58.934601 0
M  V30 41 H 38.227928 27.150428 58.896826 0
M  V30 42 H 40.171875 29.407754 61.781372 0
M  V30 43 H 39.748349 30.003710 63.376859 0
M  V30 44 H 41.105496 28.092674 51.569365 0
M  V30 45 H 40.744974 29.635882 55.152218 0
M  V30 46 H 39.045829 29.393002 55.269269 0
M  V30 47 H 38.671784 30.723588 59.100501 0
M  V30 48 H 34.316884 31.697347 60.295335 0
M  V30 49 H 37.815421 30.331950 60.860349 0
M  V30 50 H 40.479059 26.085169 52.813506 0
M  V30 51 H 38.931377 26.156430 52.029829 0
M  V30 52 H 36.447309 26.658680 57.578510 0
M  V30 53 H 36.195234 25.853476 56.050522 0
M  V30 54 H 39.261586 25.716088 54.972525 0
M  V30 55 H 37.661259 25.925791 54.287202 0
M  V30 56 H 37.189459 27.950126 52.585200 0
M  V30 57 H 37.634492 29.211428 53.710553 0
M  V30 58 H 37.467004 28.011333 55.785760 0
M  V30 59 H 40.501718 34.592629 63.171921 0
M  V30 60 H 41.932088 33.565534 63.170372 0
M  V30 61 H 41.169753 34.007368 61.645423 0
M  V30 62 H 34.253981 34.032814 60.959648 0
M  V30 63 H 35.325941 33.201200 62.033506 0
M  V30 64 H 35.968712 34.264075 60.761326 0
M  V30 65 H 36.491495 30.837461 61.796502 0
M  V30 66 H 41.651505 31.690362 61.592461 0
M  V30 67 H 38.668557 32.265397 57.319004 0
M  V30 68 H 36.910713 28.929668 59.168227 0
M  V30 69 H 36.787980 28.954077 57.471696 0
M  V30 70 H 39.872744 27.920831 54.065767 0
M  V30 71 H 37.213645 30.459419 55.826696 0
M  V30 72 H 41.930420 29.916189 63.903965 0
M  V30 73 H 36.113069 31.621177 57.853522 0
M  V30 END ATOM
M  V30 BEGIN BOND
M  V30 1 3 8 2
M  V30 2 1 10 6
M  V30 3 1 11 4
M  V30 4 1 12 1
M  V30 5 1 12 3
M  V30 6 1 14 5
M  V30 7 1 15 4
M  V30 8 1 15 14
M  V30 9 1 16 10
M  V30 10 1 17 3
M  V30 11 1 17 7
M  V30 12 1 18 8
M  V30 13 1 19 4
M  V30 14 1 11 19 CFG=1
M  V30 15 1 21 6
M  V30 16 1 22 17
M  V30 17 1 22 18
M  V30 18 1 22 20
M  V30 19 1 24 5
M  V30 20 1 25 13
M  V30 21 2 25 14
M  V30 22 1 26 9
M  V30 23 1 26 11
M  V30 24 1 27 1
M  V30 25 1 27 13
M  V30 26 1 28 7
M  V30 27 1 28 13
M  V30 28 1 29 16
M  V30 29 1 29 20
M  V30 30 1 29 21
M  V30 31 1 30 27
M  V30 32 1 31 11
M  V30 33 1 31 23
M  V30 34 1 31 26
M  V30 35 1 32 10
M  V30 36 1 33 9
M  V30 37 1 34 1
M  V30 38 1 35 1
M  V30 39 1 36 3
M  V30 40 1 37 3
M  V30 41 1 4 38 CFG=1
M  V30 42 1 39 5
M  V30 43 1 40 7
M  V30 44 1 41 7
M  V30 45 1 42 9
M  V30 46 1 43 9
M  V30 47 1 10 44 CFG=3
M  V30 48 1 45 12
M  V30 49 1 46 12
M  V30 50 1 13 47 CFG=1
M  V30 51 1 48 5
M  V30 52 1 49 15
M  V30 53 1 50 16
M  V30 54 1 51 16
M  V30 55 1 52 18
M  V30 56 1 53 18
M  V30 57 1 54 20
M  V30 58 1 55 20
M  V30 59 1 56 21
M  V30 60 1 57 21
M  V30 61 1 22 58 CFG=3
M  V30 62 1 59 23
M  V30 63 1 60 23
M  V30 64 1 61 23
M  V30 65 1 62 24
M  V30 66 1 63 24
M  V30 67 1 64 24
M  V30 68 1 65 15
M  V30 69 1 26 66 CFG=3
M  V30 70 1 27 67 CFG=1
M  V30 71 1 68 28
M  V30 72 1 69 28
M  V30 73 1 29 70 CFG=1
M  V30 74 1 71 30
M  V30 75 1 72 33
M  V30 76 1 73 25
M  V30 END BOND
M  V30 END CTAB
M  END
>  <i_epik_Tot_Q>  (1) 
1

>  <i_epik_Tot_abs_Q>  (1) 
1

>  <i_i_glide_confnum>  (1) 
836

>  <i_i_glide_lignum>  (1) 
10

>  <i_i_glide_posenum>  (1) 
108

>  <i_i_glide_rotatable_bonds>  (1) 
11

>  <i_lp_mmshare_version>  (1) 
72125

>  <i_m_source_file_index>  (1) 
4

>  <i_f3d_flags>  (1) 
0

>  <num_sample>  (1) 
50

>  <b_lp_Chiralities_Consistent>  (1) 
1

>  <r_epik_Charging_Adjusted_Penalty>  (1) 
0.69158801815778781

>  <r_epik_Ionization_Penalty>  (1) 
0.18004840766126984

>  <r_epik_Ionization_Penalty_Charging>  (1) 
0.063917621844604325

>  <r_epik_Ionization_Penalty_Neutral>  (1) 
0.11613078581666553

>  <r_epik_State_Penalty>  (1) 
0.62767039631318344

>  <r_glide_ring_energy>  (1) 
0

>  <r_i_docking_score>  (1) 
-5.3973871476680966

>  <r_i_glide_ecoul>  (1) 
-8.3744723933053411

>  <r_i_glide_eff_state_penalty>  (1) 
0.62767039631318344

>  <r_i_glide_einternal>  (1) 
19.6344378162092

>  <r_i_glide_emodel>  (1) 
-15.710748434881499

>  <r_i_glide_emodel_strain>  (1) 
4.3292046948310912

>  <r_i_glide_energy>  (1) 
-21.989610004096882

>  <r_i_glide_erotb>  (1) 
0.69427784923131142

>  <r_i_glide_esite>  (1) 
-0.1777783867955432

>  <r_i_glide_evdw>  (1) 
-13.615137610791541

>  <r_i_glide_gscore>  (1) 
-6.0250575439812799

>  <r_i_glide_gscore_strain>  (1) 
0.08230117370777279

>  <r_i_glide_hbond>  (1) 
-0.21393112428164604

>  <r_i_glide_ligand_efficiency>  (1) 
-0.16355718629297261

>  <r_i_glide_ligand_efficiency_ln>  (1) 
-1.2003509554663812

>  <r_i_glide_ligand_efficiency_sa>  (1) 
-0.52461528995223261

>  <r_i_glide_lipo>  (1) 
-3.2262689967601386

>  <r_i_glide_metal>  (1) 
-0

>  <r_i_glide_rewards>  (1) 
-1.246730319547658

>  <r_lp_Energy>  (1) 
28.262066999999998

>  <s_epik_Chemistry_Notes>  (1) 
This compound has an imine and may undergo hydrolysis.

>  <s_epik_cmdline>  (1) 
J2VwaWtfcHl0aG9uJywgJy1waHQnLCAnMS4wJywgJy1waCcsICc3LjQnLCAnLXRuJywgJzgnLCAnLW1hJywgJzUwMCcsICctaW1hZScsICc8aW5maWxlLm1hZT4nLCAnLW9tYWUnLCAnPG91dGZpbGUubWFlPic=

>  <s_epik_input>  (1) 
RltDQEhdMVNbQ0gyXVtDQEhdKFtDSDJdMSlbQ0gyXVtDQEBIXShbQ0gyXUMjTilOKFtDSDJdW0NIMl0yKVtDSDJdW0NIMl1bQ0gyXVtDQEBIXShbT0hdKVtDQEhdMltOSF1DKD1bQ0hdXFtDSDNdKVxbQ0gyXVtDQEhdKE8zKVtDQF0zNFtDQEhdKFtDSDJdW09IXSlONFtDSDNd

>  <s_glide_docking_method>  (1) 
confgen

>  <s_i_glide_gridfile>  (1) 
gpcr_5ht2c_6bqh_protein_autoprepared_prepared

>  <s_lp_Force_Field>  (1) 
S-OPLS

>  <s_lp_Variant>  (1) 
DiffSBDD_3_num_sample_50-1

>  <s_m_source_file>  (1) 
generated__ligand_DiffSBDD_2026-05-06_prepared.sdf

>  <GenAI_Model>  (1) 
DiffSBDD

>  <Protein>  (1) 
GPCR_5HT2C

$$$$
DiffSBDD_10_num_sample_50
     RDKit          3D

  0  0  0  0  0  0  0  0  0  0999 V3000
M  V30 BEGIN CTAB
M  V30 COUNTS 64 66 0 0 1
M  V30 BEGIN ATOM
M  V30 1 C 36.913695 33.803311 59.206841 0
M  V30 2 C 37.036590 35.102359 60.017905 0
M  V30 3 C 41.810462 34.026192 64.449250 0
M  V30 4 N 39.190989 34.325771 61.025119 0 CFG=1 CHG=1
M  V30 5 O 39.027868 27.018316 57.757905 0 CHG=-1
M  V30 6 O 37.353576 30.668330 59.745958 0
M  V30 7 C 38.405483 27.621418 51.908755 0
M  V30 8 C 41.867316 35.158986 63.604854 0
M  V30 9 C 39.425384 29.677109 53.543679 0
M  V30 10 O 39.880642 26.232432 55.530636 0 CHG=-1
M  V30 11 N 37.467399 26.525192 53.853504 0
M  V30 12 C 41.017912 35.241342 62.483317 0
M  V30 13 C 38.413073 29.951489 56.354600 0
M  V30 14 C 38.185631 27.582198 53.298758 0
M  V30 15 C 37.836998 34.889408 61.323478 0 CFG=1
M  V30 16 C 36.634203 36.862645 62.571077 0
M  V30 17 C 40.115135 34.203933 62.226573 0
M  V30 18 O 40.946963 28.225110 56.653690 0
M  V30 19 C 39.146623 33.087369 60.209054 0
M  V30 20 N 38.267403 31.986750 58.128941 0
M  V30 21 C 37.945812 36.200563 62.156630 0
M  V30 22 P 39.678908 27.422184 56.447862 0
M  V30 23 C 40.412142 30.840203 51.516609 0
M  V30 24 C 39.130895 28.675814 51.335937 0
M  V30 25 C 37.800952 30.812716 58.607596 0
M  V30 26 N 37.879252 29.805734 57.716121 0
M  V30 27 C 40.899687 32.979032 64.172242 0
M  V30 28 O 41.067405 36.322514 61.657494 0 CHG=-1
M  V30 29 F 42.629057 33.942884 65.524729 0
M  V30 30 C 40.043077 33.068391 63.055383 0
M  V30 31 C 38.697739 28.612476 54.127534 0
M  V30 32 C 38.310040 33.226500 58.917999 0 CFG=1
M  V30 33 C 38.455690 28.573757 55.648884 0 CFG=2
M  V30 34 C 39.640110 29.703721 52.146582 0
M  V30 35 H 36.386772 33.996197 58.270566 0
M  V30 36 H 36.305300 33.087620 59.761044 0
M  V30 37 H 37.498806 35.881691 59.413036 0
M  V30 38 H 36.032422 35.457630 60.246739 0
M  V30 39 H 38.016380 26.835449 51.279441 0
M  V30 40 H 42.563499 35.958629 63.817442 0
M  V30 41 H 39.819415 30.467850 54.163084 0
M  V30 42 H 37.293802 25.708476 53.288023 0
M  V30 43 H 37.571766 26.347521 54.844869 0
M  V30 44 H 37.762088 30.627472 55.796631 0
M  V30 45 H 39.413478 30.386562 56.381703 0
M  V30 46 H 37.295424 34.135416 61.889196 0
M  V30 47 H 36.815730 37.621422 63.332476 0
M  V30 48 H 36.189527 37.374390 61.719751 0
M  V30 49 H 35.926909 36.144097 62.988684 0
M  V30 50 H 40.171355 32.821426 59.962199 0
M  V30 51 H 38.749423 32.288787 60.827286 0
M  V30 52 H 38.606592 32.021530 57.179288 0
M  V30 53 H 38.488008 36.016807 63.083163 0
M  V30 54 H 38.532460 36.937500 61.607526 0
M  V30 55 H 41.329530 30.475326 51.053505 0
M  V30 56 H 39.812078 31.317483 50.741781 0
M  V30 57 H 40.667372 31.599161 52.253530 0
M  V30 58 H 39.294584 28.698448 50.268348 0
M  V30 59 H 37.573017 28.883303 57.997996 0
M  V30 60 H 40.856544 32.115275 64.819261 0
M  V30 61 H 39.340564 32.276432 62.848973 0
M  V30 62 H 38.819833 33.940134 58.275738 0
M  V30 63 H 37.467426 28.147593 55.786843 0
M  V30 64 H 39.622545 35.032160 60.442656 0
M  V30 END ATOM
M  V30 BEGIN BOND
M  V30 1 1 2 1
M  V30 2 2 8 3
M  V30 3 1 12 8
M  V30 4 1 14 7
M  V30 5 1 14 11
M  V30 6 1 15 2
M  V30 7 1 15 4
M  V30 8 1 17 4
M  V30 9 2 17 12
M  V30 10 1 19 4
M  V30 11 1 21 15
M  V30 12 1 21 16
M  V30 13 1 22 5
M  V30 14 1 22 10
M  V30 15 2 22 18
M  V30 16 2 24 7
M  V30 17 2 25 6
M  V30 18 1 25 20
M  V30 19 1 26 13
M  V30 20 1 26 25
M  V30 21 1 27 3
M  V30 22 1 28 12
M  V30 23 1 29 3
M  V30 24 1 30 17
M  V30 25 2 30 27
M  V30 26 1 31 9
M  V30 27 2 31 14
M  V30 28 1 32 1
M  V30 29 1 32 19
M  V30 30 1 32 20
M  V30 31 1 33 13
M  V30 32 1 33 22
M  V30 33 1 33 31
M  V30 34 2 34 9
M  V30 35 1 34 23
M  V30 36 1 34 24
M  V30 37 1 35 1
M  V30 38 1 36 1
M  V30 39 1 37 2
M  V30 40 1 38 2
M  V30 41 1 39 7
M  V30 42 1 40 8
M  V30 43 1 41 9
M  V30 44 1 42 11
M  V30 45 1 43 11
M  V30 46 1 44 13
M  V30 47 1 45 13
M  V30 48 1 15 46 CFG=1
M  V30 49 1 47 16
M  V30 50 1 48 16
M  V30 51 1 49 16
M  V30 52 1 50 19
M  V30 53 1 51 19
M  V30 54 1 52 20
M  V30 55 1 53 21
M  V30 56 1 54 21
M  V30 57 1 55 23
M  V30 58 1 56 23
M  V30 59 1 57 23
M  V30 60 1 58 24
M  V30 61 1 59 26
M  V30 62 1 60 27
M  V30 63 1 61 30
M  V30 64 1 32 62 CFG=3
M  V30 65 1 33 63 CFG=3
M  V30 66 1 4 64 CFG=3
M  V30 END BOND
M  V30 END CTAB
M  END
>  <i_epik_Tot_Q>  (1) 
-2

>  <i_epik_Tot_abs_Q>  (1) 
4

>  <i_i_glide_confnum>  (1) 
128

>  <i_i_glide_lignum>  (1) 
34

>  <i_i_glide_posenum>  (1) 
25

>  <i_i_glide_rotatable_bonds>  (1) 
9

>  <i_lp_mmshare_version>  (1) 
72125

>  <i_m_source_file_index>  (1) 
11

>  <i_f3d_flags>  (1) 
0

>  <num_sample>  (1) 
50

>  <b_lp_Chiralities_Consistent>  (1) 
1

>  <r_epik_Charging_Adjusted_Penalty>  (1) 
1.3613781813755943

>  <r_epik_Ionization_Penalty>  (1) 
0.45221775539962494

>  <r_epik_Ionization_Penalty_Charging>  (1) 
0.45010221832775887

>  <r_epik_Ionization_Penalty_Neutral>  (1) 
0.0021155370718660637

>  <r_epik_State_Penalty>  (1) 
0.91127596304783554

>  <r_glide_ring_energy>  (1) 
0

>  <r_i_docking_score>  (1) 
-5.3862095476029701

>  <r_i_glide_ecoul>  (1) 
-1.5325874439154572

>  <r_i_glide_eff_state_penalty>  (1) 
0.91127596304783554

>  <r_i_glide_einternal>  (1) 
17.658822636868639

>  <r_i_glide_emodel>  (1) 
-54.871655715917917

>  <r_i_glide_emodel_strain>  (1) 
0.40940804178652002

>  <r_i_glide_energy>  (1) 
-46.145073949105061

>  <r_i_glide_erotb>  (1) 
0.58773720055558498

>  <r_i_glide_esite>  (1) 
-0.19776487528649814

>  <r_i_glide_evdw>  (1) 
-44.612486505189601

>  <r_i_glide_gscore>  (1) 
-6.2974855106508052

>  <r_i_glide_gscore_strain>  (1) 
0

>  <r_i_glide_hbond>  (1) 
0

>  <r_i_glide_ligand_efficiency>  (1) 
-0.1584179278706756

>  <r_i_glide_ligand_efficiency_ln>  (1) 
-1.1899647671259515

>  <r_i_glide_ligand_efficiency_sa>  (1) 
-0.51321258866376585

>  <r_i_glide_lipo>  (1) 
-3.9797841881181575

>  <r_i_glide_metal>  (1) 
-0

>  <r_i_glide_rewards>  (1) 
-0.24716120595493707

>  <r_lp_Energy>  (1) 
32.038921000000002

>  <s_epik_cmdline>  (1) 
J2VwaWtfcHl0aG9uJywgJy1waHQnLCAnMS4wJywgJy1waCcsICc3LjQnLCAnLXRuJywgJzgnLCAnLW1hJywgJzUwMCcsICctaW1hZScsICc8aW5maWxlLm1hZT4nLCAnLW9tYWUnLCAnPG91dGZpbGUubWFlPic=

>  <s_epik_input>  (1) 
RmMxW2NIXWMoW09IXSljKFtjSF1bY0hdMSlOMltDQEBIXShbQ0gyXVtDSDNdKVtDSDJdW0NIMl1bQ0BASF0oW0NIMl0yKVtOSF1DKD1PKVtOSF1bQ0gyXVtDQEhdKFAoPU8pKFtPSF0pW09IXSljM1tjSF1jKFtDSDNdKVtjSF1bY0hdYzNbTkgyXQ==

>  <s_glide_docking_method>  (1) 
confgen

>  <s_i_glide_gridfile>  (1) 
gpcr_5ht2c_6bqh_protein_autoprepared_prepared

>  <s_lp_Force_Field>  (1) 
S-OPLS

>  <s_lp_Variant>  (1) 
DiffSBDD_10_num_sample_50-3

>  <s_m_source_file>  (1) 
generated__ligand_DiffSBDD_2026-05-06_prepared.sdf

>  <GenAI_Model>  (1) 
DiffSBDD

>  <Protein>  (1) 
GPCR_5HT2C

$$$$
DiffSBDD_40_num_sample_50
     RDKit          3D

  0  0  0  0  0  0  0  0  0  0999 V3000
M  V30 BEGIN CTAB
M  V30 COUNTS 66 69 0 0 1
M  V30 BEGIN ATOM
M  V30 1 C 37.776072 32.732449 59.393164 0
M  V30 2 C 37.867300 31.105968 55.821569 0
M  V30 3 O 36.667407 25.179603 57.262148 0 CHG=-1
M  V30 4 C 38.282409 28.079593 55.156829 0
M  V30 5 O 38.846023 26.837177 54.776434 0
M  V30 6 C 38.713701 29.851112 52.653480 0 CFG=2
M  V30 7 C 39.109483 30.289468 56.222252 0 CFG=2
M  V30 8 O 38.583047 24.544699 55.430073 0
M  V30 9 C 39.378585 29.162870 55.189881 0 CFG=2
M  V30 10 C 37.790538 31.209390 59.128151 0 CFG=1
M  V30 11 C 37.958512 25.789980 55.127134 0 CFG=1
M  V30 12 C 40.219553 31.108507 53.544195 0
M  V30 13 C 39.689621 29.711072 53.788405 0 CFG=2
M  V30 14 C 38.725008 28.797179 51.549719 0
M  V30 15 O 39.067338 30.826454 58.628913 0
M  V30 16 O 38.268256 34.427150 61.101267 0
M  V30 17 C 39.563104 31.059342 52.177932 0 CFG=1
M  V30 18 C 37.380320 30.347559 60.339943 0
M  V30 19 P 38.098970 25.252709 56.902510 0
M  V30 20 C 35.346456 33.621166 61.660695 0
M  V30 21 O 35.962910 32.357210 61.453487 0
M  V30 22 N 37.867416 32.457905 56.403137 0 CHG=1
M  V30 23 O 37.734820 30.913571 61.605588 0
M  V30 24 C 39.060027 29.760966 57.684032 0
M  V30 25 C 38.220390 33.043353 60.812788 0 CFG=1
M  V30 26 C 40.304637 30.642196 50.915722 0
M  V30 27 O 39.063244 26.199119 57.510869 0
M  V30 28 C 37.326400 32.235138 61.765200 0 CFG=1
M  V30 29 C 39.834018 29.213039 50.560581 0
M  V30 30 C 38.361511 33.571814 55.578514 0
M  V30 31 H 36.772827 33.120838 59.212113 0
M  V30 32 H 38.439550 33.265335 58.714288 0
M  V30 33 H 37.719555 31.224583 54.755978 0
M  V30 34 H 37.001845 30.541656 56.154660 0
M  V30 35 H 37.828975 27.981037 56.137218 0
M  V30 36 H 37.456281 28.337776 54.494989 0
M  V30 37 H 37.727154 30.021925 53.054504 0
M  V30 38 H 39.972232 30.953312 56.190452 0
M  V30 39 H 40.281540 28.665518 55.546050 0
M  V30 40 H 37.042912 31.008177 58.366473 0
M  V30 41 H 37.066660 25.677686 54.514445 0
M  V30 42 H 39.761966 31.869749 54.154759 0
M  V30 43 H 41.292928 31.221441 53.587824 0
M  V30 44 H 40.267402 29.060445 53.201532 0
M  V30 45 H 37.769529 28.744730 51.053500 0
M  V30 46 H 38.901362 27.793957 51.943297 0
M  V30 47 H 37.403059 34.790952 60.992486 0
M  V30 48 H 39.067413 32.021445 52.056523 0
M  V30 49 H 36.301154 30.190581 60.314028 0
M  V30 50 H 37.827584 29.356948 60.253447 0
M  V30 51 H 34.269221 33.499779 61.556339 0
M  V30 52 H 35.537881 34.021456 62.653505 0
M  V30 53 H 35.658515 34.356434 60.920328 0
M  V30 54 H 36.873498 32.621480 56.580170 0
M  V30 55 H 39.954846 29.168118 57.875375 0
M  V30 56 H 38.219357 29.094137 57.872754 0
M  V30 57 H 39.243662 32.687233 60.950206 0
M  V30 58 H 40.068525 31.319726 50.094434 0
M  V30 59 H 41.385417 30.674865 51.053256 0
M  V30 60 H 37.513414 32.503388 62.797678 0
M  V30 61 H 39.484515 29.154234 49.529113 0
M  V30 62 H 40.667406 28.518862 50.652978 0
M  V30 63 H 38.140431 34.511210 56.079536 0
M  V30 64 H 39.441978 33.526231 55.453811 0
M  V30 65 H 37.867427 33.583900 54.606463 0
M  V30 66 H 38.344432 32.425180 57.292973 0
M  V30 END ATOM
M  V30 BEGIN BOND
M  V30 1 1 5 4
M  V30 2 1 7 2
M  V30 3 1 9 4
M  V30 4 1 9 7
M  V30 5 1 10 1
M  V30 6 1 11 5
M  V30 7 1 11 8
M  V30 8 1 13 6
M  V30 9 1 13 9
M  V30 10 1 13 12
M  V30 11 1 14 6
M  V30 12 1 15 10
M  V30 13 1 17 6
M  V30 14 1 17 12
M  V30 15 1 18 10
M  V30 16 1 19 3
M  V30 17 1 19 8
M  V30 18 1 19 11
M  V30 19 1 21 20
M  V30 20 1 22 2
M  V30 21 1 23 18
M  V30 22 1 24 7
M  V30 23 1 24 15
M  V30 24 1 25 1
M  V30 25 1 25 16
M  V30 26 1 26 17
M  V30 27 2 27 19
M  V30 28 1 28 21
M  V30 29 1 28 23
M  V30 30 1 28 25
M  V30 31 1 29 14
M  V30 32 1 29 26
M  V30 33 1 30 22
M  V30 34 1 31 1
M  V30 35 1 32 1
M  V30 36 1 33 2
M  V30 37 1 34 2
M  V30 38 1 35 4
M  V30 39 1 36 4
M  V30 40 1 6 37 CFG=1
M  V30 41 1 7 38 CFG=1
M  V30 42 1 9 39 CFG=1
M  V30 43 1 10 40 CFG=3
M  V30 44 1 11 41 CFG=3
M  V30 45 1 42 12
M  V30 46 1 43 12
M  V30 47 1 13 44 CFG=3
M  V30 48 1 45 14
M  V30 49 1 46 14
M  V30 50 1 47 16
M  V30 51 1 17 48 CFG=3
M  V30 52 1 49 18
M  V30 53 1 50 18
M  V30 54 1 51 20
M  V30 55 1 52 20
M  V30 56 1 53 20
M  V30 57 1 54 22
M  V30 58 1 55 24
M  V30 59 1 56 24
M  V30 60 1 25 57 CFG=3
M  V30 61 1 58 26
M  V30 62 1 59 26
M  V30 63 1 28 60 CFG=1
M  V30 64 1 61 29
M  V30 65 1 62 29
M  V30 66 1 63 30
M  V30 67 1 64 30
M  V30 68 1 65 30
M  V30 69 1 66 22
M  V30 END BOND
M  V30 END CTAB
M  END
>  <i_epik_Tot_Q>  (1) 
0

>  <i_epik_Tot_abs_Q>  (1) 
2

>  <i_i_glide_confnum>  (1) 
1126

>  <i_i_glide_lignum>  (1) 
95

>  <i_i_glide_posenum>  (1) 
35

>  <i_i_glide_rotatable_bonds>  (1) 
12

>  <i_lp_mmshare_version>  (1) 
72125

>  <i_m_source_file_index>  (1) 
41

>  <i_f3d_flags>  (1) 
0

>  <num_sample>  (1) 
50

>  <b_lp_Chiralities_Consistent>  (1) 
1

>  <r_epik_Charging_Adjusted_Penalty>  (1) 
0.001220089536417487

>  <r_epik_Ionization_Penalty>  (1) 
0.0012207097255128069

>  <r_epik_Ionization_Penalty_Charging>  (1) 
0.001220089536417487

>  <r_epik_Ionization_Penalty_Neutral>  (1) 
6.2018909532001439e-07

>  <r_epik_State_Penalty>  (1) 
-0

>  <r_glide_ring_energy>  (1) 
0.75368377756619043

>  <r_i_docking_score>  (1) 
-5.3737304940343851

>  <r_i_glide_ecoul>  (1) 
-6.9998067255288596

>  <r_i_glide_eff_state_penalty>  (1) 
-0

>  <r_i_glide_einternal>  (1) 
11.1915159120708

>  <r_i_glide_emodel>  (1) 
-30.516127246195907

>  <r_i_glide_emodel_strain>  (1) 
5.8539216353101864

>  <r_i_glide_energy>  (1) 
-24.636116510294979

>  <r_i_glide_erotb>  (1) 
0.69437166535620165

>  <r_i_glide_esite>  (1) 
-0.10000000000000001

>  <r_i_glide_evdw>  (1) 
-17.636309784766119

>  <r_i_glide_gscore>  (1) 
-5.3737304940343851

>  <r_i_glide_gscore_strain>  (1) 
0.4634804088275466

>  <r_i_glide_hbond>  (1) 
-0.62355203332641951

>  <r_i_glide_ligand_efficiency>  (1) 
-0.17912434980114617

>  <r_i_glide_ligand_efficiency_ln>  (1) 
-1.2209701197279506

>  <r_i_glide_ligand_efficiency_sa>  (1) 
-0.5565810023099711

>  <r_i_glide_lipo>  (1) 
-2.1453198101918276

>  <r_i_glide_metal>  (1) 
-0

>  <r_i_glide_rewards>  (1) 
-1.7309242266322502

>  <r_lp_Energy>  (1) 
50.841352000000001

>  <r_lp_tautomer_probability>  (1) 
1

>  <s_epik_Chemistry_Notes>  (1) 
This compound contains an acetal/aminal-like group ( X-CH(R)-Y where X, Y are N, S, or O) that may be acid/base labile, releasing an aldehyde.

>  <s_epik_cmdline>  (1) 
J2VwaWtfcHl0aG9uJywgJy1waHQnLCAnMS4wJywgJy1waCcsICc3LjQnLCAnLXRuJywgJzgnLCAnLW1hJywgJzUwMCcsICctaW1hZScsICc8aW5maWxlLm1hZT4nLCAnLW9tYWUnLCAnPG91dGZpbGUubWFlPic=

>  <s_epik_input>  (1) 
W0NIMl0xT1tDQEhdKE9bQ0gzXSlbQ0BIXShbT0hdKVtDSDJdW0NASF0xT1tDSDJdW0NASF0oW0NIMl1bTkhdW0NIM10pW0NAQEhdKFtDSDJdT1tDQEhdMk9bUEBdMig9TylbT0hdKVtDQEBIXTNbQ0gyXVtDQEhdKFtDQEhdMzQpW0NIMl1bQ0gyXVtDSDJdNA==

>  <s_glide_docking_method>  (1) 
confgen

>  <s_i_glide_gridfile>  (1) 
gpcr_5ht2c_6bqh_protein_autoprepared_prepared

>  <s_lp_Force_Field>  (1) 
S-OPLS

>  <s_lp_Variant>  (1) 
DiffSBDD_40_num_sample_50-2

>  <s_m_source_file>  (1) 
generated__ligand_DiffSBDD_2026-05-06_prepared.sdf

>  <GenAI_Model>  (1) 
DiffSBDD

>  <Protein>  (1) 
GPCR_5HT2C

$$$$
DiffSBDD_10_num_sample_50
     RDKit          3D

  0  0  0  0  0  0  0  0  0  0999 V3000
M  V30 BEGIN CTAB
M  V30 COUNTS 64 66 0 0 1
M  V30 BEGIN ATOM
M  V30 1 C 38.831988 29.364638 59.009359 0
M  V30 2 C 38.304862 28.171132 58.221659 0
M  V30 3 C 39.251753 29.221583 51.816488 0
M  V30 4 N 38.293485 29.396516 56.060611 0 CFG=2 CHG=1
M  V30 5 O 41.413982 34.418458 61.853664 0 CHG=-1
M  V30 6 O 35.664024 31.881142 60.392403 0
M  V30 7 C 42.194911 31.201039 64.450357 0
M  V30 8 C 38.304100 28.332154 52.363181 0
M  V30 9 C 40.320305 30.553484 62.446947 0
M  V30 10 O 39.867401 33.621293 60.046272 0 CHG=-1
M  V30 11 N 41.270144 33.433170 64.617074 0
M  V30 12 C 37.980502 28.401636 53.731321 0
M  V30 13 C 37.871559 32.364527 62.095169 0
M  V30 14 C 41.259235 32.166676 64.031827 0
M  V30 15 C 38.831219 28.197418 56.780773 0 CFG=1
M  V30 16 C 40.963674 26.835851 57.348991 0
M  V30 17 C 38.616081 29.360955 54.547804 0
M  V30 18 O 39.112830 35.408037 61.651251 0
M  V30 19 C 38.568786 30.688048 56.780951 0
M  V30 20 N 37.067427 31.087107 58.784133 0
M  V30 21 C 40.371982 28.081746 56.682355 0
M  V30 22 P 39.974871 34.178750 61.448840 0
M  V30 23 C 41.257379 28.218009 62.258163 0
M  V30 24 C 42.195689 29.920302 63.871836 0
M  V30 25 C 36.799137 31.596289 60.013460 0
M  V30 26 N 37.897229 31.768719 60.767004 0
M  V30 27 C 39.867396 30.195501 52.636118 0
M  V30 28 O 37.067413 27.543603 54.253471 0 CHG=-1
M  V30 29 F 39.568040 29.148031 50.502506 0
M  V30 30 C 39.553422 30.266494 54.008354 0
M  V30 31 C 40.310836 31.844550 63.018161 0
M  V30 32 C 38.403488 30.683710 58.332869 0 CFG=1
M  V30 33 C 39.267659 32.887380 62.562563 0 CFG=2
M  V30 34 C 41.258629 29.596210 62.872874 0
M  V30 35 H 39.916695 29.323171 59.098767 0
M  V30 36 H 38.463412 29.290563 60.031534 0
M  V30 37 H 38.572107 27.240643 58.721196 0
M  V30 38 H 37.214265 28.197817 58.210075 0
M  V30 39 H 42.914259 31.444269 65.217687 0
M  V30 40 H 37.828811 27.595697 51.731672 0
M  V30 41 H 39.608622 30.293742 61.688309 0
M  V30 42 H 42.069514 33.707433 65.165464 0
M  V30 43 H 40.809365 34.189088 64.123700 0
M  V30 44 H 37.178056 33.208234 62.080168 0
M  V30 45 H 37.471498 31.626985 62.785976 0
M  V30 46 H 38.430945 27.301923 56.309370 0
M  V30 47 H 42.044265 26.821550 57.209495 0
M  V30 48 H 40.784047 26.821438 58.423731 0
M  V30 49 H 40.554422 25.921956 56.918416 0
M  V30 50 H 39.614363 30.943844 56.627110 0
M  V30 51 H 37.987197 31.494421 56.331485 0
M  V30 52 H 36.296117 30.987279 58.125044 0
M  V30 53 H 40.666291 28.069728 55.634574 0
M  V30 54 H 40.845920 28.953876 57.119038 0
M  V30 55 H 42.079839 27.621499 62.654335 0
M  V30 56 H 40.321561 27.708398 62.486458 0
M  V30 57 H 41.366203 28.274905 61.174845 0
M  V30 58 H 42.915391 29.184138 64.196562 0
M  V30 59 H 38.799561 31.543698 60.375375 0
M  V30 60 H 40.587272 30.879048 52.212322 0
M  V30 61 H 40.037609 31.000007 54.629016 0
M  V30 62 H 39.067523 31.481137 58.655878 0
M  V30 63 H 39.067402 33.451128 63.453504 0
M  V30 64 H 37.291884 29.279294 56.130703 0
M  V30 END ATOM
M  V30 BEGIN BOND
M  V30 1 1 2 1
M  V30 2 2 8 3
M  V30 3 1 12 8
M  V30 4 1 14 7
M  V30 5 1 14 11
M  V30 6 1 15 2
M  V30 7 1 15 4
M  V30 8 1 17 4
M  V30 9 2 17 12
M  V30 10 1 19 4
M  V30 11 1 21 15
M  V30 12 1 21 16
M  V30 13 1 22 5
M  V30 14 1 22 10
M  V30 15 2 22 18
M  V30 16 2 24 7
M  V30 17 2 25 6
M  V30 18 1 25 20
M  V30 19 1 26 13
M  V30 20 1 26 25
M  V30 21 1 27 3
M  V30 22 1 28 12
M  V30 23 1 29 3
M  V30 24 1 30 17
M  V30 25 2 30 27
M  V30 26 1 31 9
M  V30 27 2 31 14
M  V30 28 1 32 1
M  V30 29 1 32 19
M  V30 30 1 32 20
M  V30 31 1 33 13
M  V30 32 1 33 22
M  V30 33 1 33 31
M  V30 34 2 34 9
M  V30 35 1 34 23
M  V30 36 1 34 24
M  V30 37 1 35 1
M  V30 38 1 36 1
M  V30 39 1 37 2
M  V30 40 1 38 2
M  V30 41 1 39 7
M  V30 42 1 40 8
M  V30 43 1 41 9
M  V30 44 1 42 11
M  V30 45 1 43 11
M  V30 46 1 44 13
M  V30 47 1 45 13
M  V30 48 1 15 46 CFG=3
M  V30 49 1 47 16
M  V30 50 1 48 16
M  V30 51 1 49 16
M  V30 52 1 50 19
M  V30 53 1 51 19
M  V30 54 1 52 20
M  V30 55 1 53 21
M  V30 56 1 54 21
M  V30 57 1 55 23
M  V30 58 1 56 23
M  V30 59 1 57 23
M  V30 60 1 58 24
M  V30 61 1 59 26
M  V30 62 1 60 27
M  V30 63 1 61 30
M  V30 64 1 32 62 CFG=1
M  V30 65 1 33 63 CFG=1
M  V30 66 1 4 64 CFG=3
M  V30 END BOND
M  V30 END CTAB
M  END
>  <i_epik_Tot_Q>  (1) 
-2

>  <i_epik_Tot_abs_Q>  (1) 
4

>  <i_i_glide_confnum>  (1) 
198

>  <i_i_glide_lignum>  (1) 
35

>  <i_i_glide_posenum>  (1) 
371

>  <i_i_glide_rotatable_bonds>  (1) 
9

>  <i_lp_mmshare_version>  (1) 
72125

>  <i_m_source_file_index>  (1) 
11

>  <i_f3d_flags>  (1) 
0

>  <num_sample>  (1) 
50

>  <b_lp_Chiralities_Consistent>  (1) 
1

>  <r_epik_Charging_Adjusted_Penalty>  (1) 
1.3613781813755943

>  <r_epik_Ionization_Penalty>  (1) 
0.45221775539962494

>  <r_epik_Ionization_Penalty_Charging>  (1) 
0.45010221832775887

>  <r_epik_Ionization_Penalty_Neutral>  (1) 
0.0021155370718660637

>  <r_epik_State_Penalty>  (1) 
0.91127596304783554

>  <r_glide_ring_energy>  (1) 
0

>  <r_i_docking_score>  (1) 
-5.3643603346690512

>  <r_i_glide_ecoul>  (1) 
-5.4522626306647792

>  <r_i_glide_eff_state_penalty>  (1) 
0.91127596304783554

>  <r_i_glide_einternal>  (1) 
15.819286165281657

>  <r_i_glide_emodel>  (1) 
-52.957684148590985

>  <r_i_glide_emodel_strain>  (1) 
3.2267589249752717

>  <r_i_glide_energy>  (1) 
-45.731014619574722

>  <r_i_glide_erotb>  (1) 
0.58773720055558498

>  <r_i_glide_esite>  (1) 
-0.17032982992839715

>  <r_i_glide_evdw>  (1) 
-40.278751988909946

>  <r_i_glide_gscore>  (1) 
-6.2756362977168871

>  <r_i_glide_gscore_strain>  (1) 
0

>  <r_i_glide_hbond>  (1) 
-0.14324830836755592

>  <r_i_glide_ligand_efficiency>  (1) 
-0.15777530396085446

>  <r_i_glide_ligand_efficiency_ln>  (1) 
-1.1851376631391846

>  <r_i_glide_ligand_efficiency_sa>  (1) 
-0.51113073666172615

>  <r_i_glide_lipo>  (1) 
-3.3148406440800109

>  <r_i_glide_metal>  (1) 
-0

>  <r_i_glide_rewards>  (1) 
-0.40317772185129308

>  <r_lp_Energy>  (1) 
33.264645999999999

>  <s_epik_cmdline>  (1) 
J2VwaWtfcHl0aG9uJywgJy1waHQnLCAnMS4wJywgJy1waCcsICc3LjQnLCAnLXRuJywgJzgnLCAnLW1hJywgJzUwMCcsICctaW1hZScsICc8aW5maWxlLm1hZT4nLCAnLW9tYWUnLCAnPG91dGZpbGUubWFlPic=

>  <s_epik_input>  (1) 
RmMxW2NIXWMoW09IXSljKFtjSF1bY0hdMSlOMltDQEBIXShbQ0gyXVtDSDNdKVtDSDJdW0NIMl1bQ0BASF0oW0NIMl0yKVtOSF1DKD1PKVtOSF1bQ0gyXVtDQEhdKFAoPU8pKFtPSF0pW09IXSljM1tjSF1jKFtDSDNdKVtjSF1bY0hdYzNbTkgyXQ==

>  <s_glide_docking_method>  (1) 
confgen

>  <s_i_glide_gridfile>  (1) 
gpcr_5ht2c_6bqh_protein_autoprepared_prepared

>  <s_lp_Force_Field>  (1) 
S-OPLS

>  <s_lp_Variant>  (1) 
DiffSBDD_10_num_sample_50-4

>  <s_m_source_file>  (1) 
generated__ligand_DiffSBDD_2026-05-06_prepared.sdf

>  <GenAI_Model>  (1) 
DiffSBDD

>  <Protein>  (1) 
GPCR_5HT2C

$$$$
DiffSBDD_23_num_sample_50
     RDKit          3D

  0  0  0  0  0  0  0  0  0  0999 V3000
M  V30 BEGIN CTAB
M  V30 COUNTS 60 64 0 0 1
M  V30 BEGIN ATOM
M  V30 1 C 38.498906 26.992813 56.000404 0
M  V30 2 C 41.589474 33.398212 66.436733 0 CFG=2
M  V30 3 C 38.572694 31.746982 56.841740 0
M  V30 4 C 39.026284 31.857721 60.584818 0 CFG=1
M  V30 5 S 40.445662 29.446504 66.653482 0
M  V30 6 C 38.934829 30.436286 57.177239 0
M  V30 7 C 39.375309 28.043575 56.614406 0
M  V30 8 N 42.478999 29.684468 68.239854 0
M  V30 9 C 41.329533 30.956130 66.687215 0
M  V30 10 C 43.314128 32.033986 67.869704 0
M  V30 11 S 40.976611 33.099878 62.152229 0
M  V30 12 O 41.867404 32.170063 61.453492 0
M  V30 13 C 38.309184 31.097080 54.518588 0
M  V30 14 C 40.951744 32.110869 65.843330 0 CFG=2
M  V30 15 N 39.466108 33.069676 61.301062 0
M  V30 16 C 38.267401 32.079405 55.519765 0
M  V30 17 C 38.984783 29.433073 56.191239 0
M  V30 18 C 37.267327 34.113374 60.816315 0
M  V30 19 C 39.182787 26.632447 54.714431 0
M  V30 20 O 39.867411 25.621094 54.653505 0
M  V30 21 Cl 38.457425 30.697177 61.810047 0
M  V30 22 C 38.667427 28.760956 53.666258 0
M  V30 23 S 38.496614 32.982797 58.089751 0
M  V30 24 N 40.462382 32.518540 63.559142 0 CHG=-1
M  V30 25 O 41.375599 34.509034 62.278802 0
M  V30 26 N 38.954670 27.507017 53.677545 0
M  V30 27 C 38.359704 33.838142 61.853500 0
M  V30 28 C 42.370450 30.914106 67.579978 0
M  V30 29 C 41.541961 28.825148 67.854609 0
M  V30 30 O 36.829509 32.888866 60.248898 0
M  V30 31 C 38.659394 29.757936 54.822647 0
M  V30 32 N 41.375896 31.912391 64.467314 0
M  V30 33 N 41.377401 34.548918 65.536462 0 CHG=1
M  V30 34 C 37.878128 32.179867 59.599023 0 CFG=2
M  V30 35 C 43.075480 33.203232 66.871263 0
M  V30 36 H 37.467382 27.309797 55.866517 0
M  V30 37 H 38.480392 26.105836 56.635388 0
M  V30 38 H 41.044808 33.636757 67.351445 0
M  V30 39 H 39.867270 31.384309 60.090087 0
M  V30 40 H 39.174631 30.190666 58.199978 0
M  V30 41 H 39.267997 27.967630 57.697491 0
M  V30 42 H 40.442524 27.896132 56.428034 0
M  V30 43 H 43.148720 32.389908 68.887065 0
M  V30 44 H 44.351699 31.700784 67.821889 0
M  V30 45 H 38.067542 31.369360 53.503481 0
M  V30 46 H 39.867413 32.191229 65.853495 0
M  V30 47 H 37.989701 33.092999 55.268767 0
M  V30 48 H 37.620373 34.801387 60.047253 0
M  V30 49 H 36.414588 34.594297 61.295852 0
M  V30 50 H 38.393835 29.203069 52.704237 0
M  V30 51 H 38.726788 34.769209 62.284135 0
M  V30 52 H 37.945625 33.221427 62.653501 0
M  V30 53 H 41.490045 27.835851 68.285688 0
M  V30 54 H 42.294890 32.303600 64.315343 0
M  V30 55 H 41.382277 34.170633 64.590347 0
M  V30 56 H 40.457878 34.932159 65.692686 0
M  V30 57 H 37.418410 31.243957 59.282155 0
M  V30 58 H 43.467345 34.112705 67.319242 0
M  V30 59 H 43.669486 33.016873 65.975208 0
M  V30 60 H 42.078848 35.265759 65.647313 0
M  V30 END ATOM
M  V30 BEGIN BOND
M  V30 1 2 6 3
M  V30 2 1 7 1
M  V30 3 1 9 5
M  V30 4 2 12 11
M  V30 5 1 14 2
M  V30 6 1 14 9
M  V30 7 1 15 4
M  V30 8 1 15 11
M  V30 9 1 16 3
M  V30 10 2 16 13
M  V30 11 1 17 6
M  V30 12 1 17 7
M  V30 13 1 19 1
M  V30 14 2 20 19
M  V30 15 1 21 4
M  V30 16 1 23 3
M  V30 17 1 24 11
M  V30 18 2 25 11
M  V30 19 1 26 19
M  V30 20 2 26 22
M  V30 21 1 27 15
M  V30 22 1 27 18
M  V30 23 1 28 8
M  V30 24 2 28 9
M  V30 25 1 28 10
M  V30 26 1 29 5
M  V30 27 2 29 8
M  V30 28 1 30 18
M  V30 29 1 31 13
M  V30 30 2 31 17
M  V30 31 1 31 22
M  V30 32 1 32 14
M  V30 33 1 32 24
M  V30 34 1 33 2
M  V30 35 1 34 4
M  V30 36 1 34 23
M  V30 37 1 34 30
M  V30 38 1 35 2
M  V30 39 1 35 10
M  V30 40 1 36 1
M  V30 41 1 37 1
M  V30 42 1 2 38 CFG=1
M  V30 43 1 4 39 CFG=3
M  V30 44 1 40 6
M  V30 45 1 41 7
M  V30 46 1 42 7
M  V30 47 1 43 10
M  V30 48 1 44 10
M  V30 49 1 45 13
M  V30 50 1 14 46 CFG=3
M  V30 51 1 47 16
M  V30 52 1 48 18
M  V30 53 1 49 18
M  V30 54 1 50 22
M  V30 55 1 51 27
M  V30 56 1 52 27
M  V30 57 1 53 29
M  V30 58 1 54 32
M  V30 59 1 55 33
M  V30 60 1 56 33
M  V30 61 1 34 57 CFG=3
M  V30 62 1 58 35
M  V30 63 1 59 35
M  V30 64 1 60 33
M  V30 END BOND
M  V30 END CTAB
M  END
>  <i_epik_Tot_Q>  (1) 
0

>  <i_epik_Tot_abs_Q>  (1) 
2

>  <i_i_glide_confnum>  (1) 
59

>  <i_i_glide_lignum>  (1) 
65

>  <i_i_glide_posenum>  (1) 
175

>  <i_i_glide_rotatable_bonds>  (1) 
6

>  <i_lp_mmshare_version>  (1) 
72125

>  <i_m_source_file_index>  (1) 
24

>  <i_f3d_flags>  (1) 
0

>  <num_sample>  (1) 
50

>  <b_lp_Chiralities_Consistent>  (1) 
1

>  <r_epik_Charging_Adjusted_Penalty>  (1) 
2.2272092532468064

>  <r_epik_Ionization_Penalty>  (1) 
1.0462412004884125

>  <r_epik_Ionization_Penalty_Charging>  (1) 
1.0439143913358477

>  <r_epik_Ionization_Penalty_Neutral>  (1) 
0.002326809152564684

>  <r_epik_State_Penalty>  (1) 
1.1832948619109587

>  <r_glide_ring_energy>  (1) 
0.3639150976043069

>  <r_i_docking_score>  (1) 
-5.3601695438581238

>  <r_i_glide_ecoul>  (1) 
-2.088981087874942

>  <r_i_glide_eff_state_penalty>  (1) 
1.1832948619109587

>  <r_i_glide_einternal>  (1) 
6.2590318257009425

>  <r_i_glide_emodel>  (1) 
-74.265134394721244

>  <r_i_glide_emodel_strain>  (1) 
1.1170210050575378

>  <r_i_glide_energy>  (1) 
-51.686185829567066

>  <r_i_glide_erotb>  (1) 
0.32509228849270932

>  <r_i_glide_esite>  (1) 
0

>  <r_i_glide_evdw>  (1) 
-49.597204741692124

>  <r_i_glide_gscore>  (1) 
-6.5434644057690825

>  <r_i_glide_gscore_strain>  (1) 
0

>  <r_i_glide_hbond>  (1) 
0

>  <r_i_glide_ligand_efficiency>  (1) 
-0.15314770125308924

>  <r_i_glide_ligand_efficiency_ln>  (1) 
-1.1766761774303514

>  <r_i_glide_ligand_efficiency_sa>  (1) 
-0.5009562860518072

>  <r_i_glide_lipo>  (1) 
-2.1241134870147351

>  <r_i_glide_metal>  (1) 
-0

>  <r_i_glide_rewards>  (1) 
-1.951235806981209

>  <r_lp_Energy>  (1) 
42.677467

>  <s_epik_Chemistry_Notes>  (1) 
This compound has an imine and may undergo hydrolysis. This compound contains an acetal/aminal-like group ( X-CH(R)-Y where X, Y are N, S, or O) that may be acid/base labile, releasing an aldehyde.

>  <s_epik_cmdline>  (1) 
J2VwaWtfcHl0aG9uJywgJy1waHQnLCAnMS4wJywgJy1waCcsICc3LjQnLCAnLXRuJywgJzgnLCAnLW1hJywgJzUwMCcsICctaW1hZScsICc8aW5maWxlLm1hZT4nLCAnLW9tYWUnLCAnPG91dGZpbGUubWFlPic=

>  <s_epik_input>  (1) 
W0NIMl0xW0NIMl1DKD1PKU49W0NIXWMoYzEyKVtjSF1bY0hdYyhbY0hdMilTW0NAQEhdM09bQ0gyXVtDSDJdTihbQ0BIXTNDbClTKD1PKSg9TylbTkhdW05IXVtDQEBIXTRbQ0BASF0oW05IMl0pW0NIMl1bQ0gyXWMoYzQ1KW5bY0hdczU=

>  <s_glide_docking_method>  (1) 
confgen

>  <s_i_glide_gridfile>  (1) 
gpcr_5ht2c_6bqh_protein_autoprepared_prepared

>  <s_lp_Force_Field>  (1) 
S-OPLS

>  <s_lp_Variant>  (1) 
DiffSBDD_23_num_sample_50-4

>  <s_m_source_file>  (1) 
generated__ligand_DiffSBDD_2026-05-06_prepared.sdf

>  <GenAI_Model>  (1) 
DiffSBDD

>  <Protein>  (1) 
GPCR_5HT2C

$$$$
DiffSBDD_6_num_sample_50
     RDKit          3D

  0  0  0  0  0  0  0  0  0  0999 V3000
M  V30 BEGIN CTAB
M  V30 COUNTS 65 68 0 0 1
M  V30 BEGIN ATOM
M  V30 1 N 40.645835 29.670229 62.526361 0
M  V30 2 N 39.067422 29.347703 60.339986 0
M  V30 3 C 38.460290 29.138871 59.228952 0
M  V30 4 C 42.928633 29.742276 65.582408 0
M  V30 5 C 40.875669 35.682495 62.549213 0
M  V30 6 N 38.655970 32.498555 58.775795 0
M  V30 7 N 37.872582 30.171126 58.601577 0
M  V30 8 N 37.287768 34.023935 60.046642 0
M  V30 9 C 40.844570 31.971704 63.298802 0
M  V30 10 C 39.432970 36.669243 64.758064 0
M  V30 11 N 39.446920 31.462417 61.285995 0 CHG=1
M  V30 12 O 39.144703 36.421069 61.053547 0
M  V30 13 C 38.611532 32.917814 56.472273 0
M  V30 14 C 38.850071 30.025926 53.813149 0
M  V30 15 F 38.745362 37.147485 65.822087 0
M  V30 16 C 37.930865 31.366830 59.347291 0 CFG=1
M  V30 17 C 39.628061 36.306191 62.343245 0
M  V30 18 C 41.767987 27.821357 63.647300 0
M  V30 19 C 39.070575 31.412908 54.426460 0
M  V30 20 F 41.577629 35.214115 61.490188 0
M  V30 21 C 41.390403 35.536146 63.850357 0
M  V30 22 C 39.280233 32.948372 61.154339 0
M  V30 23 C 41.460850 29.301392 63.544274 0
M  V30 24 C 40.667379 36.021375 64.953494 0
M  V30 25 C 41.692409 31.571881 64.340976 0
M  V30 26 C 38.527373 31.509368 55.855944 0
M  V30 27 C 38.650761 33.521702 59.838485 0 CFG=1
M  V30 28 C 42.010496 30.215146 64.468209 0
M  V30 29 O 37.867205 33.022660 57.685867 0
M  V30 30 F 37.711942 37.422753 63.284711 0
M  V30 31 C 37.083487 35.070670 61.045332 0
M  V30 32 C 38.904891 36.809892 63.458088 0
M  V30 33 C 38.846323 30.709731 60.385612 0
M  V30 34 C 37.761059 36.410043 60.708133 0
M  V30 35 C 40.338971 30.988195 62.401805 0
M  V30 36 H 38.384064 28.162925 58.745894 0
M  V30 37 H 37.314610 30.137046 57.756643 0
M  V30 38 H 43.362580 30.587361 66.117073 0
M  V30 39 H 43.750278 29.148872 65.180571 0
M  V30 40 H 42.379857 29.135656 66.303101 0
M  V30 41 H 36.923935 34.312396 59.143963 0
M  V30 42 H 40.590942 33.009334 63.193508 0
M  V30 43 H 38.167863 33.630635 55.775543 0
M  V30 44 H 39.650190 33.221217 56.605745 0
M  V30 45 H 39.241658 29.985988 52.797044 0
M  V30 46 H 37.790261 29.773122 53.774486 0
M  V30 47 H 39.356772 29.255356 54.394754 0
M  V30 48 H 42.778086 27.621348 63.289400 0
M  V30 49 H 41.067300 27.239630 63.053499 0
M  V30 50 H 41.683369 27.471218 64.676070 0
M  V30 51 H 40.139793 31.622033 54.426645 0
M  V30 52 H 38.591089 32.164303 53.797994 0
M  V30 53 H 42.343155 35.051277 64.001442 0
M  V30 54 H 40.298737 33.327182 61.161265 0
M  V30 55 H 38.780731 33.291842 62.057638 0
M  V30 56 H 41.066175 35.910538 65.950738 0
M  V30 57 H 42.092453 32.299154 65.032326 0
M  V30 58 H 37.484306 31.190979 55.858818 0
M  V30 59 H 39.088625 30.805739 56.467496 0
M  V30 60 H 39.262876 34.353090 59.489323 0
M  V30 61 H 36.005881 35.221429 61.073469 0
M  V30 62 H 37.349448 34.743893 62.043386 0
M  V30 63 H 37.225024 37.254939 61.133542 0
M  V30 64 H 37.696621 36.578792 59.631820 0
M  V30 65 H 36.946454 31.593472 59.760117 0
M  V30 END ATOM
M  V30 BEGIN BOND
M  V30 1 2 3 2
M  V30 2 1 7 3
M  V30 3 1 15 10
M  V30 4 1 16 6
M  V30 5 1 16 7
M  V30 6 2 17 5
M  V30 7 1 17 12
M  V30 8 1 19 14
M  V30 9 1 20 5
M  V30 10 1 21 5
M  V30 11 1 22 11
M  V30 12 1 23 1
M  V30 13 1 23 18
M  V30 14 1 24 10
M  V30 15 2 24 21
M  V30 16 2 25 9
M  V30 17 1 26 13
M  V30 18 1 26 19
M  V30 19 1 27 6
M  V30 20 1 27 8
M  V30 21 1 27 22
M  V30 22 1 28 4
M  V30 23 2 28 23
M  V30 24 1 28 25
M  V30 25 1 29 6
M  V30 26 1 29 13
M  V30 27 1 31 8
M  V30 28 2 32 10
M  V30 29 1 32 17
M  V30 30 1 32 30
M  V30 31 1 33 2
M  V30 32 2 33 11
M  V30 33 1 33 16
M  V30 34 1 34 12
M  V30 35 1 34 31
M  V30 36 2 35 1
M  V30 37 1 35 9
M  V30 38 1 35 11
M  V30 39 1 36 3
M  V30 40 1 37 7
M  V30 41 1 38 4
M  V30 42 1 39 4
M  V30 43 1 40 4
M  V30 44 1 41 8
M  V30 45 1 42 9
M  V30 46 1 43 13
M  V30 47 1 44 13
M  V30 48 1 45 14
M  V30 49 1 46 14
M  V30 50 1 47 14
M  V30 51 1 48 18
M  V30 52 1 49 18
M  V30 53 1 50 18
M  V30 54 1 51 19
M  V30 55 1 52 19
M  V30 56 1 53 21
M  V30 57 1 54 22
M  V30 58 1 55 22
M  V30 59 1 56 24
M  V30 60 1 57 25
M  V30 61 1 58 26
M  V30 62 1 59 26
M  V30 63 1 27 60 CFG=3
M  V30 64 1 61 31
M  V30 65 1 62 31
M  V30 66 1 63 34
M  V30 67 1 64 34
M  V30 68 1 16 65 CFG=1
M  V30 END BOND
M  V30 END CTAB
M  END
>  <i_epik_Tot_Q>  (1) 
1

>  <i_epik_Tot_abs_Q>  (1) 
1

>  <i_i_glide_confnum>  (1) 
543

>  <i_i_glide_lignum>  (1) 
21

>  <i_i_glide_posenum>  (1) 
268

>  <i_i_glide_rotatable_bonds>  (1) 
10

>  <i_lp_mmshare_version>  (1) 
72125

>  <i_m_source_file_index>  (1) 
7

>  <i_f3d_flags>  (1) 
0

>  <num_sample>  (1) 
50

>  <b_lp_Chiralities_Consistent>  (1) 
1

>  <r_epik_Charging_Adjusted_Penalty>  (1) 
0.81638474559902796

>  <r_epik_Ionization_Penalty>  (1) 
6.3086919552564762

>  <r_epik_Ionization_Penalty_Charging>  (1) 
0

>  <r_epik_Ionization_Penalty_Neutral>  (1) 
6.3086919552564762

>  <r_epik_State_Penalty>  (1) 
0.81638474559902796

>  <r_glide_ring_energy>  (1) 
0

>  <r_i_docking_score>  (1) 
-5.3546608676389669

>  <r_i_glide_ecoul>  (1) 
-2.56050875382225

>  <r_i_glide_eff_state_penalty>  (1) 
0.81638474559902796

>  <r_i_glide_einternal>  (1) 
13.908533168830814

>  <r_i_glide_emodel>  (1) 
-55.128374663090554

>  <r_i_glide_emodel_strain>  (1) 
0.19361586389179308

>  <r_i_glide_energy>  (1) 
-44.396698891766682

>  <r_i_glide_erotb>  (1) 
0.67408029721787976

>  <r_i_glide_esite>  (1) 
-0.19622036657964642

>  <r_i_glide_evdw>  (1) 
-41.836190137944435

>  <r_i_glide_gscore>  (1) 
-6.1710456132379949

>  <r_i_glide_gscore_strain>  (1) 
0

>  <r_i_glide_hbond>  (1) 
0

>  <r_i_glide_ligand_efficiency>  (1) 
-0.15299031050397049

>  <r_i_glide_ligand_efficiency_ln>  (1) 
-1.1754669007417649

>  <r_i_glide_ligand_efficiency_sa>  (1) 
-0.50044145047482946

>  <r_i_glide_lipo>  (1) 
-2.3702864282810387

>  <r_i_glide_metal>  (1) 
-0

>  <r_i_glide_rewards>  (1) 
-1.8027332956246294

>  <r_lp_Energy>  (1) 
46.442794999999997

>  <r_lp_tautomer_probability>  (1) 
0.23620936778007409

>  <s_epik_Chemistry_Notes>  (1) 
This compound has an imine and may undergo hydrolysis. This compound contains an acetal/aminal-like group ( X-CH(R)-Y where X, Y are N, S, or O) that may be acid/base labile, releasing an aldehyde. This compound has a N-S or N-O group and may undergo hydrolysis at high or low pH.

>  <s_epik_cmdline>  (1) 
J2VwaWtfcHl0aG9uJywgJy1waHQnLCAnMS4wJywgJy1waCcsICc3LjQnLCAnLXRuJywgJzgnLCAnLW1hJywgJzUwMCcsICctaW1hZScsICc8aW5maWxlLm1hZT4nLCAnLW9tYWUnLCAnPG91dGZpbGUubWFlPic=

>  <s_epik_input>  (1) 
W0NIM11jMVtjSF1bY0hdYyhuYzFbQ0gzXSlOKEMoQzIzKT1OW0NIMl1OPTMpW0NIMl1bQ0BASF0oTjJPW0NIMl1bQ0gyXVtDSDJdW0NIM10pW05IXVtDSDJdW0NIMl1PYyhjNEYpYyhGKWMoRilbY0hdW2NIXTQ=

>  <s_glide_docking_method>  (1) 
confgen

>  <s_i_glide_gridfile>  (1) 
gpcr_5ht2c_6bqh_protein_autoprepared_prepared

>  <s_lp_Force_Field>  (1) 
S-OPLS

>  <s_lp_Variant>  (1) 
DiffSBDD_6_num_sample_50-2

>  <s_m_source_file>  (1) 
generated__ligand_DiffSBDD_2026-05-06_prepared.sdf

>  <GenAI_Model>  (1) 
DiffSBDD

>  <Protein>  (1) 
GPCR_5HT2C

$$$$
DiffSBDD_2_num_sample_50
     RDKit          3D

  0  0  0  0  0  0  0  0  0  0999 V3000
M  V30 BEGIN CTAB
M  V30 COUNTS 69 73 0 0 1
M  V30 BEGIN ATOM
M  V30 1 C 38.053907 29.720169 58.002647 0
M  V30 2 C 40.048727 35.138723 62.293730 0
M  V30 3 C 37.994541 32.289281 56.190784 0
M  V30 4 C 34.754910 33.601718 59.800686 0
M  V30 5 F 41.769963 35.130029 63.942451 0
M  V30 6 C 41.037538 34.352802 63.144524 0
M  V30 7 C 37.717973 30.578760 58.926019 0
M  V30 8 C 38.931892 29.253518 59.848067 0
M  V30 9 C 36.922194 32.660438 61.648274 0
M  V30 10 C 37.467011 32.805582 57.557643 0 CFG=1
M  V30 11 C 40.016629 27.933193 57.920295 0
M  V30 12 C 40.985738 30.488843 62.520378 0 CFG=2
M  V30 13 C 35.898811 37.223152 59.808305 0
M  V30 14 C 38.419770 35.195001 60.455363 0
M  V30 15 C 40.023500 27.594638 56.443109 0
M  V30 16 C 39.506660 33.216509 58.563113 0
M  V30 17 C 37.612415 34.453485 59.335339 0 CFG=2
M  V30 18 C 41.044914 27.657272 58.730810 0
M  V30 19 O 41.500630 30.366752 63.826653 0
M  V30 20 O 36.073092 31.614177 61.851054 0
M  V30 21 C 38.978320 37.242677 61.689287 0
M  V30 22 F 40.403002 33.443998 63.879321 0
M  V30 23 O 39.568346 30.603240 62.434098 0
M  V30 24 C 39.863876 36.518037 62.506857 0
M  V30 25 C 40.119590 29.308965 62.123139 0 CFG=1
M  V30 26 C 39.323000 34.479190 61.284070 0
M  V30 27 P 36.552971 33.127954 59.950769 0 CFG=2 CHG=1
M  V30 28 C 41.029369 28.022471 60.150005 0
M  V30 29 C 36.924628 31.839693 58.675575 0 CFG=2
M  V30 30 C 37.402468 37.417514 59.710713 0
M  V30 31 C 38.759567 28.546938 58.458479 0 CFG=2
M  V30 32 N 38.138752 30.226967 60.186200 0
M  V30 33 N 38.267571 33.806377 58.208607 0
M  V30 34 C 38.270321 36.594447 60.649047 0
M  V30 35 F 41.860050 33.701484 62.323503 0
M  V30 36 C 40.051128 28.782395 60.708475 0
M  V30 37 H 37.793018 29.827923 56.961806 0
M  V30 38 H 37.236898 31.719195 55.653054 0
M  V30 39 H 38.257762 33.132150 55.551460 0
M  V30 40 H 38.879950 31.662471 56.254611 0
M  V30 41 H 34.583361 34.321766 59.000971 0
M  V30 42 H 34.139723 32.728028 59.586512 0
M  V30 43 H 34.406294 34.019874 60.742934 0
M  V30 44 H 36.667499 33.503648 62.263084 0
M  V30 45 H 37.930641 32.326040 61.853893 0
M  V30 46 H 36.666966 33.461032 57.249715 0
M  V30 47 H 41.532124 31.132537 61.831157 0
M  V30 48 H 35.469000 37.619899 58.894799 0
M  V30 49 H 35.568651 36.191301 59.852154 0
M  V30 50 H 35.487532 37.776761 60.645355 0
M  V30 51 H 40.028312 28.505291 55.847935 0
M  V30 52 H 40.897807 27.008784 56.159613 0
M  V30 53 H 39.130598 27.029299 56.178938 0
M  V30 54 H 39.867846 32.813128 57.635936 0
M  V30 55 H 40.214666 33.984438 58.869166 0
M  V30 56 H 39.465679 32.440837 59.320005 0
M  V30 57 H 36.971805 35.150361 58.811349 0
M  V30 58 H 41.921712 27.174976 58.323257 0
M  V30 59 H 41.347970 31.175246 64.293624 0
M  V30 60 H 36.497952 30.871726 61.432398 0
M  V30 61 H 38.863110 38.306315 61.836784 0
M  V30 62 H 40.415100 37.028323 63.287004 0
M  V30 63 H 39.876178 28.554765 62.867576 0
M  V30 64 H 39.473074 33.428232 61.140120 0
M  V30 65 H 41.867059 27.732566 60.761920 0
M  V30 66 H 35.935416 31.398662 58.653492 0
M  V30 67 H 37.634070 38.470897 59.870529 0
M  V30 68 H 37.733531 37.222928 58.690337 0
M  V30 69 H 38.019264 27.749643 58.544160 0
M  V30 END ATOM
M  V30 BEGIN BOND
M  V30 1 1 6 2
M  V30 2 1 6 5
M  V30 3 2 7 1
M  V30 4 1 10 3
M  V30 5 1 15 11
M  V30 6 1 17 14
M  V30 7 2 18 11
M  V30 8 1 19 12
M  V30 9 1 20 9
M  V30 10 1 22 6
M  V30 11 1 23 12
M  V30 12 1 24 2
M  V30 13 2 24 21
M  V30 14 1 25 12
M  V30 15 1 25 23
M  V30 16 2 26 2
M  V30 17 1 26 14
M  V30 18 1 27 4 CFG=1
M  V30 19 1 27 9
M  V30 20 1 27 17
M  V30 21 1 28 18
M  V30 22 1 29 7
M  V30 23 1 29 10
M  V30 24 1 29 27
M  V30 25 1 30 13
M  V30 26 1 31 1
M  V30 27 1 31 8
M  V30 28 1 31 11
M  V30 29 1 32 7
M  V30 30 2 32 8
M  V30 31 1 33 10
M  V30 32 1 33 16
M  V30 33 1 33 17
M  V30 34 2 34 14
M  V30 35 1 34 21
M  V30 36 1 34 30
M  V30 37 1 35 6
M  V30 38 1 36 8
M  V30 39 1 36 25
M  V30 40 2 36 28
M  V30 41 1 37 1
M  V30 42 1 38 3
M  V30 43 1 39 3
M  V30 44 1 40 3
M  V30 45 1 41 4
M  V30 46 1 42 4
M  V30 47 1 43 4
M  V30 48 1 44 9
M  V30 49 1 45 9
M  V30 50 1 10 46 CFG=3
M  V30 51 1 12 47 CFG=3
M  V30 52 1 48 13
M  V30 53 1 49 13
M  V30 54 1 50 13
M  V30 55 1 51 15
M  V30 56 1 52 15
M  V30 57 1 53 15
M  V30 58 1 54 16
M  V30 59 1 55 16
M  V30 60 1 56 16
M  V30 61 1 17 57 CFG=3
M  V30 62 1 58 18
M  V30 63 1 59 19
M  V30 64 1 60 20
M  V30 65 1 61 21
M  V30 66 1 62 24
M  V30 67 1 25 63 CFG=1
M  V30 68 1 64 26
M  V30 69 1 65 28
M  V30 70 1 29 66 CFG=3
M  V30 71 1 67 30
M  V30 72 1 68 30
M  V30 73 1 31 69 CFG=1
M  V30 END BOND
M  V30 END CTAB
M  END
>  <i_epik_Tot_Q>  (1) 
1

>  <i_epik_Tot_abs_Q>  (1) 
1

>  <i_i_glide_confnum>  (1) 
79

>  <i_i_glide_lignum>  (1) 
8

>  <i_i_glide_posenum>  (1) 
34

>  <i_i_glide_rotatable_bonds>  (1) 
8

>  <i_lp_mmshare_version>  (1) 
72125

>  <i_m_source_file_index>  (1) 
3

>  <i_f3d_flags>  (1) 
0

>  <num_sample>  (1) 
50

>  <b_lp_Chiralities_Consistent>  (1) 
1

>  <r_epik_Charging_Adjusted_Penalty>  (1) 
0.0033292626678827373

>  <r_epik_Ionization_Penalty>  (1) 
0.0034349233012131116

>  <r_epik_Ionization_Penalty_Charging>  (1) 
0

>  <r_epik_Ionization_Penalty_Neutral>  (1) 
0.0034349233012131116

>  <r_epik_State_Penalty>  (1) 
0.0033292626678827373

>  <r_glide_ring_energy>  (1) 
0

>  <r_i_docking_score>  (1) 
-5.3145732790707028

>  <r_i_glide_ecoul>  (1) 
-5.0294994862781115

>  <r_i_glide_eff_state_penalty>  (1) 
0.0033292626678827373

>  <r_i_glide_einternal>  (1) 
4.0615204200389492

>  <r_i_glide_emodel>  (1) 
-6.3191261305866977

>  <r_i_glide_emodel_strain>  (1) 
4.0656925612622814

>  <r_i_glide_energy>  (1) 
-7.6648308928845692

>  <r_i_glide_erotb>  (1) 
0.30231676593683265

>  <r_i_glide_esite>  (1) 
-0.060378496267801257

>  <r_i_glide_evdw>  (1) 
-2.6353314066064577

>  <r_i_glide_gscore>  (1) 
-5.3179025417385857

>  <r_i_glide_gscore_strain>  (1) 
0.01642314031557035

>  <r_i_glide_hbond>  (1) 
-0.28263796553872628

>  <r_i_glide_ligand_efficiency>  (1) 
-0.14762703552974174

>  <r_i_glide_ligand_efficiency_ln>  (1) 
-1.1594963063163075

>  <r_i_glide_ligand_efficiency_sa>  (1) 
-0.48745373128918956

>  <r_i_glide_lipo>  (1) 
-2.7482643549998489

>  <r_i_glide_metal>  (1) 
-0

>  <r_i_glide_rewards>  (1) 
-1.6591701379125734

>  <r_lp_Energy>  (1) 
42.025849000000001

>  <s_epik_Chemistry_Notes>  (1) 
This compound has an imine and may undergo hydrolysis. This compound contains an acetal/aminal-like group ( X-CH(R)-Y where X, Y are N, S, or O) that may be acid/base labile, releasing an aldehyde.

>  <s_epik_cmdline>  (1) 
J2VwaWtfcHl0aG9uJywgJy1waHQnLCAnMS4wJywgJy1waCcsICc3LjQnLCAnLXRuJywgJzgnLCAnLW1hJywgJzUwMCcsICctaW1hZScsICc8aW5maWxlLm1hZT4nLCAnLW9tYWUnLCAnPG91dGZpbGUubWFlPic=

>  <s_epik_input>  (1) 
W09IXVtDSF0xT1tDQEhdMUMyPVtDSF1bQ0hdPUMoW0NIM10pW0NAQEhdKEMyPTMpW0NIXT1DKE4zKVtDQEBIXTRbQ0BIXShbQ0gzXSlOKFtDSDNdKVtDQEBIXShbUEArXTQoW0NIM10pW0NIMl1bT0hdKWMoW2NIXTUpYyhbQ0gyXVtDSDNdKVtjSF1bY0hdYzVDKEYpKEYpRg==

>  <s_glide_docking_method>  (1) 
confgen

>  <s_i_glide_gridfile>  (1) 
gpcr_5ht2c_6bqh_protein_autoprepared_prepared

>  <s_lp_Force_Field>  (1) 
S-OPLS

>  <s_lp_Variant>  (1) 
DiffSBDD_2_num_sample_50-1

>  <s_m_source_file>  (1) 
generated__ligand_DiffSBDD_2026-05-06_prepared.sdf

>  <GenAI_Model>  (1) 
DiffSBDD

>  <Protein>  (1) 
GPCR_5HT2C

$$$$
DiffSBDD_10_num_sample_50
     RDKit          3D

  0  0  0  0  0  0  0  0  0  0999 V3000
M  V30 BEGIN CTAB
M  V30 COUNTS 65 67 0 0 1
M  V30 BEGIN ATOM
M  V30 1 C 38.465773 25.326789 58.172195 0
M  V30 2 C 37.228098 25.853785 57.430464 0
M  V30 3 C 39.242927 28.902650 52.046450 0
M  V30 4 N 38.702111 26.887265 55.776743 0 CFG=2 CHG=1
M  V30 5 O 38.528895 30.964014 62.653500 0 CHG=-1
M  V30 6 O 41.748858 27.980488 58.653470 0
M  V30 7 C 35.137700 32.624751 59.822996 0
M  V30 8 C 38.838770 29.624126 53.195411 0
M  V30 9 C 37.718069 33.740778 59.715276 0
M  V30 10 O 39.530326 33.219936 61.954907 0
M  V30 11 N 36.083269 30.421538 60.064503 0
M  V30 12 C 38.655855 28.948616 54.414424 0
M  V30 13 C 38.842359 29.980354 59.471303 0
M  V30 14 C 36.263542 31.786543 59.924760 0
M  V30 15 C 37.513995 25.997609 55.922297 0 CFG=1
M  V30 16 C 36.562366 23.612370 55.473161 0
M  V30 17 C 38.889781 27.578619 54.475197 0
M  V30 18 O 40.918434 31.081192 61.718398 0
M  V30 19 C 39.937435 26.360250 56.397191 0
M  V30 20 N 39.534332 27.534970 58.508443 0
M  V30 21 C 37.634505 24.657205 55.150917 0
M  V30 22 P 39.510999 31.549942 61.722879 0
M  V30 23 C 36.759708 36.066008 59.441683 0
M  V30 24 C 35.299660 34.008876 59.655420 0
M  V30 25 C 40.580238 28.317857 58.819566 0
M  V30 26 N 40.226436 29.510239 59.333386 0
M  V30 27 C 39.467379 27.510675 52.129918 0
M  V30 28 O 38.263080 29.622926 55.531624 0 CHG=-1
M  V30 29 F 39.425149 29.547302 50.870125 0
M  V30 30 C 39.304569 26.849605 53.361977 0
M  V30 31 C 37.567342 32.343492 59.871281 0
M  V30 32 C 39.701924 26.209028 57.906153 0 CFG=1
M  V30 33 C 38.826835 31.459641 59.968224 0 CFG=2
M  V30 34 C 36.587966 34.569791 59.608398 0
M  V30 35 H 38.667956 24.304357 57.851418 0
M  V30 36 H 38.267556 25.268845 59.237606 0
M  V30 37 H 36.360719 25.221740 57.617616 0
M  V30 38 H 36.957878 26.831142 57.835226 0
M  V30 39 H 34.145577 32.201339 59.853645 0
M  V30 40 H 38.670985 30.688562 53.136484 0
M  V30 41 H 38.706285 34.173875 59.673840 0
M  V30 42 H 39.536912 33.351319 62.889495 0
M  V30 43 H 35.180039 30.020673 59.864950 0
M  V30 44 H 36.867748 29.803730 59.934600 0
M  V30 45 H 38.339987 29.324858 60.183646 0
M  V30 46 H 38.342875 29.922006 58.500618 0
M  V30 47 H 36.667324 26.506496 55.472465 0
M  V30 48 H 36.667784 22.750009 54.814629 0
M  V30 49 H 36.663137 23.245331 56.494351 0
M  V30 50 H 35.557546 24.013010 55.345471 0
M  V30 51 H 40.761252 27.052143 56.210113 0
M  V30 52 H 40.244526 25.414925 55.952745 0
M  V30 53 H 38.598648 27.869820 58.680668 0
M  V30 54 H 37.547797 24.875207 54.089233 0
M  V30 55 H 38.605622 24.189424 55.296333 0
M  V30 56 H 35.817245 36.548450 59.186233 0
M  V30 57 H 37.137175 36.510444 60.363241 0
M  V30 58 H 37.467370 36.283895 58.643758 0
M  V30 59 H 34.433118 34.639710 59.559411 0
M  V30 60 H 40.959653 30.142651 59.624454 0
M  V30 61 H 39.781730 26.960165 51.256537 0
M  V30 62 H 39.502379 25.802747 53.453482 0
M  V30 63 H 40.574348 25.715930 58.334605 0
M  V30 64 H 39.467384 32.016174 59.303725 0
M  V30 65 H 38.470243 27.666590 56.383235 0
M  V30 END ATOM
M  V30 BEGIN BOND
M  V30 1 1 2 1
M  V30 2 2 8 3
M  V30 3 1 12 8
M  V30 4 1 14 7
M  V30 5 1 14 11
M  V30 6 1 15 2
M  V30 7 1 15 4
M  V30 8 1 17 4
M  V30 9 2 17 12
M  V30 10 1 19 4
M  V30 11 1 21 15
M  V30 12 1 21 16
M  V30 13 1 22 5
M  V30 14 1 22 10
M  V30 15 2 22 18
M  V30 16 2 24 7
M  V30 17 2 25 6
M  V30 18 1 25 20
M  V30 19 1 26 13
M  V30 20 1 26 25
M  V30 21 1 27 3
M  V30 22 1 28 12
M  V30 23 1 29 3
M  V30 24 1 30 17
M  V30 25 2 30 27
M  V30 26 1 31 9
M  V30 27 2 31 14
M  V30 28 1 32 1
M  V30 29 1 32 19
M  V30 30 1 32 20
M  V30 31 1 33 13
M  V30 32 1 33 22
M  V30 33 1 33 31
M  V30 34 2 34 9
M  V30 35 1 34 23
M  V30 36 1 34 24
M  V30 37 1 35 1
M  V30 38 1 36 1
M  V30 39 1 37 2
M  V30 40 1 38 2
M  V30 41 1 39 7
M  V30 42 1 40 8
M  V30 43 1 41 9
M  V30 44 1 42 10
M  V30 45 1 43 11
M  V30 46 1 44 11
M  V30 47 1 45 13
M  V30 48 1 46 13
M  V30 49 1 15 47 CFG=3
M  V30 50 1 48 16
M  V30 51 1 49 16
M  V30 52 1 50 16
M  V30 53 1 51 19
M  V30 54 1 52 19
M  V30 55 1 53 20
M  V30 56 1 54 21
M  V30 57 1 55 21
M  V30 58 1 56 23
M  V30 59 1 57 23
M  V30 60 1 58 23
M  V30 61 1 59 24
M  V30 62 1 60 26
M  V30 63 1 61 27
M  V30 64 1 62 30
M  V30 65 1 32 63 CFG=1
M  V30 66 1 33 64 CFG=3
M  V30 67 1 4 65 CFG=1
M  V30 END BOND
M  V30 END CTAB
M  END
>  <i_epik_Tot_Q>  (1) 
-1

>  <i_epik_Tot_abs_Q>  (1) 
3

>  <i_i_glide_confnum>  (1) 
421

>  <i_i_glide_lignum>  (1) 
37

>  <i_i_glide_posenum>  (1) 
117

>  <i_i_glide_rotatable_bonds>  (1) 
10

>  <i_lp_mmshare_version>  (1) 
72125

>  <i_m_source_file_index>  (1) 
11

>  <i_f3d_flags>  (1) 
0

>  <num_sample>  (1) 
50

>  <b_lp_Chiralities_Consistent>  (1) 
1

>  <r_epik_Charging_Adjusted_Penalty>  (1) 
0.95893062563682818

>  <r_epik_Ionization_Penalty>  (1) 
0.45630296270815951

>  <r_epik_Ionization_Penalty_Charging>  (1) 
0.042165092744118775

>  <r_epik_Ionization_Penalty_Neutral>  (1) 
0.41413786996404073

>  <r_epik_State_Penalty>  (1) 
0.91676553289270946

>  <r_glide_ring_energy>  (1) 
0

>  <r_i_docking_score>  (1) 
-5.3105416505882976

>  <r_i_glide_ecoul>  (1) 
-0.23918959970126208

>  <r_i_glide_eff_state_penalty>  (1) 
0.91676553289270946

>  <r_i_glide_einternal>  (1) 
16.730918853846109

>  <r_i_glide_emodel>  (1) 
-49.659838005452883

>  <r_i_glide_emodel_strain>  (1) 
0.92841528246452754

>  <r_i_glide_energy>  (1) 
-41.94349999379498

>  <r_i_glide_erotb>  (1) 
0.66918926381983879

>  <r_i_glide_esite>  (1) 
-0.056983224842242802

>  <r_i_glide_evdw>  (1) 
-41.704310394093717

>  <r_i_glide_gscore>  (1) 
-6.227307183481007

>  <r_i_glide_gscore_strain>  (1) 
0

>  <r_i_glide_hbond>  (1) 
-0.11008872370042601

>  <r_i_glide_ligand_efficiency>  (1) 
-0.1561924014878911

>  <r_i_glide_ligand_efficiency_ln>  (1) 
-1.1732476062627899

>  <r_i_glide_ligand_efficiency_sa>  (1) 
-0.5060027471300429

>  <r_i_glide_lipo>  (1) 
-3.6486967236717871

>  <r_i_glide_metal>  (1) 
-0

>  <r_i_glide_rewards>  (1) 
-0.95963381542651471

>  <r_lp_Energy>  (1) 
25.832879999999999

>  <s_epik_cmdline>  (1) 
J2VwaWtfcHl0aG9uJywgJy1waHQnLCAnMS4wJywgJy1waCcsICc3LjQnLCAnLXRuJywgJzgnLCAnLW1hJywgJzUwMCcsICctaW1hZScsICc8aW5maWxlLm1hZT4nLCAnLW9tYWUnLCAnPG91dGZpbGUubWFlPic=

>  <s_epik_input>  (1) 
RmMxW2NIXWMoW09IXSljKFtjSF1bY0hdMSlOMltDQEBIXShbQ0gyXVtDSDNdKVtDSDJdW0NIMl1bQ0BASF0oW0NIMl0yKVtOSF1DKD1PKVtOSF1bQ0gyXVtDQEhdKFAoPU8pKFtPSF0pW09IXSljM1tjSF1jKFtDSDNdKVtjSF1bY0hdYzNbTkgyXQ==

>  <s_glide_docking_method>  (1) 
confgen

>  <s_i_glide_gridfile>  (1) 
gpcr_5ht2c_6bqh_protein_autoprepared_prepared

>  <s_lp_Force_Field>  (1) 
S-OPLS

>  <s_lp_Variant>  (1) 
DiffSBDD_10_num_sample_50-6

>  <s_m_source_file>  (1) 
generated__ligand_DiffSBDD_2026-05-06_prepared.sdf

>  <GenAI_Model>  (1) 
DiffSBDD

>  <Protein>  (1) 
GPCR_5HT2C

$$$$
DiffSBDD_12_num_sample_50
     RDKit          3D

  0  0  0  0  0  0  0  0  0  0999 V3000
M  V30 BEGIN CTAB
M  V30 COUNTS 69 71 0 0 1
M  V30 BEGIN ATOM
M  V30 1 C 39.541656 31.251187 54.080744 0
M  V30 2 C 38.976725 35.319404 61.411825 0
M  V30 3 C 37.183198 32.775485 59.902856 0
M  V30 4 O 37.868018 31.006277 58.358334 0
M  V30 5 N 39.115774 34.030365 60.882528 0
M  V30 6 F 43.344807 33.098523 66.131573 0
M  V30 7 N 36.133861 33.333107 60.334835 0
M  V30 8 C 38.635106 28.888658 54.387913 0
M  V30 9 C 36.524883 37.781334 61.512097 0
M  V30 10 C 39.362751 29.879789 53.494074 0
M  V30 11 C 38.707726 31.069725 55.355365 0
M  V30 12 C 37.729409 29.229648 56.696586 0
M  V30 13 C 42.314716 33.453758 65.344753 0
M  V30 14 C 40.831043 32.317693 63.569617 0
M  V30 15 N 38.219602 36.202931 60.650459 0
M  V30 16 N 39.764244 33.030759 61.612213 0
M  V30 17 C 37.248227 31.285789 59.608998 0
M  V30 18 C 39.338553 27.521070 54.488451 0
M  V30 19 N 39.519916 35.655249 62.540051 0
M  V30 20 O 39.971514 27.992732 58.131316 0
M  V30 21 C 41.161403 35.353249 64.197725 0
M  V30 22 C 38.474257 33.548212 59.655012 0
M  V30 23 O 36.267377 39.128423 61.845286 0
M  V30 24 C 38.111458 29.619771 58.140048 0 CFG=1
M  V30 25 C 37.228596 28.696692 53.791737 0
M  V30 26 C 40.358739 34.773656 63.250774 0
M  V30 27 C 42.193474 34.743109 65.035843 0
M  V30 28 C 40.344377 33.331188 62.830479 0
M  V30 29 C 41.369071 32.398889 64.948322 0
M  V30 30 C 39.500207 27.012223 59.034789 0
M  V30 31 C 37.972610 37.584850 61.058472 0
M  V30 32 C 39.589534 29.319218 58.469653 0
M  V30 33 O 39.767195 29.587312 52.368105 0
M  V30 34 N 38.680097 29.632696 55.657566 0
M  V30 35 H 39.144994 32.021444 53.422494 0
M  V30 36 H 40.594741 31.428087 54.297824 0
M  V30 37 H 36.243405 34.323073 60.498094 0
M  V30 38 H 39.186591 32.913485 59.127955 0
M  V30 39 H 35.867388 37.505869 60.689405 0
M  V30 40 H 36.294051 37.145242 62.368006 0
M  V30 41 H 37.695931 31.449423 55.195627 0
M  V30 42 H 39.135693 31.635255 56.183514 0
M  V30 43 H 37.638813 28.143360 56.683187 0
M  V30 44 H 36.736020 29.621609 56.469625 0
M  V30 45 H 40.759770 31.316406 63.169451 0
M  V30 46 H 37.807532 35.936897 59.768846 0
M  V30 47 H 39.741979 32.085786 61.260286 0
M  V30 48 H 37.798265 30.803157 60.418082 0
M  V30 49 H 39.562397 27.102991 53.506354 0
M  V30 50 H 40.267414 27.593524 55.053516 0
M  V30 51 H 38.715445 26.796474 55.012688 0
M  V30 52 H 41.056698 36.421411 64.302541 0
M  V30 53 H 36.238559 30.870924 59.610251 0
M  V30 54 H 38.261311 34.362243 58.965866 0
M  V30 55 H 36.208064 39.620715 61.034730 0
M  V30 56 H 37.466923 29.032644 58.796544 0
M  V30 57 H 37.267462 28.399351 52.742111 0
M  V30 58 H 36.667389 27.921982 54.310031 0
M  V30 59 H 36.667395 29.623058 53.853543 0
M  V30 60 H 42.930080 35.412835 65.452391 0
M  V30 61 H 41.866491 31.448303 65.145164 0
M  V30 62 H 40.521434 32.430133 65.633510 0
M  V30 63 H 39.867323 26.031430 58.732627 0
M  V30 64 H 39.867392 27.221522 60.039136 0
M  V30 65 H 38.412201 26.963545 59.053139 0
M  V30 66 H 38.655339 37.902010 61.847687 0
M  V30 67 H 38.174609 38.233459 60.206322 0
M  V30 68 H 40.221813 29.985295 57.883471 0
M  V30 69 H 39.811503 29.533311 59.516167 0
M  V30 END ATOM
M  V30 BEGIN BOND
M  V30 1 1 5 2
M  V30 2 2 7 3
M  V30 3 1 10 1
M  V30 4 1 10 8
M  V30 5 1 11 1
M  V30 6 1 13 6
M  V30 7 1 15 2
M  V30 8 1 16 5
M  V30 9 1 17 3
M  V30 10 1 17 4
M  V30 11 1 18 8
M  V30 12 2 19 2
M  V30 13 1 22 3
M  V30 14 1 22 5
M  V30 15 1 23 9
M  V30 16 1 24 4
M  V30 17 1 24 12
M  V30 18 1 25 8
M  V30 19 1 26 19
M  V30 20 2 26 21
M  V30 21 2 27 13
M  V30 22 1 27 21
M  V30 23 2 28 14
M  V30 24 1 28 16
M  V30 25 1 28 26
M  V30 26 1 29 13
M  V30 27 1 29 14
M  V30 28 1 30 20
M  V30 29 1 31 9
M  V30 30 1 31 15
M  V30 31 1 32 20
M  V30 32 1 32 24
M  V30 33 2 33 10
M  V30 34 1 34 8
M  V30 35 1 34 11
M  V30 36 1 34 12
M  V30 37 1 35 1
M  V30 38 1 36 1
M  V30 39 1 37 7
M  V30 40 1 38 22
M  V30 41 1 39 9
M  V30 42 1 40 9
M  V30 43 1 41 11
M  V30 44 1 42 11
M  V30 45 1 43 12
M  V30 46 1 44 12
M  V30 47 1 45 14
M  V30 48 1 46 15
M  V30 49 1 47 16
M  V30 50 1 48 17
M  V30 51 1 49 18
M  V30 52 1 50 18
M  V30 53 1 51 18
M  V30 54 1 52 21
M  V30 55 1 53 17
M  V30 56 1 54 22
M  V30 57 1 55 23
M  V30 58 1 24 56 CFG=1
M  V30 59 1 57 25
M  V30 60 1 58 25
M  V30 61 1 59 25
M  V30 62 1 60 27
M  V30 63 1 61 29
M  V30 64 1 62 29
M  V30 65 1 63 30
M  V30 66 1 64 30
M  V30 67 1 65 30
M  V30 68 1 66 31
M  V30 69 1 67 31
M  V30 70 1 68 32
M  V30 71 1 69 32
M  V30 END BOND
M  V30 END CTAB
M  END
>  <i_epik_Tot_Q>  (1) 
0

>  <i_epik_Tot_abs_Q>  (1) 
0

>  <i_i_glide_confnum>  (1) 
351

>  <i_i_glide_lignum>  (1) 
39

>  <i_i_glide_posenum>  (1) 
346

>  <i_i_glide_rotatable_bonds>  (1) 
13

>  <i_lp_mmshare_version>  (1) 
72125

>  <i_m_source_file_index>  (1) 
13

>  <i_f3d_flags>  (1) 
0

>  <num_sample>  (1) 
50

>  <b_lp_Chiralities_Consistent>  (1) 
1

>  <r_epik_Charging_Adjusted_Penalty>  (1) 
0.55554580925232466

>  <r_epik_Ionization_Penalty>  (1) 
0.16124304309229381

>  <r_epik_Ionization_Penalty_Charging>  (1) 
0

>  <r_epik_Ionization_Penalty_Neutral>  (1) 
0.16124304309229381

>  <r_epik_State_Penalty>  (1) 
0.55554580925232466

>  <r_glide_ring_energy>  (1) 
0.004571206772424714

>  <r_i_docking_score>  (1) 
-5.3055549193769824

>  <r_i_glide_ecoul>  (1) 
-1.772989820777594

>  <r_i_glide_eff_state_penalty>  (1) 
0.55554580925232466

>  <r_i_glide_einternal>  (1) 
11.907339473254293

>  <r_i_glide_emodel>  (1) 
-60.786325341445107

>  <r_i_glide_emodel_strain>  (1) 
1.3265176130623928

>  <r_i_glide_energy>  (1) 
-49.958751270610463

>  <r_i_glide_erotb>  (1) 
0.97331795518224939

>  <r_i_glide_esite>  (1) 
-0.036007993741726106

>  <r_i_glide_evdw>  (1) 
-48.185761449832867

>  <r_i_glide_gscore>  (1) 
-5.8611007286293075

>  <r_i_glide_gscore_strain>  (1) 
0

>  <r_i_glide_hbond>  (1) 
-0.2241481769770835

>  <r_i_glide_ligand_efficiency>  (1) 
-0.15604573292285243

>  <r_i_glide_ligand_efficiency_ln>  (1) 
-1.1721458974651378

>  <r_i_glide_ligand_efficiency_sa>  (1) 
-0.5055275979158671

>  <r_i_glide_lipo>  (1) 
-3.0281407314984676

>  <r_i_glide_metal>  (1) 
-0

>  <r_i_glide_rewards>  (1) 
-0.87088523598599721

>  <r_lp_Energy>  (1) 
34.747627000000001

>  <r_lp_tautomer_probability>  (1) 
0.49996700039999997

>  <s_epik_Chemistry_Notes>  (1) 
This compound has an imine and may undergo hydrolysis.

>  <s_epik_cmdline>  (1) 
J2VwaWtfcHl0aG9uJywgJy1waHQnLCAnMS4wJywgJy1waCcsICc3LjQnLCAnLXRuJywgJzgnLCAnLW1hJywgJzUwMCcsICctaW1hZScsICc8aW5maWxlLm1hZT4nLCAnLW9tYWUnLCAnPG91dGZpbGUubWFlPic=

>  <s_epik_input>  (1) 
W0NIM11DMShbQ0gzXSlDKD1PKVtDSDJdW0NIMl1OMVtDSDJdW0NAQEhdKFtDSDJdT1tDSDNdKU8vW0NIXT1DKFxbTkgyXSlbQ0gyXU4oQyg9TjIpW05IXVtDSDJdW0NIMl1bT0hdKVtOSF1DKEMyMyk9W0NIXVtDSDJdQyhGKT1bQ0hdW0NIXT0z

>  <s_glide_docking_method>  (1) 
confgen

>  <s_i_glide_gridfile>  (1) 
gpcr_5ht2c_6bqh_protein_autoprepared_prepared

>  <s_lp_Force_Field>  (1) 
S-OPLS

>  <s_lp_Variant>  (1) 
DiffSBDD_12_num_sample_50-1

>  <s_m_source_file>  (1) 
generated__ligand_DiffSBDD_2026-05-06_prepared.sdf

>  <GenAI_Model>  (1) 
DiffSBDD

>  <Protein>  (1) 
GPCR_5HT2C

$$$$
DiffSBDD_39_num_sample_50
     RDKit          3D

  0  0  0  0  0  0  0  0  0  0999 V3000
M  V30 BEGIN CTAB
M  V30 COUNTS 88 94 0 0 1
M  V30 BEGIN ATOM
M  V30 1 C 38.628569 31.137788 58.397665 0 CFG=2
M  V30 2 C 37.772143 30.585353 54.631285 0
M  V30 3 C 39.448418 30.252167 65.613711 0
M  V30 4 C 40.009456 29.454898 66.765559 0
M  V30 5 C 39.024818 32.471334 55.862498 0
M  V30 6 O 41.370628 34.221142 65.034154 0
M  V30 7 N 38.239778 30.443489 57.160347 0
M  V30 8 C 38.439579 24.441591 57.237501 0
M  V30 9 C 40.321376 30.108210 64.343148 0 CFG=2
M  V30 10 C 40.634638 33.941952 62.205871 0
M  V30 11 C 38.955443 30.041192 62.102445 0 CFG=2
M  V30 12 S 40.089943 28.843551 59.425606 0
M  V30 13 C 39.467408 29.784222 52.653556 0
M  V30 14 C 42.741393 34.518662 65.068918 0
M  V30 15 C 43.467406 33.474349 65.947576 0
M  V30 16 O 39.467405 28.713399 61.985149 0
M  V30 17 O 41.293984 29.173219 58.653582 0
M  V30 18 C 38.278312 27.366913 54.257191 0
M  V30 19 O 40.860691 31.558861 62.405107 0
M  V30 20 C 37.134580 29.516931 57.386981 0
M  V30 21 O 39.449235 24.657777 56.439108 0
M  V30 22 C 40.116707 26.942836 56.341154 0
M  V30 23 C 37.747377 31.921536 60.764279 0
M  V30 24 C 39.041447 30.322948 59.580312 0
M  V30 25 C 37.554869 32.037769 59.176327 0
M  V30 26 C 41.133172 32.925253 64.508822 0 CFG=2
M  V30 27 C 42.305659 29.356060 65.745466 0
M  V30 28 C 40.578629 28.604070 61.138884 0
M  V30 29 N 37.467665 24.406012 57.853501 0
M  V30 30 C 40.191085 30.553572 53.706622 0
M  V30 31 O 43.262908 32.167288 65.453479 0
M  V30 32 O 39.224895 27.714718 59.050412 0
M  V30 33 C 41.783247 30.428776 64.752128 0 CFG=2
M  V30 34 C 39.982836 28.217436 55.775938 0
M  V30 35 C 38.625600 30.722711 60.757307 0
M  V30 36 C 41.893120 31.855940 65.342145 0 CFG=2
M  V30 37 C 38.408951 26.093485 54.830986 0
M  V30 38 C 39.330179 25.884018 55.873984 0
M  V30 39 C 38.957157 29.784315 54.093081 0
M  V30 40 C 39.793056 30.898589 63.087694 0 CFG=2
M  V30 41 C 37.994739 31.327272 55.992107 0 CFG=2
M  V30 42 C 41.325102 32.799210 62.964369 0 CFG=2
M  V30 43 C 41.285842 29.051828 66.826886 0
M  V30 44 C 39.067601 28.439143 54.724431 0
M  V30 45 H 39.467396 31.776436 58.171183 0
M  V30 46 H 36.887210 29.950315 54.662680 0
M  V30 47 H 37.534459 31.345877 53.888325 0
M  V30 48 H 38.399919 30.021515 65.453457 0
M  V30 49 H 39.466873 31.267919 65.968092 0
M  V30 50 H 39.330653 29.221385 67.569977 0
M  V30 51 H 38.869754 33.023891 54.938233 0
M  V30 52 H 38.915447 33.206237 56.659209 0
M  V30 53 H 40.051554 32.107568 55.876470 0
M  V30 54 H 40.327994 29.048524 64.095633 0
M  V30 55 H 41.110501 34.898872 62.421151 0
M  V30 56 H 40.680570 33.787054 61.127811 0
M  V30 57 H 39.587316 34.029694 62.491082 0
M  V30 58 H 37.999681 29.940160 62.612295 0
M  V30 59 H 39.966696 28.894254 52.275145 0
M  V30 60 H 39.067404 30.421518 51.884133 0
M  V30 61 H 42.874224 35.529279 65.453809 0
M  V30 62 H 43.067426 34.518201 64.038623 0
M  V30 63 H 43.142216 33.541836 66.986573 0
M  V30 64 H 44.544962 33.621413 65.924875 0
M  V30 65 H 37.576417 27.525209 53.450874 0
M  V30 66 H 37.072055 28.821412 56.559646 0
M  V30 67 H 37.258563 28.918742 58.285257 0
M  V30 68 H 36.177536 30.021429 57.470840 0
M  V30 69 H 40.823628 26.777794 57.140851 0
M  V30 70 H 36.806998 31.758471 61.290627 0
M  V30 71 H 38.261017 32.785383 61.178683 0
M  V30 72 H 36.552109 31.679063 58.952403 0
M  V30 73 H 37.582560 33.075682 58.840467 0
M  V30 74 H 40.076275 32.853541 64.728931 0
M  V30 75 H 43.237682 29.678212 66.208987 0
M  V30 76 H 42.525626 28.429484 65.214444 0
M  V30 77 H 41.340349 29.332644 61.393855 0
M  V30 78 H 41.034233 27.621452 61.216013 0
M  V30 79 H 40.135499 31.621431 53.570534 0
M  V30 80 H 41.067410 30.206992 54.218410 0
M  V30 81 H 42.423099 30.369722 63.870473 0
M  V30 82 H 40.592690 29.030388 56.138141 0
M  V30 83 H 41.504306 31.875155 66.360581 0
M  V30 84 H 37.803069 25.274749 54.471890 0
M  V30 85 H 39.087423 31.666548 63.390264 0
M  V30 86 H 37.067423 31.850578 56.167415 0
M  V30 87 H 42.387482 32.840593 62.724102 0
M  V30 88 H 41.629268 28.482770 67.678244 0
M  V30 END ATOM
M  V30 BEGIN BOND
M  V30 1 1 4 3
M  V30 2 1 7 1
M  V30 3 1 9 3
M  V30 4 1 14 6
M  V30 5 1 15 14
M  V30 6 1 16 11
M  V30 7 2 17 12
M  V30 8 1 20 7
M  V30 9 1 21 8
M  V30 10 1 24 1
M  V30 11 1 24 12
M  V30 12 1 25 1
M  V30 13 1 25 23
M  V30 14 1 26 6
M  V30 15 1 28 12
M  V30 16 1 28 16
M  V30 17 3 29 8
M  V30 18 1 30 13
M  V30 19 1 31 15
M  V30 20 2 32 12
M  V30 21 1 33 9
M  V30 22 1 33 27
M  V30 23 2 34 22
M  V30 24 1 35 11
M  V30 25 1 35 23
M  V30 26 2 35 24
M  V30 27 1 36 26
M  V30 28 1 36 31
M  V30 29 1 36 33
M  V30 30 1 37 18
M  V30 31 1 38 21
M  V30 32 1 38 22
M  V30 33 2 38 37
M  V30 34 1 39 2
M  V30 35 1 39 13
M  V30 36 1 39 30
M  V30 37 1 40 9
M  V30 38 1 40 11
M  V30 39 1 40 19
M  V30 40 1 41 2
M  V30 41 1 41 5
M  V30 42 1 41 7
M  V30 43 1 42 10
M  V30 44 1 42 19
M  V30 45 1 42 26
M  V30 46 2 43 4
M  V30 47 1 43 27
M  V30 48 2 44 18
M  V30 49 1 44 34
M  V30 50 1 44 39
M  V30 51 1 1 45 CFG=3
M  V30 52 1 46 2
M  V30 53 1 47 2
M  V30 54 1 48 3
M  V30 55 1 49 3
M  V30 56 1 50 4
M  V30 57 1 51 5
M  V30 58 1 52 5
M  V30 59 1 53 5
M  V30 60 1 9 54 CFG=3
M  V30 61 1 55 10
M  V30 62 1 56 10
M  V30 63 1 57 10
M  V30 64 1 11 58 CFG=1
M  V30 65 1 59 13
M  V30 66 1 60 13
M  V30 67 1 61 14
M  V30 68 1 62 14
M  V30 69 1 63 15
M  V30 70 1 64 15
M  V30 71 1 65 18
M  V30 72 1 66 20
M  V30 73 1 67 20
M  V30 74 1 68 20
M  V30 75 1 69 22
M  V30 76 1 70 23
M  V30 77 1 71 23
M  V30 78 1 72 25
M  V30 79 1 73 25
M  V30 80 1 26 74 CFG=3
M  V30 81 1 75 27
M  V30 82 1 76 27
M  V30 83 1 77 28
M  V30 84 1 78 28
M  V30 85 1 79 30
M  V30 86 1 80 30
M  V30 87 1 33 81 CFG=3
M  V30 88 1 82 34
M  V30 89 1 36 83 CFG=1
M  V30 90 1 84 37
M  V30 91 1 40 85 CFG=1
M  V30 92 1 41 86 CFG=1
M  V30 93 1 42 87 CFG=1
M  V30 94 1 88 43
M  V30 END BOND
M  V30 END CTAB
M  END
>  <i_epik_Tot_Q>  (1) 
0

>  <i_epik_Tot_abs_Q>  (1) 
0

>  <i_i_glide_confnum>  (1) 
523

>  <i_i_glide_lignum>  (1) 
93

>  <i_i_glide_posenum>  (1) 
32

>  <i_i_glide_rotatable_bonds>  (1) 
7

>  <i_lp_mmshare_version>  (1) 
72125

>  <i_m_source_file_index>  (1) 
40

>  <i_f3d_flags>  (1) 
0

>  <num_sample>  (1) 
50

>  <b_lp_Chiralities_Consistent>  (1) 
1

>  <r_epik_Charging_Adjusted_Penalty>  (1) 
0

>  <r_epik_Ionization_Penalty>  (1) 
0.0018775400200383807

>  <r_epik_Ionization_Penalty_Charging>  (1) 
0

>  <r_epik_Ionization_Penalty_Neutral>  (1) 
0.0018775400200383807

>  <r_epik_State_Penalty>  (1) 
-0

>  <r_glide_ring_energy>  (1) 
0

>  <r_i_docking_score>  (1) 
-5.3015448492472599

>  <r_i_glide_ecoul>  (1) 
1.0113833059158643

>  <r_i_glide_eff_state_penalty>  (1) 
-0

>  <r_i_glide_einternal>  (1) 
3.767719203702999

>  <r_i_glide_emodel>  (1) 
-38.235752364508691

>  <r_i_glide_emodel_strain>  (1) 
2.019614011263613

>  <r_i_glide_energy>  (1) 
-40.444755391099513

>  <r_i_glide_erotb>  (1) 
0.2436664055198263

>  <r_i_glide_esite>  (1) 
0

>  <r_i_glide_evdw>  (1) 
-41.456138697015376

>  <r_i_glide_gscore>  (1) 
-5.3015448492472599

>  <r_i_glide_gscore_strain>  (1) 
0

>  <r_i_glide_hbond>  (1) 
0

>  <r_i_glide_ligand_efficiency>  (1) 
-0.12048965566471045

>  <r_i_glide_ligand_efficiency_ln>  (1) 
-1.1081385260444376

>  <r_i_glide_ligand_efficiency_sa>  (1) 
-0.42537045529992118

>  <r_i_glide_lipo>  (1) 
-4.1295246962061363

>  <r_i_glide_metal>  (1) 
-0

>  <r_i_glide_rewards>  (1) 
0.50541288040243915

>  <r_lp_Energy>  (1) 
39.908791999999998

>  <r_lp_tautomer_probability>  (1) 
1

>  <s_epik_cmdline>  (1) 
J2VwaWtfcHl0aG9uJywgJy1waHQnLCAnMS4wJywgJy1waCcsICc3LjQnLCAnLXRuJywgJzgnLCAnLW1hJywgJzUwMCcsICctaW1hZScsICc8aW5maWxlLm1hZT4nLCAnLW9tYWUnLCAnPG91dGZpbGUubWFlPic=

>  <s_epik_input>  (1) 
TiNDT2MxW2NIXVtjSF1jKFtjSF1bY0hdMSlDMihbQ0gyXVtDSDJdMilbQ0gyXVtDQEhdKFtDSDNdKU4oW0NIM10pW0NASF0zW0NIMl1bQ0gyXUMoPUMzNClbQ0BASF0oT1tDSDJdUzQoPU8pPU8pW0NAQEhdNU9bQ0BASF0oW0NIM10pW0NASF0oT1tDSDJdW0NIMl1PNilbQ0BIXTZbQ0BIXShbQ0BIXTU3KVtDSDJdW0NIXT1bQ0hdW0NIMl03

>  <s_glide_docking_method>  (1) 
confgen

>  <s_i_glide_gridfile>  (1) 
gpcr_5ht2c_6bqh_protein_autoprepared_prepared

>  <s_lp_Force_Field>  (1) 
S-OPLS

>  <s_lp_Variant>  (1) 
DiffSBDD_39_num_sample_50-1

>  <s_m_source_file>  (1) 
generated__ligand_DiffSBDD_2026-05-06_prepared.sdf

>  <GenAI_Model>  (1) 
DiffSBDD

>  <Protein>  (1) 
GPCR_5HT2C

$$$$
DiffSBDD_12_num_sample_50
     RDKit          3D

  0  0  0  0  0  0  0  0  0  0999 V3000
M  V30 BEGIN CTAB
M  V30 COUNTS 70 72 0 0 1
M  V30 BEGIN ATOM
M  V30 1 C 36.896466 25.254943 57.448997 0
M  V30 2 C 39.112548 31.986571 61.572398 0
M  V30 3 C 40.200862 28.963179 60.417586 0
M  V30 4 O 39.565664 28.574333 58.145421 0
M  V30 5 N 39.414041 30.686640 61.992280 0
M  V30 6 F 43.075481 33.629607 66.821578 0
M  V30 7 N 41.067415 28.172447 60.859421 0
M  V30 8 C 38.011082 25.800122 55.217017 0
M  V30 9 C 36.395731 33.520590 60.329910 0
M  V30 10 C 37.032337 24.931746 55.986533 0
M  V30 11 C 37.891956 26.416328 57.552856 0
M  V30 12 C 39.366337 27.765446 55.973112 0
M  V30 13 C 42.099682 33.353267 65.945976 0
M  V30 14 C 40.822180 31.262083 65.256921 0
M  V30 15 N 38.385208 32.072025 60.387852 0
M  V30 16 N 39.983430 30.456138 63.236131 0
M  V30 17 C 40.223631 29.471241 59.002839 0
M  V30 18 C 37.457334 26.294251 53.865598 0
M  V30 19 N 39.482445 33.029493 62.256041 0
M  V30 20 O 38.380437 31.257792 57.096885 0
M  V30 21 C 41.002995 34.001484 63.790964 0
M  V30 22 C 39.067134 29.470314 61.270240 0
M  V30 23 O 35.580607 32.461768 59.853475 0
M  V30 24 C 39.391833 29.044866 56.820162 0 CFG=1
M  V30 25 C 39.311413 24.999364 55.053517 0
M  V30 26 C 40.298537 32.887173 63.406209 0
M  V30 27 C 41.990068 34.133830 64.869578 0
M  V30 28 C 40.389694 31.515571 64.010803 0
M  V30 29 C 41.182974 32.259542 66.282930 0
M  V30 30 C 38.753541 32.126304 56.037986 0
M  V30 31 C 37.847939 33.321782 59.869265 0
M  V30 32 C 38.123609 29.921822 56.687321 0
M  V30 33 O 36.399677 24.021237 55.454666 0
M  V30 34 N 38.151315 26.926260 56.171620 0 CFG=1 CHG=1
M  V30 35 H 37.164112 24.410561 58.083640 0
M  V30 36 H 35.876368 25.572092 57.665949 0
M  V30 37 H 40.931420 27.910404 61.825006 0
M  V30 38 H 38.179050 29.602459 60.652858 0
M  V30 39 H 36.336626 33.564157 61.418475 0
M  V30 40 H 36.006388 34.464314 59.946451 0
M  V30 41 H 38.821387 26.061542 58.002170 0
M  V30 42 H 37.492745 27.204284 58.189722 0
M  V30 43 H 39.425996 28.048282 54.921423 0
M  V30 44 H 40.266233 27.187334 56.188089 0
M  V30 45 H 40.843862 30.234555 65.591721 0
M  V30 46 H 38.101400 31.252718 59.874803 0
M  V30 47 H 40.045291 29.503778 63.571110 0
M  V30 48 H 39.712563 30.421459 58.968221 0
M  V30 49 H 36.937458 25.501071 53.332804 0
M  V30 50 H 36.745876 27.111267 53.994510 0
M  V30 51 H 38.250976 26.663107 53.215141 0
M  V30 52 H 40.853777 34.883446 63.184533 0
M  V30 53 H 41.254153 29.620539 58.679058 0
M  V30 54 H 38.819044 28.696532 61.996282 0
M  V30 55 H 35.611690 32.428036 58.900614 0
M  V30 56 H 40.266873 29.611613 56.499727 0
M  V30 57 H 39.067482 24.021496 54.653475 0
M  V30 58 H 40.016081 25.483962 54.376316 0
M  V30 59 H 39.821223 24.827561 56.002927 0
M  V30 60 H 42.694423 34.948795 64.785289 0
M  V30 61 H 41.626933 31.713433 67.116429 0
M  V30 62 H 40.267787 32.698374 66.672646 0
M  V30 63 H 38.950367 33.122119 56.434622 0
M  V30 64 H 39.655159 31.782679 55.530843 0
M  V30 65 H 37.951316 32.216191 55.304014 0
M  V30 66 H 38.462628 34.170561 60.171487 0
M  V30 67 H 37.888749 33.289543 58.780231 0
M  V30 68 H 37.734661 29.905441 55.667338 0
M  V30 69 H 37.330904 29.521893 57.319657 0
M  V30 70 H 37.361407 27.522590 55.971923 0
M  V30 END ATOM
M  V30 BEGIN BOND
M  V30 1 1 5 2
M  V30 2 2 7 3
M  V30 3 1 10 1
M  V30 4 1 10 8
M  V30 5 1 11 1
M  V30 6 1 13 6
M  V30 7 1 15 2
M  V30 8 1 16 5
M  V30 9 1 17 3
M  V30 10 1 17 4
M  V30 11 1 18 8
M  V30 12 2 19 2
M  V30 13 1 22 3
M  V30 14 1 22 5
M  V30 15 1 23 9
M  V30 16 1 24 4
M  V30 17 1 24 12
M  V30 18 1 25 8
M  V30 19 1 26 19
M  V30 20 2 26 21
M  V30 21 2 27 13
M  V30 22 1 27 21
M  V30 23 2 28 14
M  V30 24 1 28 16
M  V30 25 1 28 26
M  V30 26 1 29 13
M  V30 27 1 29 14
M  V30 28 1 30 20
M  V30 29 1 31 9
M  V30 30 1 31 15
M  V30 31 1 32 20
M  V30 32 1 32 24
M  V30 33 2 33 10
M  V30 34 1 34 8
M  V30 35 1 34 11
M  V30 36 1 34 12
M  V30 37 1 35 1
M  V30 38 1 36 1
M  V30 39 1 37 7
M  V30 40 1 38 22
M  V30 41 1 39 9
M  V30 42 1 40 9
M  V30 43 1 41 11
M  V30 44 1 42 11
M  V30 45 1 43 12
M  V30 46 1 44 12
M  V30 47 1 45 14
M  V30 48 1 46 15
M  V30 49 1 47 16
M  V30 50 1 48 17
M  V30 51 1 49 18
M  V30 52 1 50 18
M  V30 53 1 51 18
M  V30 54 1 52 21
M  V30 55 1 53 17
M  V30 56 1 54 22
M  V30 57 1 55 23
M  V30 58 1 24 56 CFG=3
M  V30 59 1 57 25
M  V30 60 1 58 25
M  V30 61 1 59 25
M  V30 62 1 60 27
M  V30 63 1 61 29
M  V30 64 1 62 29
M  V30 65 1 63 30
M  V30 66 1 64 30
M  V30 67 1 65 30
M  V30 68 1 66 31
M  V30 69 1 67 31
M  V30 70 1 68 32
M  V30 71 1 69 32
M  V30 72 1 34 70 CFG=3
M  V30 END BOND
M  V30 END CTAB
M  END
>  <i_epik_Tot_Q>  (1) 
1

>  <i_epik_Tot_abs_Q>  (1) 
1

>  <i_i_glide_confnum>  (1) 
2676

>  <i_i_glide_lignum>  (1) 
40

>  <i_i_glide_posenum>  (1) 
246

>  <i_i_glide_rotatable_bonds>  (1) 
13

>  <i_lp_mmshare_version>  (1) 
72125

>  <i_m_source_file_index>  (1) 
13

>  <i_f3d_flags>  (1) 
0

>  <num_sample>  (1) 
50

>  <b_lp_Chiralities_Consistent>  (1) 
1

>  <r_epik_Charging_Adjusted_Penalty>  (1) 
2.2216491605189872

>  <r_epik_Ionization_Penalty>  (1) 
0.91881204336881139

>  <r_epik_Ionization_Penalty_Charging>  (1) 
0.90548466078319156

>  <r_epik_Ionization_Penalty_Neutral>  (1) 
0.013327382585619883

>  <r_epik_State_Penalty>  (1) 
1.3161644997357957

>  <r_glide_ring_energy>  (1) 
0

>  <r_i_docking_score>  (1) 
-5.2786315649301674

>  <r_i_glide_ecoul>  (1) 
-4.1912875591211654

>  <r_i_glide_eff_state_penalty>  (1) 
1.3161644997357957

>  <r_i_glide_einternal>  (1) 
10.098233968113323

>  <r_i_glide_emodel>  (1) 
-61.738512391478871

>  <r_i_glide_emodel_strain>  (1) 
1.2226358544868532

>  <r_i_glide_energy>  (1) 
-48.014124865648341

>  <r_i_glide_erotb>  (1) 
0.96958307808003152

>  <r_i_glide_esite>  (1) 
-0.013794069704712343

>  <r_i_glide_evdw>  (1) 
-43.822837306527177

>  <r_i_glide_gscore>  (1) 
-6.5947960646659629

>  <r_i_glide_gscore_strain>  (1) 
0

>  <r_i_glide_hbond>  (1) 
-0.17511925066457162

>  <r_i_glide_ligand_efficiency>  (1) 
-0.15525386955676962

>  <r_i_glide_ligand_efficiency_ln>  (1) 
-1.1661977732933235

>  <r_i_glide_ligand_efficiency_sa>  (1) 
-0.50296226801010591

>  <r_i_glide_lipo>  (1) 
-3.2017172368411377

>  <r_i_glide_metal>  (1) 
-0

>  <r_i_glide_rewards>  (1) 
-1.3539135863410374

>  <r_lp_Energy>  (1) 
35.139842000000002

>  <r_lp_tautomer_probability>  (1) 
0.49996700039999997

>  <s_epik_Chemistry_Notes>  (1) 
This compound has an imine and may undergo hydrolysis.

>  <s_epik_cmdline>  (1) 
J2VwaWtfcHl0aG9uJywgJy1waHQnLCAnMS4wJywgJy1waCcsICc3LjQnLCAnLXRuJywgJzgnLCAnLW1hJywgJzUwMCcsICctaW1hZScsICc8aW5maWxlLm1hZT4nLCAnLW9tYWUnLCAnPG91dGZpbGUubWFlPic=

>  <s_epik_input>  (1) 
W0NIM11DMShbQ0gzXSlDKD1PKVtDSDJdW0NIMl1OMVtDSDJdW0NAQEhdKFtDSDJdT1tDSDNdKU8vW0NIXT1DKFxbTkgyXSlbQ0gyXU4oQyg9TjIpW05IXVtDSDJdW0NIMl1bT0hdKVtOSF1DKEMyMyk9W0NIXVtDSDJdQyhGKT1bQ0hdW0NIXT0z

>  <s_glide_docking_method>  (1) 
confgen

>  <s_i_glide_gridfile>  (1) 
gpcr_5ht2c_6bqh_protein_autoprepared_prepared

>  <s_lp_Force_Field>  (1) 
S-OPLS

>  <s_lp_Variant>  (1) 
DiffSBDD_12_num_sample_50-2

>  <s_m_source_file>  (1) 
generated__ligand_DiffSBDD_2026-05-06_prepared.sdf

>  <GenAI_Model>  (1) 
DiffSBDD

>  <Protein>  (1) 
GPCR_5HT2C

$$$$
DiffSBDD_27_num_sample_50
     RDKit          3D

  0  0  0  0  0  0  0  0  0  0999 V3000
M  V30 BEGIN CTAB
M  V30 COUNTS 64 66 0 0 1
M  V30 BEGIN ATOM
M  V30 1 C 37.579575 34.362975 60.777651 0
M  V30 2 C 40.313245 35.949592 63.625109 0
M  V30 3 C 37.366462 36.894658 59.173812 0
M  V30 4 C 41.068003 35.143131 64.500775 0
M  V30 5 O 36.266712 38.400549 62.255231 0
M  V30 6 C 40.367004 34.201535 61.944064 0
M  V30 7 N 42.551351 33.474094 66.218546 0
M  V30 8 C 35.846944 32.807547 59.881637 0 CFG=1
M  V30 9 C 38.727068 27.322502 56.582682 0
M  V30 10 C 37.816166 29.778189 59.092494 0
M  V30 11 C 41.120326 33.379218 62.806082 0
M  V30 12 C 39.536968 28.011017 59.365629 0
M  V30 13 C 41.469170 33.842113 64.095494 0
M  V30 14 C 37.466681 30.535699 55.425944 0
M  V30 15 O 39.209571 36.213407 61.507268 0
M  V30 16 C 36.377648 31.409749 60.376092 0
M  V30 17 C 39.990466 33.736104 60.571042 0
M  V30 18 N 38.565806 33.508991 60.400506 0 CHG=1
M  V30 19 C 39.297628 26.559565 58.885856 0
M  V30 20 C 38.653948 28.919544 58.535369 0
M  V30 21 O 42.594382 31.816615 64.689281 0
M  V30 22 C 42.257557 32.949249 65.027456 0
M  V30 23 C 39.960708 35.462956 62.352499 0
M  V30 24 C 36.822032 30.634806 59.135081 0
M  V30 25 C 39.558762 26.336407 57.390237 0
M  V30 26 O 33.963960 34.012768 59.010297 0
M  V30 27 C 37.066609 38.140937 61.360272 0
M  V30 28 C 34.318609 32.939064 59.850787 0
M  V30 29 C 37.871484 35.724254 61.430716 0 CFG=1
M  V30 30 O 38.026398 26.950094 55.640282 0
M  V30 31 C 38.815193 28.800053 56.999348 0 CFG=2
M  V30 32 C 38.057440 29.732467 56.130083 0
M  V30 33 N 36.297834 34.020506 60.576570 0
M  V30 34 C 37.039445 36.784942 60.662885 0 CFG=2
M  V30 35 H 39.998067 36.935474 63.934384 0
M  V30 36 H 36.546027 37.382376 58.653666 0
M  V30 37 H 38.267251 37.470559 58.984058 0
M  V30 38 H 37.467005 35.909426 58.719259 0
M  V30 39 H 41.327290 35.518375 65.477910 0
M  V30 40 H 43.075794 32.931211 66.889106 0
M  V30 41 H 42.249475 34.408102 66.446222 0
M  V30 42 H 36.205397 32.951653 58.860947 0
M  V30 43 H 41.425722 32.394946 62.483642 0
M  V30 44 H 39.313792 28.103189 60.430784 0
M  V30 45 H 40.581374 28.292892 59.223795 0
M  V30 46 H 36.911227 31.256044 54.867764 0
M  V30 47 H 35.564934 30.855072 60.846880 0
M  V30 48 H 37.173636 31.476343 61.116895 0
M  V30 49 H 40.524211 32.821109 60.315142 0
M  V30 50 H 40.267319 34.500929 59.845810 0
M  V30 51 H 38.267639 26.285766 59.084202 0
M  V30 52 H 39.867390 25.844988 59.453334 0
M  V30 53 H 36.267309 30.821730 58.253513 0
M  V30 54 H 39.304947 25.316087 57.102441 0
M  V30 55 H 40.612897 26.486711 57.156614 0
M  V30 56 H 33.022289 34.110673 59.006346 0
M  V30 57 H 37.828473 38.837589 61.010501 0
M  V30 58 H 33.867389 32.020617 59.484628 0
M  V30 59 H 33.919410 33.218638 60.829562 0
M  V30 60 H 37.479699 35.678754 62.447285 0
M  V30 61 H 39.851058 29.076578 56.806183 0
M  V30 62 H 35.575920 34.665051 60.867593 0
M  V30 63 H 36.000088 36.481788 60.653468 0
M  V30 64 H 38.299476 32.638247 59.963623 0
M  V30 END ATOM
M  V30 BEGIN BOND
M  V30 1 2 4 2
M  V30 2 1 11 6
M  V30 3 1 13 4
M  V30 4 2 13 11
M  V30 5 1 16 8
M  V30 6 1 17 6
M  V30 7 2 18 1
M  V30 8 1 18 17
M  V30 9 1 19 12
M  V30 10 2 20 10
M  V30 11 1 20 12
M  V30 12 1 22 7
M  V30 13 1 22 13
M  V30 14 2 22 21
M  V30 15 1 23 2
M  V30 16 2 23 6
M  V30 17 1 23 15
M  V30 18 2 24 10
M  V30 19 1 24 16
M  V30 20 1 25 9
M  V30 21 1 25 19
M  V30 22 2 27 5
M  V30 23 1 28 8
M  V30 24 1 28 26
M  V30 25 1 29 1
M  V30 26 1 29 15
M  V30 27 2 30 9
M  V30 28 1 31 9
M  V30 29 1 31 20
M  V30 30 3 32 14
M  V30 31 1 32 31
M  V30 32 1 33 1
M  V30 33 1 33 8
M  V30 34 1 34 3
M  V30 35 1 34 27
M  V30 36 1 34 29
M  V30 37 1 35 2
M  V30 38 1 36 3
M  V30 39 1 37 3
M  V30 40 1 38 3
M  V30 41 1 39 4
M  V30 42 1 40 7
M  V30 43 1 41 7
M  V30 44 1 8 42 CFG=3
M  V30 45 1 43 11
M  V30 46 1 44 12
M  V30 47 1 45 12
M  V30 48 1 46 14
M  V30 49 1 47 16
M  V30 50 1 48 16
M  V30 51 1 49 17
M  V30 52 1 50 17
M  V30 53 1 51 19
M  V30 54 1 52 19
M  V30 55 1 53 24
M  V30 56 1 54 25
M  V30 57 1 55 25
M  V30 58 1 56 26
M  V30 59 1 57 27
M  V30 60 1 58 28
M  V30 61 1 59 28
M  V30 62 1 29 60 CFG=1
M  V30 63 1 31 61 CFG=1
M  V30 64 1 62 33
M  V30 65 1 34 63 CFG=3
M  V30 66 1 64 18
M  V30 END BOND
M  V30 END CTAB
M  END
>  <i_epik_Tot_Q>  (1) 
1

>  <i_epik_Tot_abs_Q>  (1) 
1

>  <i_i_glide_confnum>  (1) 
327

>  <i_i_glide_lignum>  (1) 
70

>  <i_i_glide_posenum>  (1) 
294

>  <i_i_glide_rotatable_bonds>  (1) 
10

>  <i_lp_mmshare_version>  (1) 
72125

>  <i_m_source_file_index>  (1) 
28

>  <i_f3d_flags>  (1) 
0

>  <num_sample>  (1) 
50

>  <b_lp_Chiralities_Consistent>  (1) 
1

>  <r_epik_Charging_Adjusted_Penalty>  (1) 
0.046741104871076994

>  <r_epik_Ionization_Penalty>  (1) 
0.019812372092419556

>  <r_epik_Ionization_Penalty_Charging>  (1) 
0.019701646860550703

>  <r_epik_Ionization_Penalty_Neutral>  (1) 
0.00011072523186885321

>  <r_epik_State_Penalty>  (1) 
0.027039458010526287

>  <r_glide_ring_energy>  (1) 
1.2406265048131788

>  <r_i_docking_score>  (1) 
-5.249439431662366

>  <r_i_glide_ecoul>  (1) 
-0.93074433178362526

>  <r_i_glide_eff_state_penalty>  (1) 
0.027039458010526287

>  <r_i_glide_einternal>  (1) 
16.20035433366504

>  <r_i_glide_emodel>  (1) 
-40.362609843700412

>  <r_i_glide_emodel_strain>  (1) 
5.7495442895592248

>  <r_i_glide_energy>  (1) 
-38.95952981953549

>  <r_i_glide_erotb>  (1) 
0.65393697564197784

>  <r_i_glide_esite>  (1) 
0

>  <r_i_glide_evdw>  (1) 
-38.028785487751868

>  <r_i_glide_gscore>  (1) 
-5.2764788896728927

>  <r_i_glide_gscore_strain>  (1) 
0.4373860723898062

>  <r_i_glide_hbond>  (1) 
0

>  <r_i_glide_ligand_efficiency>  (1) 
-0.15439527740183429

>  <r_i_glide_ligand_efficiency_ln>  (1) 
-1.159748412242863

>  <r_i_glide_ligand_efficiency_sa>  (1) 
-0.50018076273249323

>  <r_i_glide_lipo>  (1) 
-2.670196639009017

>  <r_i_glide_metal>  (1) 
-0

>  <r_i_glide_rewards>  (1) 
-1.6565543745405233

>  <r_lp_Energy>  (1) 
12.568142999999999

>  <r_lp_tautomer_probability>  (1) 
0.99985000999950013

>  <s_epik_Chemistry_Notes>  (1) 
This compound has an imine and may undergo hydrolysis.

>  <s_epik_cmdline>  (1) 
J2VwaWtfcHl0aG9uJywgJy1waHQnLCAnMS4wJywgJy1waCcsICc3LjQnLCAnLXRuJywgJzgnLCAnLW1hJywgJzUwMCcsICctaW1hZScsICc8aW5maWxlLm1hZT4nLCAnLW9tYWUnLCAnPG91dGZpbGUubWFlPic=

>  <s_epik_input>  (1) 
W05IMl1DKD1PKWMoW2NIXTEpW2NIXVtjSF1jKGMxMilPW0NAQEhdKFtDQEhdKFtDSDNdKVtDSF09TylDKD1OW0NIMl0yKVtOSF1bQ0BIXShbQ0gyXVtPSF0pW0NIMl1bQ0hdPUM9QyhbQ0BASF0zQyNbQ0hdKVtDSDJdW0NIMl1bQ0gyXUMzPU8=

>  <s_glide_docking_method>  (1) 
confgen

>  <s_i_glide_gridfile>  (1) 
gpcr_5ht2c_6bqh_protein_autoprepared_prepared

>  <s_lp_Force_Field>  (1) 
S-OPLS

>  <s_lp_Variant>  (1) 
DiffSBDD_27_num_sample_50-1

>  <s_m_source_file>  (1) 
generated__ligand_DiffSBDD_2026-05-06_prepared.sdf

>  <GenAI_Model>  (1) 
DiffSBDD

>  <Protein>  (1) 
GPCR_5HT2C

$$$$
DiffSBDD_11_num_sample_50
     RDKit          3D

  0  0  0  0  0  0  0  0  0  0999 V3000
M  V30 BEGIN CTAB
M  V30 COUNTS 37 39 0 0 1
M  V30 BEGIN ATOM
M  V30 1 C 40.074993 28.811237 51.554981 0
M  V30 2 C 37.966803 30.239533 56.499700 0 CFG=2
M  V30 3 C 38.501028 32.453980 55.372464 0 CFG=2
M  V30 4 O 37.067454 30.021425 57.561634 0
M  V30 5 C 37.477840 31.454897 55.713828 0 CFG=1
M  V30 6 C 38.808303 27.775686 53.470847 0 CFG=1
M  V30 7 C 38.644460 29.053897 54.308201 0
M  V30 8 C 39.866894 29.477648 50.194131 0
M  V30 9 C 38.407988 28.924644 55.829928 0 CFG=1
M  V30 10 N 39.541250 28.222181 56.527444 0 CHG=1
M  V30 11 O 37.867193 31.716267 54.335101 0
M  V30 12 O 39.667111 27.018946 56.329031 0 CHG=-1
M  V30 13 O 40.267302 28.891666 57.249199 0
M  V30 14 C 37.611323 26.854646 53.733272 0
M  V30 15 C 38.662364 31.591786 56.615909 0 CFG=2
M  V30 16 C 38.670662 32.277459 57.975241 0
M  V30 17 O 37.867567 33.672494 55.633990 0
M  V30 18 N 38.846819 28.126992 52.025815 0 CHG=1
M  V30 19 H 40.403782 29.580721 52.251585 0
M  V30 20 H 40.877654 28.081023 51.491700 0
M  V30 21 H 36.356266 30.661777 57.453552 0
M  V30 22 H 39.726998 27.245030 53.726023 0
M  V30 23 H 39.479959 29.735121 54.157823 0
M  V30 24 H 37.754537 29.510904 53.881853 0
M  V30 25 H 40.798573 29.904542 49.820805 0
M  V30 26 H 39.137573 30.285750 50.253863 0
M  V30 27 H 39.504149 28.769424 49.455035 0
M  V30 28 H 37.579904 28.233825 55.979809 0
M  V30 29 H 37.627552 26.430535 54.736732 0
M  V30 30 H 37.604368 26.021300 53.053534 0
M  V30 31 H 36.667186 27.380752 53.601322 0
M  V30 32 H 39.349570 33.129787 57.963690 0
M  V30 33 H 39.000949 31.582312 58.747071 0
M  V30 34 H 37.671643 32.633975 58.231235 0
M  V30 35 H 36.919597 33.538013 55.550060 0
M  V30 36 H 38.055320 28.721802 51.828633 0
M  V30 37 H 38.733980 27.280801 51.484166 0
M  V30 END ATOM
M  V30 BEGIN BOND
M  V30 1 1 2 4 CFG=1
M  V30 2 1 5 2
M  V30 3 1 5 3
M  V30 4 1 7 6
M  V30 5 1 8 1
M  V30 6 1 9 2
M  V30 7 1 9 7
M  V30 8 1 10 9
M  V30 9 1 11 3
M  V30 10 1 5 11 CFG=1
M  V30 11 1 12 10
M  V30 12 2 13 10
M  V30 13 1 14 6
M  V30 14 1 15 2
M  V30 15 1 15 3
M  V30 16 1 15 5
M  V30 17 1 15 16 CFG=1
M  V30 18 1 3 17 CFG=3
M  V30 19 1 18 1
M  V30 20 1 18 6
M  V30 21 1 19 1
M  V30 22 1 20 1
M  V30 23 1 21 4
M  V30 24 1 6 22 CFG=1
M  V30 25 1 23 7
M  V30 26 1 24 7
M  V30 27 1 25 8
M  V30 28 1 26 8
M  V30 29 1 27 8
M  V30 30 1 9 28 CFG=3
M  V30 31 1 29 14
M  V30 32 1 30 14
M  V30 33 1 31 14
M  V30 34 1 32 16
M  V30 35 1 33 16
M  V30 36 1 34 16
M  V30 37 1 35 17
M  V30 38 1 36 18
M  V30 39 1 37 18
M  V30 END BOND
M  V30 END CTAB
M  END
>  <i_epik_Tot_Q>  (1) 
1

>  <i_epik_Tot_abs_Q>  (1) 
3

>  <i_i_glide_confnum>  (1) 
106

>  <i_i_glide_lignum>  (1) 
38

>  <i_i_glide_posenum>  (1) 
259

>  <i_i_glide_rotatable_bonds>  (1) 
8

>  <i_lp_mmshare_version>  (1) 
72125

>  <i_m_source_file_index>  (1) 
12

>  <i_f3d_flags>  (1) 
2

>  <num_sample>  (1) 
50

>  <b_lp_Chiralities_Consistent>  (1) 
0

>  <r_epik_Charging_Adjusted_Penalty>  (1) 
0.0033658080042713689

>  <r_epik_Ionization_Penalty>  (1) 
0.035780381166706003

>  <r_epik_Ionization_Penalty_Charging>  (1) 
0.0033658080042713689

>  <r_epik_Ionization_Penalty_Neutral>  (1) 
0.032414573162434637

>  <r_epik_State_Penalty>  (1) 
-0

>  <r_glide_ring_energy>  (1) 
0

>  <r_i_docking_score>  (1) 
-5.2429252324836719

>  <r_i_glide_ecoul>  (1) 
-9.2733624113058593

>  <r_i_glide_eff_state_penalty>  (1) 
-0

>  <r_i_glide_einternal>  (1) 
4.183505380358552

>  <r_i_glide_emodel>  (1) 
-38.147655675696839

>  <r_i_glide_emodel_strain>  (1) 
2.8179544872397528

>  <r_i_glide_energy>  (1) 
-29.751198715524872

>  <r_i_glide_erotb>  (1) 
1.0519887520240689

>  <r_i_glide_esite>  (1) 
-0.029516238980248456

>  <r_i_glide_evdw>  (1) 
-20.477836304219011

>  <r_i_glide_gscore>  (1) 
-5.2429252324836719

>  <r_i_glide_gscore_strain>  (1) 
0

>  <r_i_glide_hbond>  (1) 
-0.30399999999999999

>  <r_i_glide_ligand_efficiency>  (1) 
-0.29127362402687068

>  <r_i_glide_ligand_efficiency_ln>  (1) 
-1.3476668963171121

>  <r_i_glide_ligand_efficiency_sa>  (1) 
-0.763352843528459

>  <r_i_glide_lipo>  (1) 
-1.4448016225336104

>  <r_i_glide_metal>  (1) 
-0

>  <r_i_glide_rewards>  (1) 
-2.1016999460870522

>  <r_lp_Energy>  (1) 
94.058552999999989

>  <r_lp_tautomer_probability>  (1) 
1

>  <s_epik_cmdline>  (1) 
J2VwaWtfcHl0aG9uJywgJy1waHQnLCAnMS4wJywgJy1waCcsICc3LjQnLCAnLXRuJywgJzgnLCAnLW1hJywgJzUwMCcsICctaW1hZScsICc8aW5maWxlLm1hZT4nLCAnLW9tYWUnLCAnPG91dGZpbGUubWFlPic=

>  <s_epik_input>  (1) 
W0NIM11bQ0gyXVtOSF1bQ0BIXShbQ0gzXSlbQ0gyXVtDQEBIXShbTitdKFtPLV0pPU8pW0NAXTEoW09IXSlDMihbQ0gzXSlDKFtDQEBdMTIzKShPMylbT0hd

>  <s_glide_docking_method>  (1) 
confgen

>  <s_i_glide_gridfile>  (1) 
gpcr_5ht2c_6bqh_protein_autoprepared_prepared

>  <s_lp_Force_Field>  (1) 
S-OPLS

>  <s_lp_Variant>  (1) 
DiffSBDD_11_num_sample_50-1

>  <s_m_source_file>  (1) 
generated__ligand_DiffSBDD_2026-05-06_prepared.sdf

>  <GenAI_Model>  (1) 
DiffSBDD

>  <Protein>  (1) 
GPCR_5HT2C

$$$$
DiffSBDD_35_num_sample_50
     RDKit          3D

  0  0  0  0  0  0  0  0  0  0999 V3000
M  V30 BEGIN CTAB
M  V30 COUNTS 44 43 0 0 1
M  V30 BEGIN ATOM
M  V30 1 C 36.348012 34.619533 60.130226 0
M  V30 2 C 35.147360 32.343207 60.115250 0
M  V30 3 C 40.225761 30.357045 61.163528 0
M  V30 4 C 35.572295 33.572283 60.942522 0
M  V30 5 C 41.141650 35.123337 64.314396 0
M  V30 6 C 37.248823 31.077164 60.151043 0
M  V30 7 C 39.351072 29.570717 60.165504 0
M  V30 8 C 40.508573 35.730937 63.042621 0 CFG=1
M  V30 9 O 37.268122 31.038123 61.382011 0
M  V30 10 N 41.067363 36.021428 65.480502 0 CHG=1
M  V30 11 N 37.067203 35.531972 61.007751 0
M  V30 12 O 41.067430 29.465050 61.853708 0
M  V30 13 C 40.491656 34.662925 61.927937 0
M  V30 14 S 38.843619 36.412365 63.384927 0
M  V30 15 N 36.267681 31.675156 59.459625 0
M  V30 16 C 37.490815 36.770693 60.573940 0
M  V30 17 S 38.398904 37.680866 61.844235 0
M  V30 18 O 37.307486 37.245485 59.457341 0
M  V30 19 O 40.267257 35.219971 60.653504 0
M  V30 20 C 38.373777 30.431879 59.334810 0
M  V30 21 H 37.091447 34.148363 59.485975 0
M  V30 22 H 35.663025 35.157119 59.471223 0
M  V30 23 H 34.417958 32.629660 59.356561 0
M  V30 24 H 34.667382 31.621394 60.771294 0
M  V30 25 H 39.640124 30.892344 61.908059 0
M  V30 26 H 40.838817 31.098923 60.653711 0
M  V30 27 H 34.680470 34.021291 61.378076 0
M  V30 28 H 36.173222 33.251765 61.792769 0
M  V30 29 H 40.667356 34.176744 64.572476 0
M  V30 30 H 42.193619 34.900953 64.127253 0
M  V30 31 H 40.006772 29.039436 59.475130 0
M  V30 32 H 38.787752 28.797319 60.690472 0
M  V30 33 H 41.138173 36.565731 62.727828 0
M  V30 34 H 41.575999 35.632443 66.260654 0
M  V30 35 H 41.467554 36.930384 65.233271 0
M  V30 36 H 37.279530 35.267414 61.959112 0
M  V30 37 H 40.528346 28.863650 62.348746 0
M  V30 38 H 41.459136 34.162497 61.880584 0
M  V30 39 H 39.745943 33.891921 62.129850 0
M  V30 40 H 36.284326 31.665043 58.438925 0
M  V30 41 H 39.353561 35.450813 60.569498 0
M  V30 42 H 38.920375 31.215339 58.809853 0
M  V30 43 H 37.917680 29.809542 58.564088 0
M  V30 44 H 40.100893 36.160869 65.740020 0
M  V30 END ATOM
M  V30 BEGIN BOND
M  V30 1 1 4 1
M  V30 2 1 4 2
M  V30 3 1 7 3
M  V30 4 1 8 5
M  V30 5 2 9 6
M  V30 6 1 10 5
M  V30 7 1 11 1
M  V30 8 1 12 3
M  V30 9 1 13 8
M  V30 10 1 14 8
M  V30 11 1 15 2
M  V30 12 1 15 6
M  V30 13 1 16 11
M  V30 14 1 17 14
M  V30 15 1 17 16
M  V30 16 2 18 16
M  V30 17 1 19 13
M  V30 18 1 20 6
M  V30 19 1 20 7
M  V30 20 1 21 1
M  V30 21 1 22 1
M  V30 22 1 23 2
M  V30 23 1 24 2
M  V30 24 1 25 3
M  V30 25 1 26 3
M  V30 26 1 27 4
M  V30 27 1 28 4
M  V30 28 1 29 5
M  V30 29 1 30 5
M  V30 30 1 31 7
M  V30 31 1 32 7
M  V30 32 1 8 33 CFG=3
M  V30 33 1 34 10
M  V30 34 1 35 10
M  V30 35 1 36 11
M  V30 36 1 37 12
M  V30 37 1 38 13
M  V30 38 1 39 13
M  V30 39 1 40 15
M  V30 40 1 41 19
M  V30 41 1 42 20
M  V30 42 1 43 20
M  V30 43 1 44 10
M  V30 END BOND
M  V30 END CTAB
M  END
>  <i_epik_Tot_Q>  (1) 
1

>  <i_epik_Tot_abs_Q>  (1) 
1

>  <i_i_glide_confnum>  (1) 
1369

>  <i_i_glide_lignum>  (1) 
89

>  <i_i_glide_posenum>  (1) 
66

>  <i_i_glide_rotatable_bonds>  (1) 
16

>  <i_lp_mmshare_version>  (1) 
72125

>  <i_m_source_file_index>  (1) 
36

>  <i_f3d_flags>  (1) 
0

>  <num_sample>  (1) 
50

>  <b_lp_Chiralities_Consistent>  (1) 
1

>  <r_epik_Charging_Adjusted_Penalty>  (1) 
0.070813283132224986

>  <r_epik_Ionization_Penalty>  (1) 
0.035414902051254887

>  <r_epik_Ionization_Penalty_Charging>  (1) 
0.0354066415661125

>  <r_epik_Ionization_Penalty_Neutral>  (1) 
8.2604851423881855e-06

>  <r_epik_State_Penalty>  (1) 
0.035406641566112479

>  <r_glide_ring_energy>  (1) 
0

>  <r_i_docking_score>  (1) 
-5.1948020638579049

>  <r_i_glide_ecoul>  (1) 
-15.594172961429194

>  <r_i_glide_eff_state_penalty>  (1) 
0.035406641566112479

>  <r_i_glide_einternal>  (1) 
5.1374568213730782

>  <r_i_glide_emodel>  (1) 
-57.034998095591547

>  <r_i_glide_emodel_strain>  (1) 
0.64081540799684911

>  <r_i_glide_energy>  (1) 
-43.988455341459847

>  <r_i_glide_erotb>  (1) 
2.287715563984396

>  <r_i_glide_esite>  (1) 
-0.19560999865778239

>  <r_i_glide_evdw>  (1) 
-28.394282380030653

>  <r_i_glide_gscore>  (1) 
-5.2302087054240172

>  <r_i_glide_gscore_strain>  (1) 
0

>  <r_i_glide_hbond>  (1) 
-0.7109171646124236

>  <r_i_glide_ligand_efficiency>  (1) 
-0.25974010319289526

>  <r_i_glide_ligand_efficiency_ln>  (1) 
-1.300087620544558

>  <r_i_glide_ligand_efficiency_sa>  (1) 
-0.70504311184297386

>  <r_i_glide_lipo>  (1) 
-1.3232699037700815

>  <r_i_glide_metal>  (1) 
-0

>  <r_i_glide_rewards>  (1) 
-1.5292871391522138

>  <r_lp_Energy>  (1) 
-0.712812

>  <s_epik_cmdline>  (1) 
J2VwaWtfcHl0aG9uJywgJy1waHQnLCAnMS4wJywgJy1waCcsICc3LjQnLCAnLXRuJywgJzgnLCAnLW1hJywgJzUwMCcsICctaW1hZScsICc8aW5maWxlLm1hZT4nLCAnLW9tYWUnLCAnPG91dGZpbGUubWFlPic=

>  <s_epik_input>  (1) 
W05IMl1bQ0gyXVtDQEBIXShbQ0gyXVtPSF0pU1NDKD1PKVtOSF1bQ0gyXVtDSDJdW0NIMl1bTkhdQyg9TylbQ0gyXVtDSDJdW0NIMl1bT0hd

>  <s_glide_docking_method>  (1) 
confgen

>  <s_i_glide_gridfile>  (1) 
gpcr_5ht2c_6bqh_protein_autoprepared_prepared

>  <s_lp_Force_Field>  (1) 
S-OPLS

>  <s_lp_Variant>  (1) 
DiffSBDD_35_num_sample_50-1

>  <s_m_source_file>  (1) 
generated__ligand_DiffSBDD_2026-05-06_prepared.sdf

>  <GenAI_Model>  (1) 
DiffSBDD

>  <Protein>  (1) 
GPCR_5HT2C

$$$$
DiffSBDD_5_num_sample_50
     RDKit          3D

  0  0  0  0  0  0  0  0  0  0999 V3000
M  V30 BEGIN CTAB
M  V30 COUNTS 80 82 0 0 1
M  V30 BEGIN ATOM
M  V30 1 C 38.203217 32.976316 60.888352 0
M  V30 2 C 38.273446 35.485989 60.647149 0 CFG=2
M  V30 3 N 37.867416 29.217527 56.080286 0
M  V30 4 F 42.722670 33.380811 67.553486 0
M  V30 5 C 39.585604 29.856223 60.300392 0
M  V30 6 N 39.217466 32.332393 60.409986 0 CHG=1
M  V30 7 C 40.051904 28.624289 58.090277 0 CFG=1
M  V30 8 C 41.794647 35.116596 66.269075 0 CFG=2
M  V30 9 C 36.796823 37.050389 61.972012 0
M  V30 10 C 38.849923 31.080682 59.716507 0 CFG=2
M  V30 11 N 37.080280 32.361449 60.661211 0
M  V30 12 C 36.074788 38.044422 61.053499 0
M  V30 13 C 39.526683 35.741870 63.254325 0 CFG=2
M  V30 14 C 36.657691 37.572373 63.418311 0
M  V30 15 N 41.891021 35.517976 63.878767 0 CHG=1
M  V30 16 C 38.117409 27.843622 56.529502 0
M  V30 17 C 37.237625 35.350265 59.512655 0
M  V30 18 C 37.236132 31.091706 59.924572 0
M  V30 19 C 38.303371 34.283580 61.618966 0 CFG=2
M  V30 20 C 42.309030 34.571274 64.927433 0
M  V30 21 O 39.067389 29.050963 54.173068 0
M  V30 22 C 41.577677 34.021289 67.321792 0
M  V30 23 C 38.010006 31.154306 54.606799 0
M  V30 24 C 38.362659 29.708537 54.935845 0
M  V30 25 S 40.267409 36.021429 65.912003 0
M  V30 26 C 39.570175 34.386528 62.506058 0
M  V30 27 C 39.344609 36.947560 62.308766 0
M  V30 28 C 42.260694 27.621292 58.393484 0
M  V30 29 O 41.467127 28.774554 58.166261 0
M  V30 30 O 39.526195 26.289217 57.653622 0
M  V30 31 N 38.166384 36.773348 61.411326 0 CFG=1 CHG=1
M  V30 32 C 39.551660 27.575640 57.058521 0 CFG=2
M  V30 33 N 40.579697 36.021429 64.226680 0
M  V30 34 C 39.393946 28.563162 59.486594 0
M  V30 35 H 39.248296 35.507433 60.161285 0
M  V30 36 H 37.284039 29.808020 56.656729 0
M  V30 37 H 39.240870 29.684261 61.321367 0
M  V30 38 H 40.652628 30.068189 60.377508 0
M  V30 39 H 39.792891 29.583152 57.654062 0
M  V30 40 H 42.505958 35.852582 66.641856 0
M  V30 41 H 36.267401 36.104935 61.979126 0
M  V30 42 H 39.067414 31.229134 58.661030 0
M  V30 43 H 36.174417 32.713309 60.940364 0
M  V30 44 H 35.125116 38.387254 61.469799 0
M  V30 45 H 36.682380 38.939137 60.915781 0
M  V30 46 H 35.867413 37.621413 60.072708 0
M  V30 47 H 38.637188 35.693359 63.853506 0
M  V30 48 H 35.674056 37.298865 63.803420 0
M  V30 49 H 37.371244 37.208471 64.148196 0
M  V30 50 H 36.667395 38.655446 63.439997 0
M  V30 51 H 41.848795 35.095779 62.963878 0
M  V30 52 H 37.875008 27.144779 55.726168 0
M  V30 53 H 37.401911 27.640310 57.326327 0
M  V30 54 H 37.462661 34.489430 58.882088 0
M  V30 55 H 36.220390 35.216810 59.880573 0
M  V30 56 H 37.245727 36.222825 58.858663 0
M  V30 57 H 36.696676 31.117339 58.976627 0
M  V30 58 H 36.883658 30.250362 60.520175 0
M  V30 59 H 37.417165 34.313722 62.243344 0
M  V30 60 H 43.388325 34.421496 64.931931 0
M  V30 61 H 41.847660 33.606004 64.713729 0
M  V30 62 H 41.238523 34.434229 68.272500 0
M  V30 63 H 40.846369 33.281326 66.995679 0
M  V30 64 H 38.363690 31.820964 55.393487 0
M  V30 65 H 38.470028 31.462530 53.667954 0
M  V30 66 H 36.929384 31.272773 54.518378 0
M  V30 67 H 39.596540 33.556152 63.212857 0
M  V30 68 H 40.465941 34.313615 61.889210 0
M  V30 69 H 39.267021 37.879293 62.867279 0
M  V30 70 H 40.237438 37.058498 61.691182 0
M  V30 71 H 43.309078 27.889966 58.268094 0
M  V30 72 H 42.135213 27.247272 59.406000 0
M  V30 73 H 42.059387 26.821708 57.682995 0
M  V30 74 H 39.421212 25.642054 56.972364 0
M  V30 75 H 40.239471 27.560117 56.211378 0
M  V30 76 H 38.326946 28.364102 59.387856 0
M  V30 77 H 39.802238 27.717773 60.041822 0
M  V30 78 H 42.497262 36.330081 63.887684 0
M  V30 79 H 40.173195 32.649268 60.478678 0
M  V30 80 H 38.278339 37.499630 60.717768 0
M  V30 END ATOM
M  V30 BEGIN BOND
M  V30 1 2 6 1
M  V30 2 1 10 5
M  V30 3 1 10 6
M  V30 4 1 11 1
M  V30 5 1 12 9
M  V30 6 1 14 9
M  V30 7 1 16 3
M  V30 8 1 17 2
M  V30 9 1 18 10
M  V30 10 1 18 11
M  V30 11 1 19 1
M  V30 12 1 19 2
M  V30 13 1 20 8
M  V30 14 1 20 15
M  V30 15 1 22 4
M  V30 16 1 22 8
M  V30 17 1 24 3
M  V30 18 2 24 21
M  V30 19 1 24 23
M  V30 20 1 25 8
M  V30 21 1 26 13
M  V30 22 1 26 19
M  V30 23 1 27 13
M  V30 24 1 29 7
M  V30 25 1 29 28
M  V30 26 1 31 2
M  V30 27 1 31 9
M  V30 28 1 31 27
M  V30 29 1 32 7
M  V30 30 1 32 16
M  V30 31 1 32 30
M  V30 32 1 33 13
M  V30 33 1 33 15
M  V30 34 1 33 25
M  V30 35 1 34 5
M  V30 36 1 34 7
M  V30 37 1 2 35 CFG=3
M  V30 38 1 36 3
M  V30 39 1 37 5
M  V30 40 1 38 5
M  V30 41 1 7 39 CFG=3
M  V30 42 1 8 40 CFG=1
M  V30 43 1 41 9
M  V30 44 1 10 42 CFG=3
M  V30 45 1 43 11
M  V30 46 1 44 12
M  V30 47 1 45 12
M  V30 48 1 46 12
M  V30 49 1 13 47 CFG=1
M  V30 50 1 48 14
M  V30 51 1 49 14
M  V30 52 1 50 14
M  V30 53 1 51 15
M  V30 54 1 52 16
M  V30 55 1 53 16
M  V30 56 1 54 17
M  V30 57 1 55 17
M  V30 58 1 56 17
M  V30 59 1 57 18
M  V30 60 1 58 18
M  V30 61 1 19 59 CFG=1
M  V30 62 1 60 20
M  V30 63 1 61 20
M  V30 64 1 62 22
M  V30 65 1 63 22
M  V30 66 1 64 23
M  V30 67 1 65 23
M  V30 68 1 66 23
M  V30 69 1 67 26
M  V30 70 1 68 26
M  V30 71 1 69 27
M  V30 72 1 70 27
M  V30 73 1 71 28
M  V30 74 1 72 28
M  V30 75 1 73 28
M  V30 76 1 74 30
M  V30 77 1 32 75 CFG=3
M  V30 78 1 76 34
M  V30 79 1 77 34
M  V30 80 1 78 15
M  V30 81 1 79 6
M  V30 82 1 31 80 CFG=3
M  V30 END BOND
M  V30 END CTAB
M  END
>  <i_epik_Tot_Q>  (1) 
3

>  <i_epik_Tot_abs_Q>  (1) 
3

>  <i_i_glide_confnum>  (1) 
1132

>  <i_i_glide_lignum>  (1) 
14

>  <i_i_glide_posenum>  (1) 
81

>  <i_i_glide_rotatable_bonds>  (1) 
13

>  <i_lp_mmshare_version>  (1) 
72125

>  <i_m_source_file_index>  (1) 
6

>  <i_f3d_flags>  (1) 
0

>  <num_sample>  (1) 
50

>  <b_lp_Chiralities_Consistent>  (1) 
1

>  <r_epik_Charging_Adjusted_Penalty>  (1) 
0.16301919670703535

>  <r_epik_Ionization_Penalty>  (1) 
0.082191666583868089

>  <r_epik_Ionization_Penalty_Charging>  (1) 
0.082191230012028396

>  <r_epik_Ionization_Penalty_Neutral>  (1) 
4.3657183969654913e-07

>  <r_epik_State_Penalty>  (1) 
0.080827966695006942

>  <r_glide_ring_energy>  (1) 
0

>  <r_i_docking_score>  (1) 
-5.1881163772000196

>  <r_i_glide_ecoul>  (1) 
-3.0768792105515281

>  <r_i_glide_eff_state_penalty>  (1) 
0.080827966695006942

>  <r_i_glide_einternal>  (1) 
12.299464885424126

>  <r_i_glide_emodel>  (1) 
-43.572521390031952

>  <r_i_glide_emodel_strain>  (1) 
3.5188566134945489

>  <r_i_glide_energy>  (1) 
-35.683612156516105

>  <r_i_glide_erotb>  (1) 
0.63983490757673345

>  <r_i_glide_esite>  (1) 
-0.047627667947053927

>  <r_i_glide_evdw>  (1) 
-32.60673294596458

>  <r_i_glide_gscore>  (1) 
-5.2689443438950265

>  <r_i_glide_gscore_strain>  (1) 
0

>  <r_i_glide_hbond>  (1) 
0

>  <r_i_glide_ligand_efficiency>  (1) 
-0.15259165815294176

>  <r_i_glide_ligand_efficiency_ln>  (1) 
-1.1462004294587151

>  <r_i_glide_ligand_efficiency_sa>  (1) 
-0.49433773652876967

>  <r_i_glide_lipo>  (1) 
-2.8304153568047452

>  <r_i_glide_metal>  (1) 
-0

>  <r_i_glide_rewards>  (1) 
-0.93886769783900248

>  <r_lp_Energy>  (1) 
47.464686

>  <s_epik_Chemistry_Notes>  (1) 
This compound has an imine and may undergo hydrolysis. This compound has a N-S or N-O group and may undergo hydrolysis at high or low pH.

>  <s_epik_cmdline>  (1) 
J2VwaWtfcHl0aG9uJywgJy1waHQnLCAnMS4wJywgJy1waCcsICc3LjQnLCAnLXRuJywgJzgnLCAnLW1hJywgJzUwMCcsICctaW1hZScsICc8aW5maWxlLm1hZT4nLCAnLW9tYWUnLCAnPG91dGZpbGUubWFlPic=

>  <s_epik_input>  (1) 
RltDSDJdW0NASF0xW0NIMl1bTkhdTihTMSlbQ0BASF0oW0NIMl1OMltDSF0oW0NIM10pW0NIM10pW0NIMl1bQ0BASF0oW0NASF0yW0NIM10pQzM9TltDQEhdKFtDSDJdW05IXTMpW0NIMl1bQ0gyXVtDQEBIXShPW0NIM10pW0NAQEhdKFtPSF0pW0NIMl1bTkhdQyg9TylbQ0gzXQ==

>  <s_glide_docking_method>  (1) 
confgen

>  <s_i_glide_gridfile>  (1) 
gpcr_5ht2c_6bqh_protein_autoprepared_prepared

>  <s_lp_Force_Field>  (1) 
S-OPLS

>  <s_lp_Variant>  (1) 
DiffSBDD_5_num_sample_50-1

>  <s_m_source_file>  (1) 
generated__ligand_DiffSBDD_2026-05-06_prepared.sdf

>  <GenAI_Model>  (1) 
DiffSBDD

>  <Protein>  (1) 
GPCR_5HT2C

$$$$
DiffSBDD_5_num_sample_50
     RDKit          3D

  0  0  0  0  0  0  0  0  0  0999 V3000
M  V30 BEGIN CTAB
M  V30 COUNTS 80 82 0 0 1
M  V30 BEGIN ATOM
M  V30 1 C 37.205625 30.397721 58.605626 0
M  V30 2 C 38.888914 28.568465 58.088244 0 CFG=2
M  V30 3 N 40.388461 32.778138 61.908845 0
M  V30 4 F 40.265351 27.824135 50.254026 0
M  V30 5 C 37.083933 33.907277 58.993137 0
M  V30 6 N 37.866498 31.514130 58.589528 0 CHG=1
M  V30 7 C 38.173213 35.659901 60.642207 0 CFG=1
M  V30 8 C 39.032775 28.966901 51.794069 0 CFG=2
M  V30 9 C 38.545928 26.088503 57.526748 0
M  V30 10 C 37.358735 32.505927 59.550663 0 CFG=2
M  V30 11 N 36.221191 30.423183 59.452770 0
M  V30 12 C 39.636022 25.021914 57.636325 0
M  V30 13 C 37.868296 28.526372 55.346017 0 CFG=2
M  V30 14 C 37.419860 25.596407 56.596167 0
M  V30 15 N 37.140092 28.134889 53.074219 0 CHG=1
M  V30 16 C 39.362135 33.816260 62.101524 0
M  V30 17 C 39.093241 28.260944 59.582866 0
M  V30 18 C 36.072528 31.715390 60.152267 0
M  V30 19 C 37.528640 29.215523 57.739393 0 CFG=2
M  V30 20 C 38.039558 27.809226 51.970428 0
M  V30 21 O 41.066543 30.626978 61.814949 0
M  V30 22 C 40.388659 28.421032 51.427303 0
M  V30 23 C 38.781495 30.958178 62.412468 0
M  V30 24 C 40.177710 31.445790 62.020391 0
M  V30 25 S 39.127684 29.896002 53.342208 0
M  V30 26 C 37.581293 29.697933 56.286593 0
M  V30 27 C 39.187651 27.806444 55.743720 0
M  V30 28 C 37.203921 37.567281 61.701498 0
M  V30 29 O 37.846136 36.309033 61.866583 0
M  V30 30 O 40.540255 35.624372 61.051781 0
M  V30 31 N 39.184360 27.407487 57.185001 0 CFG=1 CHG=1
M  V30 32 C 39.424830 34.775087 60.890811 0 CFG=2
M  V30 33 N 37.807505 29.053632 53.995830 0
M  V30 34 C 36.897830 34.928058 60.137096 0
M  V30 35 H 39.656243 29.311263 57.860009 0
M  V30 36 H 41.314859 33.095314 61.655280 0
M  V30 37 H 36.177404 33.876483 58.386949 0
M  V30 38 H 37.867000 34.228286 58.308966 0
M  V30 39 H 38.439083 36.400198 59.885007 0
M  V30 40 H 38.678144 29.622496 51.003182 0
M  V30 41 H 38.092269 26.143268 58.514741 0
M  V30 42 H 38.122894 32.565467 60.306131 0
M  V30 43 H 35.572521 29.661443 59.586554 0
M  V30 44 H 39.200431 24.045423 57.853306 0
M  V30 45 H 40.240029 24.933951 56.730652 0
M  V30 46 H 40.296374 25.262262 58.466416 0
M  V30 47 H 37.067622 27.805177 55.403282 0
M  V30 48 H 37.102417 24.593476 56.881513 0
M  V30 49 H 36.529229 26.214964 56.688508 0
M  V30 50 H 37.716093 25.539639 55.549176 0
M  V30 51 H 36.859119 27.306397 53.580768 0
M  V30 52 H 39.568394 34.356257 63.028385 0
M  V30 53 H 38.343753 33.460759 62.199903 0
M  V30 54 H 39.123617 29.185761 60.153472 0
M  V30 55 H 38.305814 27.653037 60.018966 0
M  V30 56 H 40.040189 27.747393 59.758212 0
M  V30 57 H 36.111143 31.601209 61.233603 0
M  V30 58 H 35.130290 32.193180 59.875117 0
M  V30 59 H 36.728999 28.482794 57.858051 0
M  V30 60 H 37.481654 27.623905 51.056515 0
M  V30 61 H 38.549969 26.881848 52.232752 0
M  V30 62 H 41.161147 29.188899 51.354324 0
M  V30 63 H 40.666114 27.661377 52.153969 0
M  V30 64 H 38.195461 30.720705 61.532416 0
M  V30 65 H 38.896522 30.025657 62.961547 0
M  V30 66 H 38.209706 31.609049 63.053570 0
M  V30 67 H 36.652029 30.183654 56.011816 0
M  V30 68 H 38.351635 30.461548 56.171392 0
M  V30 69 H 39.381509 26.950357 55.098702 0
M  V30 70 H 40.032395 28.484658 55.602024 0
M  V30 71 H 36.949804 37.980317 62.677183 0
M  V30 72 H 37.864356 38.274102 61.200725 0
M  V30 73 H 36.284940 37.488174 61.120437 0
M  V30 74 H 40.352923 36.225348 61.758454 0
M  V30 75 H 39.628987 34.207085 59.983141 0
M  V30 76 H 36.388841 34.448162 60.975116 0
M  V30 77 H 36.199292 35.683790 59.780921 0
M  V30 78 H 36.330473 28.627502 52.724595 0
M  V30 79 H 38.653786 31.699863 57.986638 0
M  V30 80 H 40.160079 27.222877 57.375390 0
M  V30 END ATOM
M  V30 BEGIN BOND
M  V30 1 2 6 1
M  V30 2 1 10 5
M  V30 3 1 10 6
M  V30 4 1 11 1
M  V30 5 1 12 9
M  V30 6 1 14 9
M  V30 7 1 16 3
M  V30 8 1 17 2
M  V30 9 1 18 10
M  V30 10 1 18 11
M  V30 11 1 19 1
M  V30 12 1 19 2
M  V30 13 1 20 8
M  V30 14 1 20 15
M  V30 15 1 22 4
M  V30 16 1 22 8
M  V30 17 1 24 3
M  V30 18 2 24 21
M  V30 19 1 24 23
M  V30 20 1 25 8
M  V30 21 1 26 13
M  V30 22 1 26 19
M  V30 23 1 27 13
M  V30 24 1 29 7
M  V30 25 1 29 28
M  V30 26 1 31 2
M  V30 27 1 31 9
M  V30 28 1 31 27
M  V30 29 1 32 7
M  V30 30 1 32 16
M  V30 31 1 32 30
M  V30 32 1 33 13
M  V30 33 1 33 15
M  V30 34 1 33 25
M  V30 35 1 34 5
M  V30 36 1 34 7
M  V30 37 1 2 35 CFG=3
M  V30 38 1 36 3
M  V30 39 1 37 5
M  V30 40 1 38 5
M  V30 41 1 7 39 CFG=3
M  V30 42 1 8 40 CFG=3
M  V30 43 1 41 9
M  V30 44 1 10 42 CFG=1
M  V30 45 1 43 11
M  V30 46 1 44 12
M  V30 47 1 45 12
M  V30 48 1 46 12
M  V30 49 1 13 47 CFG=3
M  V30 50 1 48 14
M  V30 51 1 49 14
M  V30 52 1 50 14
M  V30 53 1 51 15
M  V30 54 1 52 16
M  V30 55 1 53 16
M  V30 56 1 54 17
M  V30 57 1 55 17
M  V30 58 1 56 17
M  V30 59 1 57 18
M  V30 60 1 58 18
M  V30 61 1 19 59 CFG=3
M  V30 62 1 60 20
M  V30 63 1 61 20
M  V30 64 1 62 22
M  V30 65 1 63 22
M  V30 66 1 64 23
M  V30 67 1 65 23
M  V30 68 1 66 23
M  V30 69 1 67 26
M  V30 70 1 68 26
M  V30 71 1 69 27
M  V30 72 1 70 27
M  V30 73 1 71 28
M  V30 74 1 72 28
M  V30 75 1 73 28
M  V30 76 1 74 30
M  V30 77 1 32 75 CFG=3
M  V30 78 1 76 34
M  V30 79 1 77 34
M  V30 80 1 78 15
M  V30 81 1 79 6
M  V30 82 1 31 80 CFG=1
M  V30 END BOND
M  V30 END CTAB
M  END
>  <i_epik_Tot_Q>  (1) 
3

>  <i_epik_Tot_abs_Q>  (1) 
3

>  <i_i_glide_confnum>  (1) 
506

>  <i_i_glide_lignum>  (1) 
14

>  <i_i_glide_posenum>  (1) 
41

>  <i_i_glide_rotatable_bonds>  (1) 
13

>  <i_lp_mmshare_version>  (1) 
72125

>  <i_m_source_file_index>  (1) 
6

>  <i_f3d_flags>  (1) 
0

>  <num_sample>  (1) 
50

>  <b_lp_Chiralities_Consistent>  (1) 
1

>  <r_epik_Charging_Adjusted_Penalty>  (1) 
0.16301919670703535

>  <r_epik_Ionization_Penalty>  (1) 
0.082191666583868089

>  <r_epik_Ionization_Penalty_Charging>  (1) 
0.082191230012028396

>  <r_epik_Ionization_Penalty_Neutral>  (1) 
4.3657183969654913e-07

>  <r_epik_State_Penalty>  (1) 
0.080827966695006942

>  <r_glide_ring_energy>  (1) 
0

>  <r_i_docking_score>  (1) 
-5.1675914676839563

>  <r_i_glide_ecoul>  (1) 
-1.9372950332329131

>  <r_i_glide_eff_state_penalty>  (1) 
0.080827966695006942

>  <r_i_glide_einternal>  (1) 
20.318551358108

>  <r_i_glide_emodel>  (1) 
-42.960737842848182

>  <r_i_glide_emodel_strain>  (1) 
3.0583910733857778

>  <r_i_glide_energy>  (1) 
-38.689300663183367

>  <r_i_glide_erotb>  (1) 
0.63983490757673345

>  <r_i_glide_esite>  (1) 
-0.25374102375034252

>  <r_i_glide_evdw>  (1) 
-36.752005629950453

>  <r_i_glide_gscore>  (1) 
-5.2484194343789632

>  <r_i_glide_gscore_strain>  (1) 
0

>  <r_i_glide_hbond>  (1) 
-0.32000000000000001

>  <r_i_glide_ligand_efficiency>  (1) 
-0.15198798434364577

>  <r_i_glide_ligand_efficiency_ln>  (1) 
-1.1416659012424053

>  <r_i_glide_ligand_efficiency_sa>  (1) 
-0.49238206773205229

>  <r_i_glide_lipo>  (1) 
-3.7907437400799795

>  <r_i_glide_metal>  (1) 
-0

>  <r_i_glide_rewards>  (1) 
0.60442495835708621

>  <r_lp_Energy>  (1) 
47.464686

>  <s_epik_Chemistry_Notes>  (1) 
This compound has an imine and may undergo hydrolysis. This compound has a N-S or N-O group and may undergo hydrolysis at high or low pH.

>  <s_epik_cmdline>  (1) 
J2VwaWtfcHl0aG9uJywgJy1waHQnLCAnMS4wJywgJy1waCcsICc3LjQnLCAnLXRuJywgJzgnLCAnLW1hJywgJzUwMCcsICctaW1hZScsICc8aW5maWxlLm1hZT4nLCAnLW9tYWUnLCAnPG91dGZpbGUubWFlPic=

>  <s_epik_input>  (1) 
RltDSDJdW0NASF0xW0NIMl1bTkhdTihTMSlbQ0BASF0oW0NIMl1OMltDSF0oW0NIM10pW0NIM10pW0NIMl1bQ0BASF0oW0NASF0yW0NIM10pQzM9TltDQEhdKFtDSDJdW05IXTMpW0NIMl1bQ0gyXVtDQEBIXShPW0NIM10pW0NAQEhdKFtPSF0pW0NIMl1bTkhdQyg9TylbQ0gzXQ==

>  <s_glide_docking_method>  (1) 
confgen

>  <s_i_glide_gridfile>  (1) 
gpcr_5ht2c_6bqh_protein_autoprepared_prepared

>  <s_lp_Force_Field>  (1) 
S-OPLS

>  <s_lp_Variant>  (1) 
DiffSBDD_5_num_sample_50-1

>  <s_m_source_file>  (1) 
generated__ligand_DiffSBDD_2026-05-06_prepared.sdf

>  <GenAI_Model>  (1) 
DiffSBDD

>  <Protein>  (1) 
GPCR_5HT2C

$$$$
DiffSBDD_3_num_sample_50
     RDKit          3D

  0  0  0  0  0  0  0  0  0  0999 V3000
M  V30 BEGIN CTAB
M  V30 COUNTS 73 76 0 0 1
M  V30 BEGIN ATOM
M  V30 1 C 36.315173 29.987075 59.723369 0
M  V30 2 N 40.482928 28.021691 59.837915 0
M  V30 3 C 37.526773 28.557468 58.021736 0
M  V30 4 C 37.640043 35.515783 60.975815 0 CFG=2
M  V30 5 C 39.830228 33.253436 62.038298 0
M  V30 6 S 39.067426 27.221434 51.826403 0
M  V30 7 C 38.948594 30.565192 57.973345 0
M  V30 8 C 40.534963 28.082228 58.682784 0
M  V30 9 C 39.859814 37.621729 62.661962 0
M  V30 10 C 39.089573 28.963817 51.408814 0 CFG=1
M  V30 11 C 37.969650 36.916653 61.075139 0 CFG=2
M  V30 12 C 36.228307 29.243500 58.406595 0
M  V30 13 C 37.365663 32.257685 59.265332 0 CFG=2
M  V30 14 C 38.898164 33.361775 60.856762 0
M  V30 15 C 38.636154 34.689258 60.203829 0
M  V30 16 C 39.574061 29.723767 52.641603 0
M  V30 17 N 38.363422 29.448013 57.224243 0
M  V30 18 C 40.603252 28.180405 57.214714 0
M  V30 19 O 36.892846 36.601563 60.242458 0
M  V30 20 C 39.690512 29.485202 55.177728 0
M  V30 21 C 39.038997 27.508507 53.612751 0
M  V30 22 C 39.337329 28.673520 56.449302 0 CFG=2
M  V30 23 C 36.295557 38.521813 61.946684 0
M  V30 24 C 39.969521 31.824362 62.602134 0
M  V30 25 N 38.320402 32.289147 60.407364 0 CHG=1
M  V30 26 C 38.633120 38.020351 61.853589 0 CFG=1
M  V30 27 C 36.105759 31.484557 59.676482 0 CFG=2
M  V30 28 C 38.103719 31.857889 57.955943 0
M  V30 29 C 38.986913 29.026780 53.879132 0 CFG=2
M  V30 30 O 35.707045 31.895912 60.979167 0
M  V30 31 N 37.339000 37.542008 62.253235 0
M  V30 32 F 39.868647 29.195188 50.351823 0
M  V30 33 O 39.611059 36.510917 63.500764 0
M  V30 34 H 35.467392 29.622070 60.253510 0
M  V30 35 H 37.212145 29.717347 60.273678 0
M  V30 36 H 37.256389 27.682976 57.429940 0
M  V30 37 H 38.039596 28.170202 58.899375 0
M  V30 38 H 37.066088 35.031137 61.766962 0
M  V30 39 H 40.812316 33.619974 61.737154 0
M  V30 40 H 39.867742 30.821313 57.453657 0
M  V30 41 H 39.239545 30.276949 58.981299 0
M  V30 42 H 40.193588 38.460981 63.269447 0
M  V30 43 H 40.667242 37.362744 61.977152 0
M  V30 44 H 38.069951 29.221722 51.151118 0
M  V30 45 H 35.867320 29.877419 57.603026 0
M  V30 46 H 35.469368 28.474051 58.556138 0
M  V30 47 H 36.940703 33.242666 59.110065 0
M  V30 48 H 39.474799 33.916862 62.825680 0
M  V30 49 H 38.267695 34.618365 59.187152 0
M  V30 50 H 39.314933 30.781668 52.613744 0
M  V30 51 H 40.660478 29.679571 52.653838 0
M  V30 52 H 40.890676 27.198176 56.836961 0
M  V30 53 H 41.455865 28.821172 57.016661 0
M  V30 54 H 39.482628 30.548918 55.308305 0
M  V30 55 H 40.766210 29.459573 55.053380 0
M  V30 56 H 39.927783 27.054799 54.045759 0
M  V30 57 H 38.177242 27.001776 54.049512 0
M  V30 58 H 38.828502 27.768564 56.124554 0
M  V30 59 H 35.340146 38.025294 61.797106 0
M  V30 60 H 36.176961 39.223142 62.772445 0
M  V30 61 H 36.512651 39.104122 61.053109 0
M  V30 62 H 40.648842 31.824528 63.455105 0
M  V30 63 H 39.018339 31.428867 62.959483 0
M  V30 64 H 40.380227 31.128582 61.869048 0
M  V30 65 H 39.586059 35.223050 60.145469 0
M  V30 66 H 38.634530 39.009529 61.399990 0
M  V30 67 H 35.252527 31.729068 59.053504 0
M  V30 68 H 37.467382 31.870888 57.079607 0
M  V30 69 H 38.804487 32.669608 57.758696 0
M  V30 70 H 37.933735 29.307721 53.944173 0
M  V30 71 H 35.376127 32.781432 60.923168 0
M  V30 72 H 38.897086 36.739123 64.079678 0
M  V30 73 H 38.501029 31.405925 60.875123 0
M  V30 END ATOM
M  V30 BEGIN BOND
M  V30 1 3 8 2
M  V30 2 1 10 6
M  V30 3 1 11 4
M  V30 4 1 12 1
M  V30 5 1 12 3
M  V30 6 1 14 5
M  V30 7 1 15 4
M  V30 8 1 15 14
M  V30 9 1 16 10
M  V30 10 1 17 3
M  V30 11 1 17 7
M  V30 12 1 18 8
M  V30 13 1 19 4
M  V30 14 1 11 19 CFG=1
M  V30 15 1 21 6
M  V30 16 1 22 17
M  V30 17 1 22 18
M  V30 18 1 22 20
M  V30 19 1 24 5
M  V30 20 1 25 13
M  V30 21 2 25 14
M  V30 22 1 26 9
M  V30 23 1 26 11
M  V30 24 1 27 1
M  V30 25 1 27 13
M  V30 26 1 28 7
M  V30 27 1 28 13
M  V30 28 1 29 16
M  V30 29 1 29 20
M  V30 30 1 29 21
M  V30 31 1 30 27
M  V30 32 1 31 11
M  V30 33 1 31 23
M  V30 34 1 31 26
M  V30 35 1 32 10
M  V30 36 1 33 9
M  V30 37 1 34 1
M  V30 38 1 35 1
M  V30 39 1 36 3
M  V30 40 1 37 3
M  V30 41 1 4 38 CFG=1
M  V30 42 1 39 5
M  V30 43 1 40 7
M  V30 44 1 41 7
M  V30 45 1 42 9
M  V30 46 1 43 9
M  V30 47 1 10 44 CFG=3
M  V30 48 1 45 12
M  V30 49 1 46 12
M  V30 50 1 13 47 CFG=3
M  V30 51 1 48 5
M  V30 52 1 49 15
M  V30 53 1 50 16
M  V30 54 1 51 16
M  V30 55 1 52 18
M  V30 56 1 53 18
M  V30 57 1 54 20
M  V30 58 1 55 20
M  V30 59 1 56 21
M  V30 60 1 57 21
M  V30 61 1 22 58 CFG=3
M  V30 62 1 59 23
M  V30 63 1 60 23
M  V30 64 1 61 23
M  V30 65 1 62 24
M  V30 66 1 63 24
M  V30 67 1 64 24
M  V30 68 1 65 15
M  V30 69 1 26 66 CFG=3
M  V30 70 1 27 67 CFG=3
M  V30 71 1 68 28
M  V30 72 1 69 28
M  V30 73 1 29 70 CFG=1
M  V30 74 1 71 30
M  V30 75 1 72 33
M  V30 76 1 73 25
M  V30 END BOND
M  V30 END CTAB
M  END
>  <i_epik_Tot_Q>  (1) 
1

>  <i_epik_Tot_abs_Q>  (1) 
1

>  <i_i_glide_confnum>  (1) 
1336

>  <i_i_glide_lignum>  (1) 
10

>  <i_i_glide_posenum>  (1) 
269

>  <i_i_glide_rotatable_bonds>  (1) 
11

>  <i_lp_mmshare_version>  (1) 
72125

>  <i_m_source_file_index>  (1) 
4

>  <i_f3d_flags>  (1) 
0

>  <num_sample>  (1) 
50

>  <b_lp_Chiralities_Consistent>  (1) 
1

>  <r_epik_Charging_Adjusted_Penalty>  (1) 
0.69158801815778781

>  <r_epik_Ionization_Penalty>  (1) 
0.18004840766126984

>  <r_epik_Ionization_Penalty_Charging>  (1) 
0.063917621844604325

>  <r_epik_Ionization_Penalty_Neutral>  (1) 
0.11613078581666553

>  <r_epik_State_Penalty>  (1) 
0.62767039631318344

>  <r_glide_ring_energy>  (1) 
1.2836110824267417

>  <r_i_docking_score>  (1) 
-5.1590398924809167

>  <r_i_glide_ecoul>  (1) 
-1.7842511870347941

>  <r_i_glide_eff_state_penalty>  (1) 
0.62767039631318344

>  <r_i_glide_einternal>  (1) 
13.358989703961447

>  <r_i_glide_emodel>  (1) 
-30.453450977376555

>  <r_i_glide_emodel_strain>  (1) 
5.1948725340610622

>  <r_i_glide_energy>  (1) 
-34.771491832772242

>  <r_i_glide_erotb>  (1) 
0.69427784923131142

>  <r_i_glide_esite>  (1) 
0

>  <r_i_glide_evdw>  (1) 
-32.987240645737451

>  <r_i_glide_gscore>  (1) 
-5.7867102887941

>  <r_i_glide_gscore_strain>  (1) 
0.29871813351526555

>  <r_i_glide_hbond>  (1) 
-0.046200102535955967

>  <r_i_glide_ligand_efficiency>  (1) 
-0.15633454219639142

>  <r_i_glide_ligand_efficiency_ln>  (1) 
-1.1473437600087923

>  <r_i_glide_ligand_efficiency_sa>  (1) 
-0.50144841105910665

>  <r_i_glide_lipo>  (1) 
-2.8666438843639321

>  <r_i_glide_metal>  (1) 
-0

>  <r_i_glide_rewards>  (1) 
-1.9498625742986972

>  <r_lp_Energy>  (1) 
28.262066999999998

>  <s_epik_Chemistry_Notes>  (1) 
This compound has an imine and may undergo hydrolysis.

>  <s_epik_cmdline>  (1) 
J2VwaWtfcHl0aG9uJywgJy1waHQnLCAnMS4wJywgJy1waCcsICc3LjQnLCAnLXRuJywgJzgnLCAnLW1hJywgJzUwMCcsICctaW1hZScsICc8aW5maWxlLm1hZT4nLCAnLW9tYWUnLCAnPG91dGZpbGUubWFlPic=

>  <s_epik_input>  (1) 
RltDQEhdMVNbQ0gyXVtDQEhdKFtDSDJdMSlbQ0gyXVtDQEBIXShbQ0gyXUMjTilOKFtDSDJdW0NIMl0yKVtDSDJdW0NIMl1bQ0gyXVtDQEBIXShbT0hdKVtDQEhdMltOSF1DKD1bQ0hdXFtDSDNdKVxbQ0gyXVtDQEhdKE8zKVtDQF0zNFtDQEhdKFtDSDJdW09IXSlONFtDSDNd

>  <s_glide_docking_method>  (1) 
confgen

>  <s_i_glide_gridfile>  (1) 
gpcr_5ht2c_6bqh_protein_autoprepared_prepared

>  <s_lp_Force_Field>  (1) 
S-OPLS

>  <s_lp_Variant>  (1) 
DiffSBDD_3_num_sample_50-1

>  <s_m_source_file>  (1) 
generated__ligand_DiffSBDD_2026-05-06_prepared.sdf

>  <GenAI_Model>  (1) 
DiffSBDD

>  <Protein>  (1) 
GPCR_5HT2C

$$$$
DiffSBDD_10_num_sample_50
     RDKit          3D

  0  0  0  0  0  0  0  0  0  0999 V3000
M  V30 BEGIN CTAB
M  V30 COUNTS 65 67 0 0 1
M  V30 BEGIN ATOM
M  V30 1 C 38.471226 25.345812 58.183684 0
M  V30 2 C 37.230420 25.859797 57.439141 0
M  V30 3 C 39.240378 28.899662 52.043734 0
M  V30 4 N 38.702229 26.886499 55.778468 0 CFG=2 CHG=1
M  V30 5 O 38.509866 30.880242 62.653483 0 CHG=-1
M  V30 6 O 41.749668 28.014736 58.653642 0
M  V30 7 C 35.110814 32.600767 59.822908 0
M  V30 8 C 38.835520 29.621447 53.192039 0
M  V30 9 C 37.673317 33.756622 59.707190 0
M  V30 10 O 39.370116 33.217913 62.028455 0
M  V30 11 N 36.090187 30.421457 60.107743 0
M  V30 12 C 38.652853 28.946949 54.411855 0
M  V30 13 C 38.842823 30.008306 59.488481 0
M  V30 14 C 36.249017 31.783576 59.942875 0
M  V30 15 C 37.518229 25.989887 55.931247 0 CFG=1
M  V30 16 C 36.557793 23.605219 55.474288 0
M  V30 17 C 38.888854 27.576829 54.474433 0
M  V30 18 O 40.901280 31.169648 61.749666 0
M  V30 19 C 39.940371 26.377683 56.408425 0
M  V30 20 N 39.534318 27.565362 58.517743 0
M  V30 21 C 37.657311 24.633983 55.190723 0
M  V30 22 P 39.469011 31.556760 61.759095 0
M  V30 23 C 36.669236 36.063092 59.397319 0
M  V30 24 C 35.248923 33.984292 59.636799 0
M  V30 25 C 40.581196 28.350224 58.825899 0
M  V30 26 N 40.227671 29.541602 59.344768 0
M  V30 27 C 39.467420 27.508046 52.128437 0
M  V30 28 O 38.259165 29.622407 55.528421 0 CHG=-1
M  V30 29 F 39.420613 29.543609 50.866775 0
M  V30 30 C 39.305688 26.847384 53.361440 0
M  V30 31 C 37.543399 32.357469 59.883428 0
M  V30 32 C 39.702350 26.236123 57.919473 0 CFG=1
M  V30 33 C 38.814260 31.487274 59.994580 0 CFG=2
M  V30 34 C 36.526838 34.566357 59.585665 0
M  V30 35 H 38.684285 24.327621 57.853505 0
M  V30 36 H 38.267410 25.280734 59.247111 0
M  V30 37 H 36.370486 25.221332 57.631120 0
M  V30 38 H 36.949811 26.836668 57.835357 0
M  V30 39 H 34.126907 32.160989 59.853547 0
M  V30 40 H 38.667338 30.685786 53.132343 0
M  V30 41 H 38.654917 34.205259 59.661652 0
M  V30 42 H 38.450593 33.426422 61.992506 0
M  V30 43 H 35.193374 30.000492 59.921195 0
M  V30 44 H 36.886070 29.812027 60.002579 0
M  V30 45 H 38.347954 29.342766 60.196658 0
M  V30 46 H 38.337553 29.947684 58.521763 0
M  V30 47 H 36.667408 26.482931 55.469099 0
M  V30 48 H 36.667511 22.748157 54.810322 0
M  V30 49 H 36.620438 23.224588 56.493868 0
M  V30 50 H 35.563015 24.021307 55.316918 0
M  V30 51 H 40.759175 27.074211 56.217897 0
M  V30 52 H 40.255911 25.431362 55.972189 0
M  V30 53 H 38.598817 27.899392 58.690741 0
M  V30 54 H 37.622029 24.832269 54.124057 0
M  V30 55 H 38.614947 24.159832 55.389482 0
M  V30 56 H 35.751141 36.492210 58.999041 0
M  V30 57 H 36.885721 36.547425 60.349115 0
M  V30 58 H 37.467296 36.297134 58.695572 0
M  V30 59 H 34.370587 34.598651 59.528850 0
M  V30 60 H 40.960476 30.175606 59.632462 0
M  V30 61 H 39.783737 26.957348 51.255246 0
M  V30 62 H 39.506752 25.801283 53.453485 0
M  V30 63 H 40.574766 25.746542 58.352600 0
M  V30 64 H 39.467399 32.051545 59.348871 0
M  V30 65 H 38.466342 27.667100 56.382004 0
M  V30 END ATOM
M  V30 BEGIN BOND
M  V30 1 1 2 1
M  V30 2 2 8 3
M  V30 3 1 12 8
M  V30 4 1 14 7
M  V30 5 1 14 11
M  V30 6 1 15 2
M  V30 7 1 15 4
M  V30 8 1 17 4
M  V30 9 2 17 12
M  V30 10 1 19 4
M  V30 11 1 21 15
M  V30 12 1 21 16
M  V30 13 1 22 5
M  V30 14 1 22 10
M  V30 15 2 22 18
M  V30 16 2 24 7
M  V30 17 2 25 6
M  V30 18 1 25 20
M  V30 19 1 26 13
M  V30 20 1 26 25
M  V30 21 1 27 3
M  V30 22 1 28 12
M  V30 23 1 29 3
M  V30 24 1 30 17
M  V30 25 2 30 27
M  V30 26 1 31 9
M  V30 27 2 31 14
M  V30 28 1 32 1
M  V30 29 1 32 19
M  V30 30 1 32 20
M  V30 31 1 33 13
M  V30 32 1 33 22
M  V30 33 1 33 31
M  V30 34 2 34 9
M  V30 35 1 34 23
M  V30 36 1 34 24
M  V30 37 1 35 1
M  V30 38 1 36 1
M  V30 39 1 37 2
M  V30 40 1 38 2
M  V30 41 1 39 7
M  V30 42 1 40 8
M  V30 43 1 41 9
M  V30 44 1 42 10
M  V30 45 1 43 11
M  V30 46 1 44 11
M  V30 47 1 45 13
M  V30 48 1 46 13
M  V30 49 1 15 47 CFG=3
M  V30 50 1 48 16
M  V30 51 1 49 16
M  V30 52 1 50 16
M  V30 53 1 51 19
M  V30 54 1 52 19
M  V30 55 1 53 20
M  V30 56 1 54 21
M  V30 57 1 55 21
M  V30 58 1 56 23
M  V30 59 1 57 23
M  V30 60 1 58 23
M  V30 61 1 59 24
M  V30 62 1 60 26
M  V30 63 1 61 27
M  V30 64 1 62 30
M  V30 65 1 32 63 CFG=1
M  V30 66 1 33 64 CFG=3
M  V30 67 1 4 65 CFG=1
M  V30 END BOND
M  V30 END CTAB
M  END
>  <i_epik_Tot_Q>  (1) 
-1

>  <i_epik_Tot_abs_Q>  (1) 
3

>  <i_i_glide_confnum>  (1) 
421

>  <i_i_glide_lignum>  (1) 
37

>  <i_i_glide_posenum>  (1) 
338

>  <i_i_glide_rotatable_bonds>  (1) 
10

>  <i_lp_mmshare_version>  (1) 
72125

>  <i_m_source_file_index>  (1) 
11

>  <i_f3d_flags>  (1) 
0

>  <num_sample>  (1) 
50

>  <b_lp_Chiralities_Consistent>  (1) 
1

>  <r_epik_Charging_Adjusted_Penalty>  (1) 
0.95893062563682818

>  <r_epik_Ionization_Penalty>  (1) 
0.45630296270815951

>  <r_epik_Ionization_Penalty_Charging>  (1) 
0.042165092744118775

>  <r_epik_Ionization_Penalty_Neutral>  (1) 
0.41413786996404073

>  <r_epik_State_Penalty>  (1) 
0.91676553289270946

>  <r_glide_ring_energy>  (1) 
0

>  <r_i_docking_score>  (1) 
-5.1574096984108238

>  <r_i_glide_ecoul>  (1) 
0.18480144381722985

>  <r_i_glide_eff_state_penalty>  (1) 
0.91676553289270946

>  <r_i_glide_einternal>  (1) 
18.67259062651134

>  <r_i_glide_emodel>  (1) 
-48.041491636272049

>  <r_i_glide_emodel_strain>  (1) 
0.50486261506553376

>  <r_i_glide_energy>  (1) 
-41.290724717291567

>  <r_i_glide_erotb>  (1) 
0.66918926381983879

>  <r_i_glide_esite>  (1) 
-0.055233121911695438

>  <r_i_glide_evdw>  (1) 
-41.475526161108796

>  <r_i_glide_gscore>  (1) 
-6.0741752313035331

>  <r_i_glide_gscore_strain>  (1) 
0

>  <r_i_glide_hbond>  (1) 
-0.087598705333251134

>  <r_i_glide_ligand_efficiency>  (1) 
-0.15168852054149481

>  <r_i_glide_ligand_efficiency_ln>  (1) 
-1.1394164628210157

>  <r_i_glide_ligand_efficiency_sa>  (1) 
-0.49141192126454863

>  <r_i_glide_lipo>  (1) 
-3.5917040762865837

>  <r_i_glide_metal>  (1) 
-0

>  <r_i_glide_rewards>  (1) 
-0.96277250010898718

>  <r_lp_Energy>  (1) 
25.832879999999999

>  <s_epik_cmdline>  (1) 
J2VwaWtfcHl0aG9uJywgJy1waHQnLCAnMS4wJywgJy1waCcsICc3LjQnLCAnLXRuJywgJzgnLCAnLW1hJywgJzUwMCcsICctaW1hZScsICc8aW5maWxlLm1hZT4nLCAnLW9tYWUnLCAnPG91dGZpbGUubWFlPic=

>  <s_epik_input>  (1) 
RmMxW2NIXWMoW09IXSljKFtjSF1bY0hdMSlOMltDQEBIXShbQ0gyXVtDSDNdKVtDSDJdW0NIMl1bQ0BASF0oW0NIMl0yKVtOSF1DKD1PKVtOSF1bQ0gyXVtDQEhdKFAoPU8pKFtPSF0pW09IXSljM1tjSF1jKFtDSDNdKVtjSF1bY0hdYzNbTkgyXQ==

>  <s_glide_docking_method>  (1) 
confgen

>  <s_i_glide_gridfile>  (1) 
gpcr_5ht2c_6bqh_protein_autoprepared_prepared

>  <s_lp_Force_Field>  (1) 
S-OPLS

>  <s_lp_Variant>  (1) 
DiffSBDD_10_num_sample_50-6

>  <s_m_source_file>  (1) 
generated__ligand_DiffSBDD_2026-05-06_prepared.sdf

>  <GenAI_Model>  (1) 
DiffSBDD

>  <Protein>  (1) 
GPCR_5HT2C

$$$$
DiffSBDD_30_num_sample_50
     RDKit          3D

  0  0  0  0  0  0  0  0  0  0999 V3000
M  V30 BEGIN CTAB
M  V30 COUNTS 68 67 0 0 1
M  V30 BEGIN ATOM
M  V30 1 C 36.623924 35.001256 60.880746 0
M  V30 2 C 39.142710 30.035362 56.366020 0 CFG=2
M  V30 3 C 40.145523 29.973503 55.200945 0
M  V30 4 O 36.645196 25.144397 56.457643 0
M  V30 5 C 37.889100 25.855659 54.529923 0
M  V30 6 C 37.721935 28.714393 58.049182 0
M  V30 7 C 39.796168 35.127951 62.478158 0
M  V30 8 C 37.423844 37.632397 59.253792 0
M  V30 9 C 38.263895 32.462613 56.822316 0
M  V30 10 C 38.475856 28.663001 56.694500 0 CFG=2
M  V30 11 C 37.853164 35.925271 61.064871 0 CFG=1
M  V30 12 C 39.440242 27.444903 56.628601 0
M  V30 13 C 37.582614 37.427745 60.770407 0 CFG=2
M  V30 14 C 37.387671 33.698196 58.798134 0
M  V30 15 C 38.617934 28.629971 59.300048 0
M  V30 16 C 38.083806 31.129760 56.067268 0
M  V30 17 C 37.678653 25.643875 56.024913 0
M  V30 18 C 38.810344 26.068775 56.967803 0 CFG=1
M  V30 19 C 36.955993 33.619682 60.280549 0
M  V30 20 C 36.411391 38.155624 61.494844 0
M  V30 21 O 38.667401 31.728964 59.053648 0 CHG=-1
M  V30 22 C 36.174982 37.828514 62.972323 0
M  V30 23 N 37.769227 32.342345 58.253509 0 CFG=2 CHG=1
M  V30 24 C 39.867095 24.965093 57.053487 0
M  V30 25 C 38.583771 35.697763 62.380232 0
M  V30 26 H 36.121602 34.861407 61.838331 0
M  V30 27 H 35.892141 35.480282 60.230666 0
M  V30 28 H 39.723759 30.337455 57.235685 0
M  V30 29 H 39.684945 29.586176 54.292002 0
M  V30 30 H 40.547233 30.963017 54.977132 0
M  V30 31 H 40.993675 29.338502 55.453465 0
M  V30 32 H 37.678059 26.888475 54.254625 0
M  V30 33 H 38.916372 25.622110 54.253556 0
M  V30 34 H 37.219530 25.210776 53.961341 0
M  V30 35 H 37.120119 29.618738 58.116439 0
M  V30 36 H 36.992015 27.908955 58.078306 0
M  V30 37 H 40.328469 34.791818 61.599993 0
M  V30 38 H 40.269667 34.991217 63.439650 0
M  V30 39 H 36.375533 37.621402 58.961314 0
M  V30 40 H 37.867403 38.580376 58.945512 0
M  V30 41 H 37.867386 36.847025 58.656584 0
M  V30 42 H 37.647274 33.223241 56.340886 0
M  V30 43 H 39.296577 32.813344 56.848694 0
M  V30 44 H 37.727332 28.507419 55.917958 0
M  V30 45 H 38.597345 35.629849 60.328173 0
M  V30 46 H 39.888967 27.374878 55.638131 0
M  V30 47 H 40.277803 27.625060 57.304364 0
M  V30 48 H 38.498959 37.945851 61.059361 0
M  V30 49 H 36.584265 34.082059 58.169420 0
M  V30 50 H 38.267201 34.314289 58.667106 0
M  V30 51 H 38.058280 28.904396 60.192415 0
M  V30 52 H 39.009691 27.625791 59.457245 0
M  V30 53 H 39.468502 29.306772 59.240110 0
M  V30 54 H 37.073049 30.760036 56.233084 0
M  V30 55 H 38.092277 31.352070 54.999726 0
M  V30 56 H 38.361381 26.130324 57.957498 0
M  V30 57 H 37.730336 33.149578 60.887976 0
M  V30 58 H 36.079208 32.976454 60.355346 0
M  V30 59 H 36.595199 39.228206 61.418723 0
M  V30 60 H 35.471494 38.021436 60.961729 0
M  V30 61 H 35.393334 38.466285 63.386518 0
M  V30 62 H 35.860985 36.795359 63.116449 0
M  V30 63 H 37.073107 37.993724 63.556589 0
M  V30 64 H 39.426181 24.015008 57.355822 0
M  V30 65 H 40.356307 24.821614 56.091623 0
M  V30 66 H 40.627763 25.221292 57.792161 0
M  V30 67 H 38.080190 36.021433 63.276306 0
M  V30 68 H 36.863789 31.822432 58.184169 0
M  V30 END ATOM
M  V30 BEGIN BOND
M  V30 1 1 3 2
M  V30 2 1 10 2
M  V30 3 1 10 6
M  V30 4 1 11 1
M  V30 5 1 12 10
M  V30 6 1 13 8
M  V30 7 1 13 11
M  V30 8 1 15 6
M  V30 9 1 16 2
M  V30 10 1 16 9
M  V30 11 2 17 4
M  V30 12 1 17 5
M  V30 13 1 18 12
M  V30 14 1 18 17
M  V30 15 1 19 1
M  V30 16 1 19 14
M  V30 17 1 20 13
M  V30 18 1 22 20
M  V30 19 1 23 9
M  V30 20 1 23 14
M  V30 21 1 23 21
M  V30 22 1 24 18
M  V30 23 2 25 7
M  V30 24 1 25 11
M  V30 25 1 26 1
M  V30 26 1 27 1
M  V30 27 1 2 28 CFG=1
M  V30 28 1 29 3
M  V30 29 1 30 3
M  V30 30 1 31 3
M  V30 31 1 32 5
M  V30 32 1 33 5
M  V30 33 1 34 5
M  V30 34 1 35 6
M  V30 35 1 36 6
M  V30 36 1 37 7
M  V30 37 1 38 7
M  V30 38 1 39 8
M  V30 39 1 40 8
M  V30 40 1 41 8
M  V30 41 1 42 9
M  V30 42 1 43 9
M  V30 43 1 10 44 CFG=3
M  V30 44 1 11 45 CFG=3
M  V30 45 1 46 12
M  V30 46 1 47 12
M  V30 47 1 13 48 CFG=1
M  V30 48 1 49 14
M  V30 49 1 50 14
M  V30 50 1 51 15
M  V30 51 1 52 15
M  V30 52 1 53 15
M  V30 53 1 54 16
M  V30 54 1 55 16
M  V30 55 1 18 56 CFG=1
M  V30 56 1 57 19
M  V30 57 1 58 19
M  V30 58 1 59 20
M  V30 59 1 60 20
M  V30 60 1 61 22
M  V30 61 1 62 22
M  V30 62 1 63 22
M  V30 63 1 64 24
M  V30 64 1 65 24
M  V30 65 1 66 24
M  V30 66 1 67 25
M  V30 67 1 23 68 CFG=3
M  V30 END BOND
M  V30 END CTAB
M  END
>  <i_epik_Tot_Q>  (1) 
0

>  <i_epik_Tot_abs_Q>  (1) 
2

>  <i_i_glide_confnum>  (1) 
81

>  <i_i_glide_lignum>  (1) 
79

>  <i_i_glide_posenum>  (1) 
382

>  <i_i_glide_rotatable_bonds>  (1) 
15

>  <i_lp_mmshare_version>  (1) 
72125

>  <i_m_source_file_index>  (1) 
31

>  <i_f3d_flags>  (1) 
0

>  <num_sample>  (1) 
50

>  <b_lp_Chiralities_Consistent>  (1) 
1

>  <r_epik_Charging_Adjusted_Penalty>  (1) 
0.52251968911758562

>  <r_epik_Ionization_Penalty>  (1) 
0.019979657236955634

>  <r_epik_Ionization_Penalty_Charging>  (1) 
0.019979657236557934

>  <r_epik_Ionization_Penalty_Neutral>  (1) 
3.9770064437045143e-13

>  <r_epik_State_Penalty>  (1) 
0.50254003188102769

>  <r_glide_ring_energy>  (1) 
0

>  <r_i_docking_score>  (1) 
-5.1497590880608657

>  <r_i_glide_ecoul>  (1) 
-4.4645904194487755

>  <r_i_glide_eff_state_penalty>  (1) 
0.50254003188102769

>  <r_i_glide_einternal>  (1) 
9.7886515828105392

>  <r_i_glide_emodel>  (1) 
-42.650246882885796

>  <r_i_glide_emodel_strain>  (1) 
3.3481657860945901

>  <r_i_glide_energy>  (1) 
-36.482550590002937

>  <r_i_glide_erotb>  (1) 
1.833058027080513

>  <r_i_glide_esite>  (1) 
-0.091957443026863761

>  <r_i_glide_evdw>  (1) 
-32.017960170554161

>  <r_i_glide_gscore>  (1) 
-5.652299119941893

>  <r_i_glide_gscore_strain>  (1) 
0

>  <r_i_glide_hbond>  (1) 
-0.11115383382219925

>  <r_i_glide_ligand_efficiency>  (1) 
-0.20599036352243463

>  <r_i_glide_ligand_efficiency_ln>  (1) 
-1.2206472296969646

>  <r_i_glide_ligand_efficiency_sa>  (1) 
-0.60231947684051546

>  <r_i_glide_lipo>  (1) 
-2.8742129549812403

>  <r_i_glide_metal>  (1) 
-0

>  <r_i_glide_rewards>  (1) 
-2.1374463437470772

>  <r_lp_Energy>  (1) 
19.132985999999999

>  <s_epik_cmdline>  (1) 
J2VwaWtfcHl0aG9uJywgJy1waHQnLCAnMS4wJywgJy1waCcsICc3LjQnLCAnLXRuJywgJzgnLCAnLW1hJywgJzUwMCcsICctaW1hZScsICc8aW5maWxlLm1hZT4nLCAnLW9tYWUnLCAnPG91dGZpbGUubWFlPic=

>  <s_epik_input>  (1) 
W0NIM11bQ0gyXVtDQEhdKFtDSDNdKVtDQEBIXShbQ0hdPVtDSDJdKVtDSDJdW0NIMl1bQ0gyXU4oW09IXSlbQ0gyXVtDSDJdW0NASF0oW0NIM10pW0NASF0oW0NIMl1bQ0gzXSlbQ0gyXVtDQEhdKFtDSDNdKUMoPU8pW0NIM10=

>  <s_glide_docking_method>  (1) 
confgen

>  <s_i_glide_gridfile>  (1) 
gpcr_5ht2c_6bqh_protein_autoprepared_prepared

>  <s_lp_Force_Field>  (1) 
S-OPLS

>  <s_lp_Variant>  (1) 
DiffSBDD_30_num_sample_50-3

>  <s_m_source_file>  (1) 
generated__ligand_DiffSBDD_2026-05-06_prepared.sdf

>  <GenAI_Model>  (1) 
DiffSBDD

>  <Protein>  (1) 
GPCR_5HT2C

$$$$
DiffSBDD_30_num_sample_50
     RDKit          3D

  0  0  0  0  0  0  0  0  0  0999 V3000
M  V30 BEGIN CTAB
M  V30 COUNTS 68 67 0 0 1
M  V30 BEGIN ATOM
M  V30 1 C 38.012949 29.326120 53.604588 0
M  V30 2 C 37.852478 32.615536 59.678649 0 CFG=2
M  V30 3 C 36.334996 32.825362 59.863711 0
M  V30 4 O 37.905039 36.812326 62.886875 0
M  V30 5 C 40.152530 37.621426 62.712029 0
M  V30 6 C 38.408034 32.012293 62.087137 0
M  V30 7 C 38.859050 27.457406 51.447924 0
M  V30 8 C 37.400117 26.254254 54.580597 0
M  V30 9 C 38.104498 32.614500 57.030340 0
M  V30 10 C 38.686300 32.997543 60.924749 0 CFG=2
M  V30 11 C 38.971389 28.140907 53.901174 0 CFG=1
M  V30 12 C 38.486651 34.488488 61.304203 0
M  V30 13 C 38.520353 27.189255 55.044426 0 CFG=2
M  V30 14 C 38.829462 30.642719 55.689811 0
M  V30 15 C 39.610924 31.723994 63.000860 0
M  V30 16 C 38.389458 33.291620 58.388863 0
M  V30 17 C 39.081791 36.547533 62.645067 0
M  V30 18 C 39.524099 35.118007 62.262609 0 CFG=2
M  V30 19 C 37.622121 30.208063 54.813112 0
M  V30 20 C 39.704401 26.400328 55.649147 0
M  V30 21 O 37.467416 30.421547 57.584572 0
M  V30 22 C 39.371224 25.700187 56.973737 0
M  V30 23 N 38.533670 31.215673 56.999907 0
M  V30 24 C 40.963647 35.047901 61.694218 0
M  V30 25 C 39.424135 27.359590 52.664379 0
M  V30 26 H 37.098954 28.961180 53.135667 0
M  V30 27 H 38.507408 29.966423 52.875689 0
M  V30 28 H 38.025907 31.550275 59.586097 0
M  V30 29 H 36.069424 33.882527 59.882220 0
M  V30 30 H 35.776100 32.363449 59.053499 0
M  V30 31 H 35.974102 32.374359 60.787926 0
M  V30 32 H 41.105495 37.224455 63.053455 0
M  V30 33 H 40.267388 38.064389 61.724217 0
M  V30 34 H 39.867325 38.407269 63.408974 0
M  V30 35 H 37.548155 32.361536 62.653543 0
M  V30 36 H 38.106056 31.044671 61.685422 0
M  V30 37 H 39.229567 26.873955 50.617222 0
M  V30 38 H 38.023617 28.115727 51.266646 0
M  V30 39 H 37.769729 25.465772 53.927237 0
M  V30 40 H 36.888232 25.785195 55.420844 0
M  V30 41 H 36.667404 26.822728 54.015857 0
M  V30 42 H 38.682533 33.154804 56.280826 0
M  V30 43 H 37.067413 32.765804 56.744798 0
M  V30 44 H 39.718241 32.834048 60.622533 0
M  V30 45 H 39.867402 28.631087 54.253622 0
M  V30 46 H 38.484370 35.094307 60.397852 0
M  V30 47 H 37.484497 34.597531 61.721298 0
M  V30 48 H 38.117099 27.797491 55.853874 0
M  V30 49 H 39.484898 31.314787 55.133862 0
M  V30 50 H 39.434064 29.772877 55.933475 0
M  V30 51 H 39.394919 30.890194 63.670632 0
M  V30 52 H 40.487888 31.444001 62.417957 0
M  V30 53 H 39.879656 32.573959 63.623488 0
M  V30 54 H 39.467442 33.419322 58.467771 0
M  V30 55 H 37.966756 34.294714 58.335378 0
M  V30 56 H 39.503518 34.565701 63.197096 0
M  V30 57 H 36.886759 29.640051 55.379559 0
M  V30 58 H 37.094244 31.097336 54.468071 0
M  V30 59 H 40.070996 25.661985 54.934784 0
M  V30 60 H 40.535178 27.081731 55.835710 0
M  V30 61 H 36.692910 30.792726 57.157586 0
M  V30 62 H 40.246600 25.178845 57.362132 0
M  V30 63 H 39.051944 26.418991 57.730472 0
M  V30 64 H 38.578845 24.962406 56.852792 0
M  V30 65 H 41.705452 35.378839 62.419136 0
M  V30 66 H 41.262435 34.030522 61.453939 0
M  V30 67 H 41.071391 35.649722 60.790153 0
M  V30 68 H 40.257758 26.687973 52.804401 0
M  V30 END ATOM
M  V30 BEGIN BOND
M  V30 1 1 3 2
M  V30 2 1 10 2
M  V30 3 1 10 6
M  V30 4 1 11 1
M  V30 5 1 12 10
M  V30 6 1 13 8
M  V30 7 1 13 11
M  V30 8 1 15 6
M  V30 9 1 16 2
M  V30 10 1 16 9
M  V30 11 2 17 4
M  V30 12 1 17 5
M  V30 13 1 18 12
M  V30 14 1 18 17
M  V30 15 1 19 1
M  V30 16 1 19 14
M  V30 17 1 20 13
M  V30 18 1 22 20
M  V30 19 1 23 9
M  V30 20 1 23 14
M  V30 21 1 23 21
M  V30 22 1 24 18
M  V30 23 2 25 7
M  V30 24 1 25 11
M  V30 25 1 26 1
M  V30 26 1 27 1
M  V30 27 1 2 28 CFG=3
M  V30 28 1 29 3
M  V30 29 1 30 3
M  V30 30 1 31 3
M  V30 31 1 32 5
M  V30 32 1 33 5
M  V30 33 1 34 5
M  V30 34 1 35 6
M  V30 35 1 36 6
M  V30 36 1 37 7
M  V30 37 1 38 7
M  V30 38 1 39 8
M  V30 39 1 40 8
M  V30 40 1 41 8
M  V30 41 1 42 9
M  V30 42 1 43 9
M  V30 43 1 10 44 CFG=3
M  V30 44 1 11 45 CFG=1
M  V30 45 1 46 12
M  V30 46 1 47 12
M  V30 47 1 13 48 CFG=1
M  V30 48 1 49 14
M  V30 49 1 50 14
M  V30 50 1 51 15
M  V30 51 1 52 15
M  V30 52 1 53 15
M  V30 53 1 54 16
M  V30 54 1 55 16
M  V30 55 1 18 56 CFG=1
M  V30 56 1 57 19
M  V30 57 1 58 19
M  V30 58 1 59 20
M  V30 59 1 60 20
M  V30 60 1 61 21
M  V30 61 1 62 22
M  V30 62 1 63 22
M  V30 63 1 64 22
M  V30 64 1 65 24
M  V30 65 1 66 24
M  V30 66 1 67 24
M  V30 67 1 68 25
M  V30 END BOND
M  V30 END CTAB
M  END
>  <i_epik_Tot_Q>  (1) 
0

>  <i_epik_Tot_abs_Q>  (1) 
0

>  <i_i_glide_confnum>  (1) 
5084

>  <i_i_glide_lignum>  (1) 
78

>  <i_i_glide_posenum>  (1) 
233

>  <i_i_glide_rotatable_bonds>  (1) 
16

>  <i_lp_mmshare_version>  (1) 
72125

>  <i_m_source_file_index>  (1) 
31

>  <i_f3d_flags>  (1) 
0

>  <num_sample>  (1) 
50

>  <b_lp_Chiralities_Consistent>  (1) 
1

>  <r_epik_Charging_Adjusted_Penalty>  (1) 
0.34658394344942783

>  <r_epik_Ionization_Penalty>  (1) 
0.015417953954219563

>  <r_epik_Ionization_Penalty_Charging>  (1) 
0

>  <r_epik_Ionization_Penalty_Neutral>  (1) 
0.015417953954219563

>  <r_epik_State_Penalty>  (1) 
0.34658394344942783

>  <r_glide_ring_energy>  (1) 
0

>  <r_i_docking_score>  (1) 
-5.1342318223183421

>  <r_i_glide_ecoul>  (1) 
-4.7926522198096508

>  <r_i_glide_eff_state_penalty>  (1) 
0.34658394344942783

>  <r_i_glide_einternal>  (1) 
15.690392412180911

>  <r_i_glide_emodel>  (1) 
-38.509023990569808

>  <r_i_glide_emodel_strain>  (1) 
5.2898112793837768

>  <r_i_glide_energy>  (1) 
-38.893363739960819

>  <r_i_glide_erotb>  (1) 
1.833058027080513

>  <r_i_glide_esite>  (1) 
-0.17084303602137918

>  <r_i_glide_evdw>  (1) 
-34.100711520151165

>  <r_i_glide_gscore>  (1) 
-5.4808157657677699

>  <r_i_glide_gscore_strain>  (1) 
0.32245281984594421

>  <r_i_glide_hbond>  (1) 
-0.16

>  <r_i_glide_ligand_efficiency>  (1) 
-0.20536927289273368

>  <r_i_glide_ligand_efficiency_ln>  (1) 
-1.2169668024013807

>  <r_i_glide_ligand_efficiency_sa>  (1) 
-0.60050339682223208

>  <r_i_glide_lipo>  (1) 
-3.1465975449964434

>  <r_i_glide_metal>  (1) 
-0

>  <r_i_glide_rewards>  (1) 
-1.7349526226973979

>  <r_lp_Energy>  (1) 
19.892499999999998

>  <r_lp_tautomer_probability>  (1) 
0.9999999700000004

>  <s_epik_Chemistry_Notes>  (1) 
This compound has a N-S or N-O group and may undergo hydrolysis at high or low pH.

>  <s_epik_cmdline>  (1) 
J2VwaWtfcHl0aG9uJywgJy1waHQnLCAnMS4wJywgJy1waCcsICc3LjQnLCAnLXRuJywgJzgnLCAnLW1hJywgJzUwMCcsICctaW1hZScsICc8aW5maWxlLm1hZT4nLCAnLW9tYWUnLCAnPG91dGZpbGUubWFlPic=

>  <s_epik_input>  (1) 
W0NIM11bQ0gyXVtDQEhdKFtDSDNdKVtDQEBIXShbQ0hdPVtDSDJdKVtDSDJdW0NIMl1bQ0gyXU4oW09IXSlbQ0gyXVtDSDJdW0NASF0oW0NIM10pW0NASF0oW0NIMl1bQ0gzXSlbQ0gyXVtDQEhdKFtDSDNdKUMoPU8pW0NIM10=

>  <s_glide_docking_method>  (1) 
confgen

>  <s_i_glide_gridfile>  (1) 
gpcr_5ht2c_6bqh_protein_autoprepared_prepared

>  <s_lp_Force_Field>  (1) 
S-OPLS

>  <s_lp_Variant>  (1) 
DiffSBDD_30_num_sample_50-2

>  <s_m_source_file>  (1) 
generated__ligand_DiffSBDD_2026-05-06_prepared.sdf

>  <GenAI_Model>  (1) 
DiffSBDD

>  <Protein>  (1) 
GPCR_5HT2C

$$$$
DiffSBDD_17_num_sample_50
     RDKit          3D

  0  0  0  0  0  0  0  0  0  0999 V3000
M  V30 BEGIN CTAB
M  V30 COUNTS 67 69 0 0 1
M  V30 BEGIN ATOM
M  V30 1 C 38.072883 25.879285 57.417151 0
M  V30 2 S 37.467399 37.024781 59.611441 0
M  V30 3 C 39.867402 30.377352 52.323400 0
M  V30 4 O 40.224435 29.016986 59.629793 0
M  V30 5 C 39.141568 29.520905 59.917090 0
M  V30 6 C 38.217045 28.492521 53.612682 0
M  V30 7 N 38.056531 29.351001 59.066657 0
M  V30 8 C 36.369290 31.376615 59.787961 0 CFG=2
M  V30 9 O 34.995359 31.618324 59.453520 0
M  V30 10 C 36.797877 33.672215 61.462776 0
M  V30 11 C 36.483184 35.092407 61.871164 0
M  V30 12 C 38.616476 26.999657 58.317285 0
M  V30 13 C 37.311791 32.483563 59.254859 0
M  V30 14 O 36.988146 40.421438 61.453500 0 CHG=-1
M  V30 15 C 39.462719 30.592184 53.656170 0
M  V30 16 C 38.159989 28.426734 57.900744 0 CFG=2
M  V30 17 C 38.987795 28.980377 56.719115 0
M  V30 18 C 39.450446 29.219689 51.636630 0
M  V30 19 C 34.392683 32.908623 59.453487 0
M  V30 20 N 37.305747 33.732854 60.066572 0 CFG=2 CHG=1
M  V30 21 C 37.795418 35.886555 61.970901 0 CFG=1
M  V30 22 C 38.600626 34.439107 60.053765 0
M  V30 23 C 37.112316 38.094168 61.042022 0 CFG=2
M  V30 24 C 37.719225 39.499400 61.053492 0
M  V30 25 C 38.199833 29.875779 55.743374 0
M  V30 26 C 38.470857 35.879796 60.606228 0 CFG=1
M  V30 27 C 36.684290 29.937746 59.281373 0
M  V30 28 O 38.904633 39.621423 60.676438 0
M  V30 29 C 37.564710 37.347773 62.314239 0
M  V30 30 S 39.067384 30.424445 61.453458 0 CHG=-1
M  V30 31 C 38.636959 29.649980 54.303142 0
M  V30 32 C 38.623692 28.278599 52.280915 0
M  V30 33 H 38.458422 24.910656 57.736763 0
M  V30 34 H 38.352383 26.020700 56.373024 0
M  V30 35 H 36.985307 25.835742 57.470606 0
M  V30 36 H 40.498204 31.101020 51.827824 0
M  V30 37 H 37.584580 27.768353 54.106572 0
M  V30 38 H 36.400418 31.284990 60.867483 0
M  V30 39 H 37.530062 33.211285 62.127152 0
M  V30 40 H 35.874225 33.126849 61.599735 0
M  V30 41 H 35.867446 35.482672 61.072509 0
M  V30 42 H 35.867450 35.141786 62.772917 0
M  V30 43 H 38.293085 26.794902 59.335275 0
M  V30 44 H 39.705400 26.939437 58.334347 0
M  V30 45 H 38.334140 32.120402 59.193135 0
M  V30 46 H 37.067420 32.727502 58.221402 0
M  V30 47 H 39.784489 31.479719 54.180309 0
M  V30 48 H 37.151643 28.253416 57.529197 0
M  V30 49 H 39.895194 29.481356 57.055003 0
M  V30 50 H 39.348754 28.122104 56.153099 0
M  V30 51 H 39.761585 29.055537 50.614600 0
M  V30 52 H 33.467408 32.834068 58.892809 0
M  V30 53 H 34.972241 33.671741 58.938278 0
M  V30 54 H 34.120946 33.250983 60.449337 0
M  V30 55 H 38.461536 35.436710 62.705226 0
M  V30 56 H 39.314976 33.879407 60.660573 0
M  V30 57 H 38.996823 34.418487 59.053508 0
M  V30 58 H 36.025969 38.203852 61.059176 0
M  V30 59 H 37.131338 29.663931 55.791209 0
M  V30 60 H 38.306112 30.925475 56.023153 0
M  V30 61 H 39.465605 36.313094 60.704680 0
M  V30 62 H 36.206540 29.932887 58.301135 0
M  V30 63 H 36.101357 29.221455 59.853501 0
M  V30 64 H 36.848935 37.474623 63.127239 0
M  V30 65 H 38.526313 37.716854 62.673710 0
M  V30 66 H 38.301383 27.391816 51.754053 0
M  V30 67 H 36.660552 34.339355 59.578687 0
M  V30 END ATOM
M  V30 BEGIN BOND
M  V30 1 2 5 4
M  V30 2 1 7 5
M  V30 3 1 9 8
M  V30 4 1 11 10
M  V30 5 1 12 1
M  V30 6 1 13 8
M  V30 7 1 15 3
M  V30 8 1 16 7
M  V30 9 1 16 12
M  V30 10 1 17 16
M  V30 11 2 18 3
M  V30 12 1 19 9
M  V30 13 1 20 10
M  V30 14 1 20 13
M  V30 15 1 21 11
M  V30 16 1 22 20
M  V30 17 1 23 2
M  V30 18 1 24 14
M  V30 19 1 24 23
M  V30 20 1 25 17
M  V30 21 1 26 2
M  V30 22 1 26 21
M  V30 23 1 26 22
M  V30 24 1 27 7
M  V30 25 1 27 8
M  V30 26 2 28 24
M  V30 27 1 29 21
M  V30 28 1 29 23
M  V30 29 1 30 5
M  V30 30 1 31 6
M  V30 31 2 31 15
M  V30 32 1 31 25
M  V30 33 2 32 6
M  V30 34 1 32 18
M  V30 35 1 33 1
M  V30 36 1 34 1
M  V30 37 1 35 1
M  V30 38 1 36 3
M  V30 39 1 37 6
M  V30 40 1 8 38 CFG=1
M  V30 41 1 39 10
M  V30 42 1 40 10
M  V30 43 1 41 11
M  V30 44 1 42 11
M  V30 45 1 43 12
M  V30 46 1 44 12
M  V30 47 1 45 13
M  V30 48 1 46 13
M  V30 49 1 47 15
M  V30 50 1 16 48 CFG=3
M  V30 51 1 49 17
M  V30 52 1 50 17
M  V30 53 1 51 18
M  V30 54 1 52 19
M  V30 55 1 53 19
M  V30 56 1 54 19
M  V30 57 1 21 55 CFG=1
M  V30 58 1 56 22
M  V30 59 1 57 22
M  V30 60 1 23 58 CFG=1
M  V30 61 1 59 25
M  V30 62 1 60 25
M  V30 63 1 26 61 CFG=1
M  V30 64 1 62 27
M  V30 65 1 63 27
M  V30 66 1 64 29
M  V30 67 1 65 29
M  V30 68 1 66 32
M  V30 69 1 20 67 CFG=3
M  V30 END BOND
M  V30 END CTAB
M  END
>  <i_epik_Tot_Q>  (1) 
-1

>  <i_epik_Tot_abs_Q>  (1) 
3

>  <i_i_glide_confnum>  (1) 
311

>  <i_i_glide_lignum>  (1) 
49

>  <i_i_glide_posenum>  (1) 
80

>  <i_i_glide_rotatable_bonds>  (1) 
12

>  <i_lp_mmshare_version>  (1) 
72125

>  <i_m_source_file_index>  (1) 
18

>  <i_f3d_flags>  (1) 
0

>  <num_sample>  (1) 
50

>  <b_lp_Chiralities_Consistent>  (1) 
1

>  <r_epik_Charging_Adjusted_Penalty>  (1) 
0.068943464179595071

>  <r_epik_Ionization_Penalty>  (1) 
0.034590213650767733

>  <r_epik_Ionization_Penalty_Charging>  (1) 
0.034589667735814351

>  <r_epik_Ionization_Penalty_Neutral>  (1) 
5.4591495337813188e-07

>  <r_epik_State_Penalty>  (1) 
0.034353796443780713

>  <r_glide_ring_energy>  (1) 
0

>  <r_i_docking_score>  (1) 
-5.1237673052970223

>  <r_i_glide_ecoul>  (1) 
-2.0080159278792049

>  <r_i_glide_eff_state_penalty>  (1) 
0.034353796443780713

>  <r_i_glide_einternal>  (1) 
12.316845562361102

>  <r_i_glide_emodel>  (1) 
-37.109635228755053

>  <r_i_glide_emodel_strain>  (1) 
9.8528074241181116

>  <r_i_glide_energy>  (1) 
-35.789427332001033

>  <r_i_glide_erotb>  (1) 
0.61675831554288163

>  <r_i_glide_esite>  (1) 
-0.0010940236842497293

>  <r_i_glide_evdw>  (1) 
-33.781411404121826

>  <r_i_glide_gscore>  (1) 
-5.1581211017408028

>  <r_i_glide_gscore_strain>  (1) 
1.4632018560295279

>  <r_i_glide_hbond>  (1) 
-0.047167495063181741

>  <r_i_glide_ligand_efficiency>  (1) 
-0.16011772829053195

>  <r_i_glide_ligand_efficiency_ln>  (1) 
-1.1473511682777193

>  <r_i_glide_ligand_efficiency_sa>  (1) 
-0.50834210065429752

>  <r_i_glide_lipo>  (1) 
-3.6978328243822314

>  <r_i_glide_metal>  (1) 
-0

>  <r_i_glide_rewards>  (1) 
-1.5017139707955776

>  <r_lp_Energy>  (1) 
36.015979000000002

>  <s_epik_cmdline>  (1) 
J2VwaWtfcHl0aG9uJywgJy1waHQnLCAnMS4wJywgJy1waCcsICc3LjQnLCAnLXRuJywgJzgnLCAnLW1hJywgJzUwMCcsICctaW1hZScsICc8aW5maWxlLm1hZT4nLCAnLW9tYWUnLCAnPG91dGZpbGUubWFlPic=

>  <s_epik_input>  (1) 
W2NIXTFbY0hdW2NIXVtjSF1bY0hdYzFbQ0gyXVtDSDJdW0NAQEhdKFtDSDJdW0NIM10pTihDKD1PKVtTSF0pW0NIMl1bQ0hdKE9bQ0gzXSlbQ0gyXU4oW0NIMl1bQ0gyXTIpW0NIMl1bQ0BIXShbQ0BIXTIzKVNbQ0BASF0oW0NIMl0zKUMoPU8pW09IXQ==

>  <s_glide_docking_method>  (1) 
confgen

>  <s_i_glide_gridfile>  (1) 
gpcr_5ht2c_6bqh_protein_autoprepared_prepared

>  <s_lp_Force_Field>  (1) 
S-OPLS

>  <s_lp_Variant>  (1) 
DiffSBDD_17_num_sample_50-2

>  <s_m_source_file>  (1) 
generated__ligand_DiffSBDD_2026-05-06_prepared.sdf

>  <GenAI_Model>  (1) 
DiffSBDD

>  <Protein>  (1) 
GPCR_5HT2C

$$$$
DiffSBDD_11_num_sample_50
     RDKit          3D

  0  0  0  0  0  0  0  0  0  0999 V3000
M  V30 BEGIN CTAB
M  V30 COUNTS 37 39 0 0 1
M  V30 BEGIN ATOM
M  V30 1 C 38.161705 33.119379 57.679458 0
M  V30 2 C 39.432559 27.354404 56.843036 0 CFG=2
M  V30 3 C 37.701042 26.420230 55.261425 0 CFG=2
M  V30 4 O 40.490696 26.745807 57.563538 0
M  V30 5 C 39.148869 26.544231 55.576308 0 CFG=1
M  V30 6 C 38.646801 31.230174 56.101776 0 CFG=1
M  V30 7 C 38.583372 29.684389 55.985221 0
M  V30 8 C 37.347600 33.493984 58.920972 0
M  V30 9 C 39.414773 28.879493 57.022779 0 CFG=1
M  V30 10 N 38.993589 29.202396 58.425755 0 CHG=1
M  V30 11 O 38.575396 27.165813 54.402598 0
M  V30 12 O 37.799897 29.120136 58.690912 0 CHG=-1
M  V30 13 O 39.866825 29.538611 59.215620 0
M  V30 14 C 38.137561 31.875671 54.798832 0
M  V30 15 C 38.184170 26.488195 56.705876 0 CFG=2
M  V30 16 C 37.989106 25.308257 57.644004 0
M  V30 17 O 37.467404 25.095300 54.840661 0
M  V30 18 N 37.867413 31.733536 57.260081 0 CHG=1
M  V30 19 H 39.226655 33.221417 57.890239 0
M  V30 20 H 37.920504 33.814799 56.875250 0
M  V30 21 H 41.162333 26.449561 56.963674 0
M  V30 22 H 39.691957 31.513795 56.238218 0
M  V30 23 H 37.543426 29.354202 55.986937 0
M  V30 24 H 38.979186 29.438229 55.001386 0
M  V30 25 H 37.563477 34.515742 59.234141 0
M  V30 26 H 37.571775 32.833698 59.759330 0
M  V30 27 H 36.276756 33.431813 58.720034 0
M  V30 28 H 40.447691 29.221540 56.959652 0
M  V30 29 H 38.702680 31.527324 53.933457 0
M  V30 30 H 38.226710 32.961062 54.814168 0
M  V30 31 H 37.086995 31.636188 54.627129 0
M  V30 32 H 36.944918 24.994497 57.644994 0
M  V30 33 H 38.267401 25.589302 58.657705 0
M  V30 34 H 38.608276 24.464546 57.336541 0
M  V30 35 H 37.067395 25.124560 53.984189 0
M  V30 36 H 38.029313 31.133696 58.055189 0
M  V30 37 H 36.858821 31.681867 57.053428 0
M  V30 END ATOM
M  V30 BEGIN BOND
M  V30 1 1 2 4 CFG=1
M  V30 2 1 5 2
M  V30 3 1 5 3
M  V30 4 1 7 6
M  V30 5 1 8 1
M  V30 6 1 9 2
M  V30 7 1 9 7
M  V30 8 1 10 9
M  V30 9 1 11 3
M  V30 10 1 5 11 CFG=1
M  V30 11 1 12 10
M  V30 12 2 13 10
M  V30 13 1 14 6
M  V30 14 1 15 2
M  V30 15 1 15 3
M  V30 16 1 15 5
M  V30 17 1 15 16 CFG=1
M  V30 18 1 3 17 CFG=1
M  V30 19 1 18 1
M  V30 20 1 18 6
M  V30 21 1 19 1
M  V30 22 1 20 1
M  V30 23 1 21 4
M  V30 24 1 6 22 CFG=1
M  V30 25 1 23 7
M  V30 26 1 24 7
M  V30 27 1 25 8
M  V30 28 1 26 8
M  V30 29 1 27 8
M  V30 30 1 9 28 CFG=1
M  V30 31 1 29 14
M  V30 32 1 30 14
M  V30 33 1 31 14
M  V30 34 1 32 16
M  V30 35 1 33 16
M  V30 36 1 34 16
M  V30 37 1 35 17
M  V30 38 1 36 18
M  V30 39 1 37 18
M  V30 END BOND
M  V30 END CTAB
M  END
>  <i_epik_Tot_Q>  (1) 
1

>  <i_epik_Tot_abs_Q>  (1) 
3

>  <i_i_glide_confnum>  (1) 
79

>  <i_i_glide_lignum>  (1) 
38

>  <i_i_glide_posenum>  (1) 
328

>  <i_i_glide_rotatable_bonds>  (1) 
8

>  <i_lp_mmshare_version>  (1) 
72125

>  <i_m_source_file_index>  (1) 
12

>  <i_f3d_flags>  (1) 
2

>  <num_sample>  (1) 
50

>  <b_lp_Chiralities_Consistent>  (1) 
0

>  <r_epik_Charging_Adjusted_Penalty>  (1) 
0.0033658080042713689

>  <r_epik_Ionization_Penalty>  (1) 
0.035780381166706003

>  <r_epik_Ionization_Penalty_Charging>  (1) 
0.0033658080042713689

>  <r_epik_Ionization_Penalty_Neutral>  (1) 
0.032414573162434637

>  <r_epik_State_Penalty>  (1) 
-0

>  <r_glide_ring_energy>  (1) 
0

>  <r_i_docking_score>  (1) 
-5.1119507833992239

>  <r_i_glide_ecoul>  (1) 
-7.479191413132078

>  <r_i_glide_eff_state_penalty>  (1) 
-0

>  <r_i_glide_einternal>  (1) 
4.0095853040485032

>  <r_i_glide_emodel>  (1) 
-41.996909654761481

>  <r_i_glide_emodel_strain>  (1) 
0.23650803995798952

>  <r_i_glide_energy>  (1) 
-31.264449865521982

>  <r_i_glide_erotb>  (1) 
1.0519887520240689

>  <r_i_glide_esite>  (1) 
-0.10000000000000001

>  <r_i_glide_evdw>  (1) 
-23.785258452389904

>  <r_i_glide_gscore>  (1) 
-5.1119507833992239

>  <r_i_glide_gscore_strain>  (1) 
0

>  <r_i_glide_hbond>  (1) 
-0.25647652756275874

>  <r_i_glide_ligand_efficiency>  (1) 
-0.28399726574440132

>  <r_i_glide_ligand_efficiency_ln>  (1) 
-1.3140005895384315

>  <r_i_glide_ligand_efficiency_sa>  (1) 
-0.74428339017849687

>  <r_i_glide_lipo>  (1) 
-1.1840135596417414

>  <r_i_glide_metal>  (1) 
-0

>  <r_i_glide_rewards>  (1) 
-2.312307813629487

>  <r_lp_Energy>  (1) 
94.058552999999989

>  <r_lp_tautomer_probability>  (1) 
1

>  <s_epik_cmdline>  (1) 
J2VwaWtfcHl0aG9uJywgJy1waHQnLCAnMS4wJywgJy1waCcsICc3LjQnLCAnLXRuJywgJzgnLCAnLW1hJywgJzUwMCcsICctaW1hZScsICc8aW5maWxlLm1hZT4nLCAnLW9tYWUnLCAnPG91dGZpbGUubWFlPic=

>  <s_epik_input>  (1) 
W0NIM11bQ0gyXVtOSF1bQ0BIXShbQ0gzXSlbQ0gyXVtDQEBIXShbTitdKFtPLV0pPU8pW0NAXTEoW09IXSlDMihbQ0gzXSlDKFtDQEBdMTIzKShPMylbT0hd

>  <s_glide_docking_method>  (1) 
confgen

>  <s_i_glide_gridfile>  (1) 
gpcr_5ht2c_6bqh_protein_autoprepared_prepared

>  <s_lp_Force_Field>  (1) 
S-OPLS

>  <s_lp_Variant>  (1) 
DiffSBDD_11_num_sample_50-1

>  <s_m_source_file>  (1) 
generated__ligand_DiffSBDD_2026-05-06_prepared.sdf

>  <GenAI_Model>  (1) 
DiffSBDD

>  <Protein>  (1) 
GPCR_5HT2C

$$$$
DiffSBDD_30_num_sample_50
     RDKit          3D

  0  0  0  0  0  0  0  0  0  0999 V3000
M  V30 BEGIN CTAB
M  V30 COUNTS 68 67 0 0 1
M  V30 BEGIN ATOM
M  V30 1 C 39.230430 27.155485 53.996516 0
M  V30 2 C 37.909119 31.194092 59.320442 0 CFG=2
M  V30 3 C 38.095469 32.278904 58.237532 0
M  V30 4 O 41.067387 30.387596 61.964397 0
M  V30 5 C 40.141875 30.490817 64.181358 0
M  V30 6 C 36.809974 32.661237 61.173844 0
M  V30 7 C 37.467398 30.172594 54.253504 0
M  V30 8 C 38.946370 27.441385 50.972140 0
M  V30 9 C 38.838489 29.337388 57.746576 0
M  V30 10 C 38.006016 31.766539 60.766424 0 CFG=2
M  V30 11 C 39.149652 28.539476 53.301355 0 CFG=1
M  V30 12 C 39.334851 32.533880 61.018321 0
M  V30 13 C 39.658851 28.500250 51.827675 0 CFG=2
M  V30 14 C 40.123178 27.776981 56.337842 0
M  V30 15 C 35.423230 32.022275 61.021809 0
M  V30 16 C 38.843016 29.968043 59.150549 0
M  V30 17 C 40.424692 31.037677 62.788885 0
M  V30 18 C 39.882042 32.436827 62.460806 0 CFG=1
M  V30 19 C 38.958888 27.180101 55.514094 0
M  V30 20 C 39.629540 29.884092 51.143193 0
M  V30 21 O 39.135844 27.089019 58.357685 0
M  V30 22 C 40.726716 30.093263 50.092197 0
M  V30 23 N 39.767057 28.210120 57.688505 0
M  V30 24 C 40.981004 33.483055 62.710627 0
M  V30 25 C 37.756200 29.131638 53.453490 0
M  V30 26 H 40.202860 26.696514 53.814271 0
M  V30 27 H 38.499275 26.488043 53.538200 0
M  V30 28 H 36.904453 30.798293 59.178603 0
M  V30 29 H 39.109064 32.675052 58.214451 0
M  V30 30 H 37.867410 31.895100 57.243116 0
M  V30 31 H 37.416307 33.116276 58.396294 0
M  V30 32 H 40.572066 31.143199 64.940394 0
M  V30 33 H 39.067508 30.421432 64.348304 0
M  V30 34 H 40.570536 29.494805 64.294055 0
M  V30 35 H 36.936314 32.945208 62.218391 0
M  V30 36 H 36.826399 33.596391 60.613132 0
M  V30 37 H 36.459494 30.555368 54.329303 0
M  V30 38 H 38.234762 30.653466 54.841977 0
M  V30 39 H 37.867398 27.533675 51.053508 0
M  V30 40 H 39.198783 27.541045 49.918997 0
M  V30 41 H 39.219829 26.430577 51.273326 0
M  V30 42 H 39.174894 30.081536 57.024885 0
M  V30 43 H 37.827926 29.045739 57.457729 0
M  V30 44 H 37.976332 30.903022 61.431576 0
M  V30 45 H 39.819458 29.221207 53.828041 0
M  V30 46 H 40.113039 32.201583 60.335926 0
M  V30 47 H 39.190523 33.582765 60.755741 0
M  V30 48 H 40.705325 28.202128 51.853498 0
M  V30 49 H 40.551955 28.638884 55.828289 0
M  V30 50 H 40.927921 27.043212 56.407548 0
M  V30 51 H 34.667426 32.634857 61.514630 0
M  V30 52 H 35.133428 31.944335 59.973418 0
M  V30 53 H 35.382875 31.023812 61.453506 0
M  V30 54 H 38.546406 29.210497 59.877305 0
M  V30 55 H 39.867399 30.223568 59.411486 0
M  V30 56 H 39.067402 32.646607 63.151778 0
M  V30 57 H 38.787803 26.156079 55.847945 0
M  V30 58 H 38.024127 27.705730 55.701744 0
M  V30 59 H 38.667417 30.021420 50.653506 0
M  V30 60 H 39.728591 30.673320 51.889744 0
M  V30 61 H 38.374385 26.942200 57.817601 0
M  V30 62 H 40.643883 31.085787 49.648286 0
M  V30 63 H 41.719251 30.021428 50.537383 0
M  V30 64 H 40.655517 29.365006 49.284774 0
M  V30 65 H 41.369172 33.418913 63.728158 0
M  V30 66 H 41.819712 33.352310 62.025292 0
M  V30 67 H 40.596745 34.494191 62.575098 0
M  V30 68 H 36.968793 28.669538 52.876246 0
M  V30 END ATOM
M  V30 BEGIN BOND
M  V30 1 1 3 2
M  V30 2 1 10 2
M  V30 3 1 10 6
M  V30 4 1 11 1
M  V30 5 1 12 10
M  V30 6 1 13 8
M  V30 7 1 13 11
M  V30 8 1 15 6
M  V30 9 1 16 2
M  V30 10 1 16 9
M  V30 11 2 17 4
M  V30 12 1 17 5
M  V30 13 1 18 12
M  V30 14 1 18 17
M  V30 15 1 19 1
M  V30 16 1 19 14
M  V30 17 1 20 13
M  V30 18 1 22 20
M  V30 19 1 23 9
M  V30 20 1 23 14
M  V30 21 1 23 21
M  V30 22 1 24 18
M  V30 23 2 25 7
M  V30 24 1 25 11
M  V30 25 1 26 1
M  V30 26 1 27 1
M  V30 27 1 2 28 CFG=3
M  V30 28 1 29 3
M  V30 29 1 30 3
M  V30 30 1 31 3
M  V30 31 1 32 5
M  V30 32 1 33 5
M  V30 33 1 34 5
M  V30 34 1 35 6
M  V30 35 1 36 6
M  V30 36 1 37 7
M  V30 37 1 38 7
M  V30 38 1 39 8
M  V30 39 1 40 8
M  V30 40 1 41 8
M  V30 41 1 42 9
M  V30 42 1 43 9
M  V30 43 1 10 44 CFG=1
M  V30 44 1 11 45 CFG=1
M  V30 45 1 46 12
M  V30 46 1 47 12
M  V30 47 1 13 48 CFG=1
M  V30 48 1 49 14
M  V30 49 1 50 14
M  V30 50 1 51 15
M  V30 51 1 52 15
M  V30 52 1 53 15
M  V30 53 1 54 16
M  V30 54 1 55 16
M  V30 55 1 18 56 CFG=1
M  V30 56 1 57 19
M  V30 57 1 58 19
M  V30 58 1 59 20
M  V30 59 1 60 20
M  V30 60 1 61 21
M  V30 61 1 62 22
M  V30 62 1 63 22
M  V30 63 1 64 22
M  V30 64 1 65 24
M  V30 65 1 66 24
M  V30 66 1 67 24
M  V30 67 1 68 25
M  V30 END BOND
M  V30 END CTAB
M  END
>  <i_epik_Tot_Q>  (1) 
0

>  <i_epik_Tot_abs_Q>  (1) 
0

>  <i_i_glide_confnum>  (1) 
4568

>  <i_i_glide_lignum>  (1) 
77

>  <i_i_glide_posenum>  (1) 
379

>  <i_i_glide_rotatable_bonds>  (1) 
16

>  <i_lp_mmshare_version>  (1) 
72125

>  <i_m_source_file_index>  (1) 
31

>  <i_f3d_flags>  (1) 
0

>  <num_sample>  (1) 
50

>  <b_lp_Chiralities_Consistent>  (1) 
1

>  <r_epik_Charging_Adjusted_Penalty>  (1) 
0.34658394344942783

>  <r_epik_Ionization_Penalty>  (1) 
0.015417953954219563

>  <r_epik_Ionization_Penalty_Charging>  (1) 
0

>  <r_epik_Ionization_Penalty_Neutral>  (1) 
0.015417953954219563

>  <r_epik_State_Penalty>  (1) 
0.34658394344942783

>  <r_glide_ring_energy>  (1) 
0

>  <r_i_docking_score>  (1) 
-5.1056838601551213

>  <r_i_glide_ecoul>  (1) 
-2.8582936903034541

>  <r_i_glide_eff_state_penalty>  (1) 
0.34658394344942783

>  <r_i_glide_einternal>  (1) 
7.1617071861782424

>  <r_i_glide_emodel>  (1) 
-48.546145223165972

>  <r_i_glide_emodel_strain>  (1) 
0.39884914915672987

>  <r_i_glide_energy>  (1) 
-39.879637191436451

>  <r_i_glide_erotb>  (1) 
1.833058027080513

>  <r_i_glide_esite>  (1) 
0

>  <r_i_glide_evdw>  (1) 
-37.021343501132996

>  <r_i_glide_gscore>  (1) 
-5.4522678036045491

>  <r_i_glide_gscore_strain>  (1) 
0

>  <r_i_glide_hbond>  (1) 
-0.32000000000000001

>  <r_i_glide_ligand_efficiency>  (1) 
-0.20422735440620485

>  <r_i_glide_ligand_efficiency_ln>  (1) 
-1.210200079855307

>  <r_i_glide_ligand_efficiency_sa>  (1) 
-0.59716440691202854

>  <r_i_glide_lipo>  (1) 
-3.1607866206591932

>  <r_i_glide_metal>  (1) 
-0

>  <r_i_glide_rewards>  (1) 
-1.5247279814237009

>  <r_lp_Energy>  (1) 
13.945687

>  <r_lp_tautomer_probability>  (1) 
0.9999999700000004

>  <s_epik_Chemistry_Notes>  (1) 
This compound has a N-S or N-O group and may undergo hydrolysis at high or low pH.

>  <s_epik_cmdline>  (1) 
J2VwaWtfcHl0aG9uJywgJy1waHQnLCAnMS4wJywgJy1waCcsICc3LjQnLCAnLXRuJywgJzgnLCAnLW1hJywgJzUwMCcsICctaW1hZScsICc8aW5maWxlLm1hZT4nLCAnLW9tYWUnLCAnPG91dGZpbGUubWFlPic=

>  <s_epik_input>  (1) 
W0NIM11bQ0gyXVtDQEhdKFtDSDNdKVtDQEBIXShbQ0hdPVtDSDJdKVtDSDJdW0NIMl1bQ0gyXU4oW09IXSlbQ0gyXVtDSDJdW0NASF0oW0NIM10pW0NASF0oW0NIMl1bQ0gzXSlbQ0gyXVtDQEhdKFtDSDNdKUMoPU8pW0NIM10=

>  <s_glide_docking_method>  (1) 
confgen

>  <s_i_glide_gridfile>  (1) 
gpcr_5ht2c_6bqh_protein_autoprepared_prepared

>  <s_lp_Force_Field>  (1) 
S-OPLS

>  <s_lp_Variant>  (1) 
DiffSBDD_30_num_sample_50-1

>  <s_m_source_file>  (1) 
generated__ligand_DiffSBDD_2026-05-06_prepared.sdf

>  <GenAI_Model>  (1) 
DiffSBDD

>  <Protein>  (1) 
GPCR_5HT2C

$$$$
DiffSBDD_5_num_sample_50
     RDKit          3D

  0  0  0  0  0  0  0  0  0  0999 V3000
M  V30 BEGIN CTAB
M  V30 COUNTS 79 81 0 0 1
M  V30 BEGIN ATOM
M  V30 1 C 37.367015 32.285287 59.777207 0
M  V30 2 C 38.382570 31.947372 57.544405 0 CFG=2
M  V30 3 N 40.308337 36.817036 61.853329 0
M  V30 4 F 38.089524 24.068338 55.490136 0
M  V30 5 C 36.774781 35.252819 61.025646 0
M  V30 6 N 37.640170 32.995626 60.821130 0 CHG=1
M  V30 7 C 36.672486 37.636014 61.853793 0 CFG=1
M  V30 8 C 38.806056 26.002010 56.554575 0 CFG=2
M  V30 9 C 39.266040 31.600889 55.251612 0
M  V30 10 C 36.490764 33.774893 61.316041 0 CFG=2
M  V30 11 N 36.115079 32.363534 59.447024 0
M  V30 12 C 37.882524 31.568038 54.577436 0
M  V30 13 C 39.064877 29.228597 58.253040 0 CFG=2
M  V30 14 C 40.288529 30.854144 54.369402 0
M  V30 15 N 37.469380 27.500071 57.852904 0 CHG=1
M  V30 16 C 39.306348 37.808250 62.288807 0
M  V30 17 C 38.666789 33.452664 57.537684 0
M  V30 18 C 35.318404 33.213013 60.341368 0
M  V30 19 C 38.386932 31.481529 59.021090 0 CFG=2
M  V30 20 C 37.435441 26.200762 57.180540 0
M  V30 21 O 39.497390 35.085631 63.053261 0
M  V30 22 C 39.056361 24.533367 56.283954 0
M  V30 23 C 41.469099 34.675382 61.809510 0
M  V30 24 C 40.331859 35.547302 62.294517 0
M  V30 25 S 39.991941 26.726152 57.707029 0
M  V30 26 C 38.069004 29.998962 59.137891 0
M  V30 27 C 39.001631 29.723081 56.787188 0
M  V30 28 C 34.879265 38.322394 63.293647 0
M  V30 29 O 36.267333 38.385895 62.992773 0
M  V30 30 O 38.029462 39.372415 60.874775 0
M  V30 31 N 39.276477 31.158355 56.665275 0
M  V30 32 C 38.091636 38.029799 61.326563 0 CFG=2
M  V30 33 N 38.814049 27.793577 58.342291 0
M  V30 34 C 36.652310 36.157187 62.250316 0
M  V30 35 H 37.393680 31.792999 57.163242 0
M  V30 36 H 41.033925 37.130666 61.222680 0
M  V30 37 H 36.079094 35.614282 60.266577 0
M  V30 38 H 37.755139 35.370223 60.566132 0
M  V30 39 H 35.951572 37.820704 61.055155 0
M  V30 40 H 38.875048 26.570879 55.624964 0
M  V30 41 H 39.594246 32.636793 55.246835 0
M  V30 42 H 36.269660 33.579406 62.357361 0
M  V30 43 H 35.745084 32.021396 58.541028 0
M  V30 44 H 37.963997 32.005639 53.583366 0
M  V30 45 H 37.492243 30.559066 54.457814 0
M  V30 46 H 37.134750 32.159372 55.102662 0
M  V30 47 H 40.072600 29.402807 58.638062 0
M  V30 48 H 40.305198 31.271498 53.361946 0
M  V30 49 H 41.301395 30.937985 54.759167 0
M  V30 50 H 40.050379 29.799718 54.243829 0
M  V30 51 H 36.844792 27.508182 58.646557 0
M  V30 52 H 39.867572 38.741464 62.363725 0
M  V30 53 H 38.973281 37.613011 63.309082 0
M  V30 54 H 37.996353 33.996323 58.202873 0
M  V30 55 H 39.676706 33.620792 57.905238 0
M  V30 56 H 38.555492 33.913247 56.559012 0
M  V30 57 H 34.608250 32.606803 60.898713 0
M  V30 58 H 34.776502 33.974828 59.781310 0
M  V30 59 H 39.363626 31.668254 59.466975 0
M  V30 60 H 36.631495 26.134917 56.448312 0
M  V30 61 H 37.253513 25.436293 57.935317 0
M  V30 62 H 40.016566 24.421472 55.790533 0
M  V30 63 H 39.059598 23.937595 57.198514 0
M  V30 64 H 42.016101 35.179009 61.013045 0
M  V30 65 H 42.173952 34.456414 62.634213 0
M  V30 66 H 41.093647 33.725410 61.431100 0
M  V30 67 H 38.145934 29.681751 60.179353 0
M  V30 68 H 37.037266 29.838798 58.822912 0
M  V30 69 H 39.738882 29.156759 56.221795 0
M  V30 70 H 38.028090 29.511367 56.350751 0
M  V30 71 H 34.725750 38.820662 64.240822 0
M  V30 72 H 34.288680 38.819426 62.522602 0
M  V30 73 H 34.477488 37.322538 63.452805 0
M  V30 74 H 37.218118 39.492305 60.397349 0
M  V30 75 H 38.266895 37.467117 60.412912 0
M  V30 76 H 37.412187 36.021607 63.001274 0
M  V30 77 H 35.767418 35.857534 62.797820 0
M  V30 78 H 37.230241 28.242480 57.209026 0
M  V30 79 H 38.563751 33.080309 61.224656 0
M  V30 END ATOM
M  V30 BEGIN BOND
M  V30 1 2 6 1
M  V30 2 1 10 5
M  V30 3 1 10 6
M  V30 4 1 11 1
M  V30 5 1 12 9
M  V30 6 1 14 9
M  V30 7 1 16 3
M  V30 8 1 17 2
M  V30 9 1 18 10
M  V30 10 1 18 11
M  V30 11 1 19 1
M  V30 12 1 19 2
M  V30 13 1 20 8
M  V30 14 1 20 15
M  V30 15 1 22 4
M  V30 16 1 22 8
M  V30 17 1 24 3
M  V30 18 2 24 21
M  V30 19 1 24 23
M  V30 20 1 25 8
M  V30 21 1 26 13
M  V30 22 1 26 19
M  V30 23 1 27 13
M  V30 24 1 29 7
M  V30 25 1 29 28
M  V30 26 1 31 2
M  V30 27 1 31 9
M  V30 28 1 31 27
M  V30 29 1 32 7
M  V30 30 1 32 16
M  V30 31 1 32 30
M  V30 32 1 33 13
M  V30 33 1 33 15
M  V30 34 1 33 25
M  V30 35 1 34 5
M  V30 36 1 34 7
M  V30 37 1 2 35 CFG=3
M  V30 38 1 36 3
M  V30 39 1 37 5
M  V30 40 1 38 5
M  V30 41 1 7 39 CFG=3
M  V30 42 1 8 40 CFG=3
M  V30 43 1 41 9
M  V30 44 1 10 42 CFG=1
M  V30 45 1 43 11
M  V30 46 1 44 12
M  V30 47 1 45 12
M  V30 48 1 46 12
M  V30 49 1 13 47 CFG=1
M  V30 50 1 48 14
M  V30 51 1 49 14
M  V30 52 1 50 14
M  V30 53 1 51 15
M  V30 54 1 52 16
M  V30 55 1 53 16
M  V30 56 1 54 17
M  V30 57 1 55 17
M  V30 58 1 56 17
M  V30 59 1 57 18
M  V30 60 1 58 18
M  V30 61 1 19 59 CFG=1
M  V30 62 1 60 20
M  V30 63 1 61 20
M  V30 64 1 62 22
M  V30 65 1 63 22
M  V30 66 1 64 23
M  V30 67 1 65 23
M  V30 68 1 66 23
M  V30 69 1 67 26
M  V30 70 1 68 26
M  V30 71 1 69 27
M  V30 72 1 70 27
M  V30 73 1 71 28
M  V30 74 1 72 28
M  V30 75 1 73 28
M  V30 76 1 74 30
M  V30 77 1 32 75 CFG=3
M  V30 78 1 76 34
M  V30 79 1 77 34
M  V30 80 1 78 15
M  V30 81 1 79 6
M  V30 END BOND
M  V30 END CTAB
M  END
>  <i_epik_Tot_Q>  (1) 
2

>  <i_epik_Tot_abs_Q>  (1) 
2

>  <i_i_glide_confnum>  (1) 
1676

>  <i_i_glide_lignum>  (1) 
18

>  <i_i_glide_posenum>  (1) 
344

>  <i_i_glide_rotatable_bonds>  (1) 
13

>  <i_lp_mmshare_version>  (1) 
72125

>  <i_m_source_file_index>  (1) 
6

>  <i_f3d_flags>  (1) 
0

>  <num_sample>  (1) 
50

>  <b_lp_Chiralities_Consistent>  (1) 
1

>  <r_epik_Charging_Adjusted_Penalty>  (1) 
1.2202907703101018

>  <r_epik_Ionization_Penalty>  (1) 
1.220291206888735

>  <r_epik_Ionization_Penalty_Charging>  (1) 
0.00010224848283174563

>  <r_epik_Ionization_Penalty_Neutral>  (1) 
1.2201889584059034

>  <r_epik_State_Penalty>  (1) 
1.2201885218272701

>  <r_glide_ring_energy>  (1) 
0

>  <r_i_docking_score>  (1) 
-5.1044066435633599

>  <r_i_glide_ecoul>  (1) 
-8.4143513735575262

>  <r_i_glide_eff_state_penalty>  (1) 
1.2201885218272701

>  <r_i_glide_einternal>  (1) 
22.946802361734719

>  <r_i_glide_emodel>  (1) 
-49.240805286133863

>  <r_i_glide_emodel_strain>  (1) 
1.1042701367708361

>  <r_i_glide_energy>  (1) 
-40.416845117794708

>  <r_i_glide_erotb>  (1) 
0.64218136225351719

>  <r_i_glide_esite>  (1) 
-0.14551640492624365

>  <r_i_glide_evdw>  (1) 
-32.002493744237185

>  <r_i_glide_gscore>  (1) 
-6.3245951653906296

>  <r_i_glide_gscore_strain>  (1) 
0

>  <r_i_glide_hbond>  (1) 
-0.44943617509517686

>  <r_i_glide_ligand_efficiency>  (1) 
-0.15012960716362822

>  <r_i_glide_ligand_efficiency_ln>  (1) 
-1.1277066013198798

>  <r_i_glide_ligand_efficiency_sa>  (1) 
-0.48636164708844271

>  <r_i_glide_lipo>  (1) 
-2.609683702654531

>  <r_i_glide_metal>  (1) 
-0

>  <r_i_glide_rewards>  (1) 
-0.89986285172270675

>  <r_lp_Energy>  (1) 
23.621561999999997

>  <s_epik_Chemistry_Notes>  (1) 
This compound has an imine and may undergo hydrolysis. This compound has a N-S or N-O group and may undergo hydrolysis at high or low pH.

>  <s_epik_cmdline>  (1) 
J2VwaWtfcHl0aG9uJywgJy1waHQnLCAnMS4wJywgJy1waCcsICc3LjQnLCAnLXRuJywgJzgnLCAnLW1hJywgJzUwMCcsICctaW1hZScsICc8aW5maWxlLm1hZT4nLCAnLW9tYWUnLCAnPG91dGZpbGUubWFlPic=

>  <s_epik_input>  (1) 
RltDSDJdW0NASF0xW0NIMl1bTkhdTihTMSlbQ0BASF0oW0NIMl1OMltDSF0oW0NIM10pW0NIM10pW0NIMl1bQ0BASF0oW0NASF0yW0NIM10pQzM9TltDQEhdKFtDSDJdW05IXTMpW0NIMl1bQ0gyXVtDQEBIXShPW0NIM10pW0NAQEhdKFtPSF0pW0NIMl1bTkhdQyg9TylbQ0gzXQ==

>  <s_glide_docking_method>  (1) 
confgen

>  <s_i_glide_gridfile>  (1) 
gpcr_5ht2c_6bqh_protein_autoprepared_prepared

>  <s_lp_Force_Field>  (1) 
S-OPLS

>  <s_lp_Variant>  (1) 
DiffSBDD_5_num_sample_50-5

>  <s_m_source_file>  (1) 
generated__ligand_DiffSBDD_2026-05-06_prepared.sdf

>  <GenAI_Model>  (1) 
DiffSBDD

>  <Protein>  (1) 
GPCR_5HT2C

$$$$
DiffSBDD_35_num_sample_50
     RDKit          3D

  0  0  0  0  0  0  0  0  0  0999 V3000
M  V30 BEGIN CTAB
M  V30 COUNTS 44 43 0 0 1
M  V30 BEGIN ATOM
M  V30 1 C 37.841350 29.790909 58.834045 0
M  V30 2 C 38.468665 30.972391 56.614129 0
M  V30 3 C 40.015365 28.919007 50.815578 0
M  V30 4 C 38.219323 29.638111 57.348676 0
M  V30 5 C 36.605891 35.166104 59.058654 0
M  V30 6 C 38.627585 30.240415 54.265029 0
M  V30 7 C 39.096915 29.029749 52.042417 0
M  V30 8 C 36.950792 35.016923 60.554829 0 CFG=1
M  V30 9 O 37.478153 29.799179 54.253497 0
M  V30 10 N 37.067424 34.021369 58.253499 0 CHG=1
M  V30 11 N 36.725805 30.706002 59.053503 0
M  V30 12 O 39.867403 30.035431 49.961200 0
M  V30 13 C 37.143915 36.427888 61.165293 0
M  V30 14 S 35.702015 34.021407 61.459492 0
M  V30 15 N 39.183172 30.808753 55.347821 0
M  V30 16 C 36.551969 31.367105 60.258590 0
M  V30 17 S 35.137474 32.476689 60.233602 0
M  V30 18 O 37.262034 31.257493 61.256584 0
M  V30 19 O 37.436244 36.421432 62.545563 0
M  V30 20 C 39.503006 30.162235 53.008745 0
M  V30 21 H 37.586753 28.821438 59.257878 0
M  V30 22 H 38.719135 30.143012 59.378775 0
M  V30 23 H 39.071363 31.628214 57.242306 0
M  V30 24 H 37.525883 31.492047 56.435973 0
M  V30 25 H 39.778974 28.015152 50.253509 0
M  V30 26 H 41.058156 28.840173 51.124851 0
M  V30 27 H 37.439345 29.079521 56.832841 0
M  V30 28 H 39.115742 29.019505 57.290799 0
M  V30 29 H 35.534459 35.314961 58.915582 0
M  V30 30 H 37.089140 36.054585 58.653501 0
M  V30 31 H 38.064287 29.154948 51.715917 0
M  V30 32 H 39.126112 28.080946 52.580320 0
M  V30 33 H 37.900441 34.488230 60.649835 0
M  V30 34 H 36.992256 34.261306 57.274411 0
M  V30 35 H 38.027076 33.795656 58.466666 0
M  V30 36 H 36.062644 30.901053 58.303118 0
M  V30 37 H 38.996016 30.021409 49.576554 0
M  V30 38 H 37.968122 36.936312 60.663301 0
M  V30 39 H 36.267394 37.050795 61.000638 0
M  V30 40 H 40.131081 31.151388 55.291838 0
M  V30 41 H 38.229301 35.929926 62.698688 0
M  V30 42 H 40.538590 30.022033 53.313783 0
M  V30 43 H 39.467442 31.126429 52.500223 0
M  V30 44 H 36.478239 33.213090 58.413870 0
M  V30 END ATOM
M  V30 BEGIN BOND
M  V30 1 1 4 1
M  V30 2 1 4 2
M  V30 3 1 7 3
M  V30 4 1 8 5
M  V30 5 2 9 6
M  V30 6 1 10 5
M  V30 7 1 11 1
M  V30 8 1 12 3
M  V30 9 1 13 8
M  V30 10 1 14 8
M  V30 11 1 15 2
M  V30 12 1 15 6
M  V30 13 1 16 11
M  V30 14 1 17 14
M  V30 15 1 17 16
M  V30 16 2 18 16
M  V30 17 1 19 13
M  V30 18 1 20 6
M  V30 19 1 20 7
M  V30 20 1 21 1
M  V30 21 1 22 1
M  V30 22 1 23 2
M  V30 23 1 24 2
M  V30 24 1 25 3
M  V30 25 1 26 3
M  V30 26 1 27 4
M  V30 27 1 28 4
M  V30 28 1 29 5
M  V30 29 1 30 5
M  V30 30 1 31 7
M  V30 31 1 32 7
M  V30 32 1 8 33 CFG=3
M  V30 33 1 34 10
M  V30 34 1 35 10
M  V30 35 1 36 11
M  V30 36 1 37 12
M  V30 37 1 38 13
M  V30 38 1 39 13
M  V30 39 1 40 15
M  V30 40 1 41 19
M  V30 41 1 42 20
M  V30 42 1 43 20
M  V30 43 1 44 10
M  V30 END BOND
M  V30 END CTAB
M  END
>  <i_epik_Tot_Q>  (1) 
1

>  <i_epik_Tot_abs_Q>  (1) 
1

>  <i_i_glide_confnum>  (1) 
490

>  <i_i_glide_lignum>  (1) 
89

>  <i_i_glide_posenum>  (1) 
381

>  <i_i_glide_rotatable_bonds>  (1) 
16

>  <i_lp_mmshare_version>  (1) 
72125

>  <i_m_source_file_index>  (1) 
36

>  <i_f3d_flags>  (1) 
0

>  <num_sample>  (1) 
50

>  <b_lp_Chiralities_Consistent>  (1) 
1

>  <r_epik_Charging_Adjusted_Penalty>  (1) 
0.070813283132224986

>  <r_epik_Ionization_Penalty>  (1) 
0.035414902051254887

>  <r_epik_Ionization_Penalty_Charging>  (1) 
0.0354066415661125

>  <r_epik_Ionization_Penalty_Neutral>  (1) 
8.2604851423881855e-06

>  <r_epik_State_Penalty>  (1) 
0.035406641566112479

>  <r_glide_ring_energy>  (1) 
0

>  <r_i_docking_score>  (1) 
-5.0944213853866378

>  <r_i_glide_ecoul>  (1) 
-10.608641697941994

>  <r_i_glide_eff_state_penalty>  (1) 
0.035406641566112479

>  <r_i_glide_einternal>  (1) 
8.5367829631120777

>  <r_i_glide_emodel>  (1) 
-54.980045497107206

>  <r_i_glide_emodel_strain>  (1) 
1.7694620420288425

>  <r_i_glide_energy>  (1) 
-45.073807072063715

>  <r_i_glide_erotb>  (1) 
2.287715563984396

>  <r_i_glide_esite>  (1) 
-0.22024892552636494

>  <r_i_glide_evdw>  (1) 
-34.465165374121725

>  <r_i_glide_gscore>  (1) 
-5.1298280269527501

>  <r_i_glide_gscore_strain>  (1) 
0

>  <r_i_glide_hbond>  (1) 
-0.70435754237614201

>  <r_i_glide_ligand_efficiency>  (1) 
-0.25472106926933191

>  <r_i_glide_ligand_efficiency_ln>  (1) 
-1.2749656474995561

>  <r_i_glide_ligand_efficiency_sa>  (1) 
-0.69141935774256602

>  <r_i_glide_lipo>  (1) 
-1.5466865748253329

>  <r_i_glide_metal>  (1) 
-0

>  <r_i_glide_rewards>  (1) 
-1.6316960248119228

>  <r_lp_Energy>  (1) 
-0.712812

>  <s_epik_cmdline>  (1) 
J2VwaWtfcHl0aG9uJywgJy1waHQnLCAnMS4wJywgJy1waCcsICc3LjQnLCAnLXRuJywgJzgnLCAnLW1hJywgJzUwMCcsICctaW1hZScsICc8aW5maWxlLm1hZT4nLCAnLW9tYWUnLCAnPG91dGZpbGUubWFlPic=

>  <s_epik_input>  (1) 
W05IMl1bQ0gyXVtDQEBIXShbQ0gyXVtPSF0pU1NDKD1PKVtOSF1bQ0gyXVtDSDJdW0NIMl1bTkhdQyg9TylbQ0gyXVtDSDJdW0NIMl1bT0hd

>  <s_glide_docking_method>  (1) 
confgen

>  <s_i_glide_gridfile>  (1) 
gpcr_5ht2c_6bqh_protein_autoprepared_prepared

>  <s_lp_Force_Field>  (1) 
S-OPLS

>  <s_lp_Variant>  (1) 
DiffSBDD_35_num_sample_50-1

>  <s_m_source_file>  (1) 
generated__ligand_DiffSBDD_2026-05-06_prepared.sdf

>  <GenAI_Model>  (1) 
DiffSBDD

>  <Protein>  (1) 
GPCR_5HT2C

$$$$
DiffSBDD_30_num_sample_50
     RDKit          3D

  0  0  0  0  0  0  0  0  0  0999 V3000
M  V30 BEGIN CTAB
M  V30 COUNTS 68 67 0 0 1
M  V30 BEGIN ATOM
M  V30 1 C 40.254903 30.472943 53.628514 0
M  V30 2 C 36.610056 33.455544 59.357792 0 CFG=2
M  V30 3 C 35.700068 34.646348 59.701443 0
M  V30 4 O 40.501213 31.727508 61.053494 0
M  V30 5 C 40.533753 31.630356 63.453887 0
M  V30 6 C 36.612221 32.564185 61.762296 0
M  V30 7 C 40.539159 30.629390 49.971779 0
M  V30 8 C 38.886671 27.823792 51.026334 0
M  V30 9 C 38.310867 32.645806 57.615923 0
M  V30 10 C 37.486384 32.959862 60.550033 0 CFG=2
M  V30 11 C 40.039428 29.736939 52.283502 0 CFG=1
M  V30 12 C 38.614659 33.965535 60.914303 0
M  V30 13 C 38.870036 28.695265 52.292726 0 CFG=2
M  V30 14 C 39.258469 31.510882 55.665366 0
M  V30 15 C 35.445460 31.622335 61.402069 0
M  V30 16 C 37.367723 33.757979 58.069644 0
M  V30 17 C 40.207730 32.276281 62.112064 0
M  V30 18 C 39.503722 33.641100 62.144013 0 CFG=1
M  V30 19 C 39.026565 31.201897 54.186399 0
M  V30 20 C 38.864668 27.782050 53.551265 0
M  V30 21 O 38.666421 33.779070 55.568353 0 CHG=-1
M  V30 22 C 37.554776 27.013447 53.784401 0
M  V30 23 N 38.326263 32.594719 56.113889 0 CFG=2 CHG=1
M  V30 24 C 40.535199 34.759319 62.374972 0
M  V30 25 C 39.982926 30.779573 51.179896 0
M  V30 26 H 40.616430 29.793391 54.396945 0
M  V30 27 H 41.052596 31.210522 53.524291 0
M  V30 28 H 35.959122 32.634458 59.063852 0
M  V30 29 H 36.270041 35.545533 59.931387 0
M  V30 30 H 35.039867 34.882346 58.865527 0
M  V30 31 H 35.065780 34.421444 60.554249 0
M  V30 32 H 40.328964 32.316791 64.275387 0
M  V30 33 H 39.930529 30.733491 63.596108 0
M  V30 34 H 41.586588 31.350413 63.494114 0
M  V30 35 H 37.232398 32.068209 62.507505 0
M  V30 36 H 36.228089 33.463845 62.243793 0
M  V30 37 H 41.067061 29.727055 49.706690 0
M  V30 38 H 40.470690 31.413627 49.235781 0
M  V30 39 H 39.816186 27.261966 50.930950 0
M  V30 40 H 38.072565 27.102264 51.041929 0
M  V30 41 H 38.764014 28.421992 50.125181 0
M  V30 42 H 37.962183 31.665378 57.942151 0
M  V30 43 H 39.332370 32.814334 57.958956 0
M  V30 44 H 37.972230 32.038922 60.228914 0
M  V30 45 H 40.948855 29.187904 52.054892 0
M  V30 46 H 39.262748 34.107824 60.048434 0
M  V30 47 H 38.159717 34.938698 61.096017 0
M  V30 48 H 37.922802 29.230618 52.290703 0
M  V30 49 H 39.076867 30.625639 56.276986 0
M  V30 50 H 40.267428 31.880096 55.855663 0
M  V30 51 H 34.820872 31.373464 62.253482 0
M  V30 52 H 34.748719 32.071020 60.697180 0
M  V30 53 H 35.815829 30.699332 60.956919 0
M  V30 54 H 37.867307 34.712815 58.137220 0
M  V30 55 H 36.635595 33.909578 57.288553 0
M  V30 56 H 38.862938 33.613309 63.020942 0
M  V30 57 H 38.845795 32.107488 53.612015 0
M  V30 58 H 38.118413 30.607694 54.099685 0
M  V30 59 H 39.702883 27.085210 53.515669 0
M  V30 60 H 39.004770 28.369355 54.455275 0
M  V30 61 H 37.565383 26.534453 54.763914 0
M  V30 62 H 36.690744 27.678000 53.752350 0
M  V30 63 H 37.400808 26.224170 53.053494 0
M  V30 64 H 41.177549 34.549631 63.231307 0
M  V30 65 H 41.175778 34.895992 61.502639 0
M  V30 66 H 40.038519 35.709934 62.569600 0
M  V30 67 H 39.467408 31.694334 51.407319 0
M  V30 68 H 37.359097 32.297543 55.845828 0
M  V30 END ATOM
M  V30 BEGIN BOND
M  V30 1 1 3 2
M  V30 2 1 10 2
M  V30 3 1 10 6
M  V30 4 1 11 1
M  V30 5 1 12 10
M  V30 6 1 13 8
M  V30 7 1 13 11
M  V30 8 1 15 6
M  V30 9 1 16 2
M  V30 10 1 16 9
M  V30 11 2 17 4
M  V30 12 1 17 5
M  V30 13 1 18 12
M  V30 14 1 18 17
M  V30 15 1 19 1
M  V30 16 1 19 14
M  V30 17 1 20 13
M  V30 18 1 22 20
M  V30 19 1 23 9
M  V30 20 1 23 14
M  V30 21 1 23 21
M  V30 22 1 24 18
M  V30 23 2 25 7
M  V30 24 1 25 11
M  V30 25 1 26 1
M  V30 26 1 27 1
M  V30 27 1 2 28 CFG=3
M  V30 28 1 29 3
M  V30 29 1 30 3
M  V30 30 1 31 3
M  V30 31 1 32 5
M  V30 32 1 33 5
M  V30 33 1 34 5
M  V30 34 1 35 6
M  V30 35 1 36 6
M  V30 36 1 37 7
M  V30 37 1 38 7
M  V30 38 1 39 8
M  V30 39 1 40 8
M  V30 40 1 41 8
M  V30 41 1 42 9
M  V30 42 1 43 9
M  V30 43 1 10 44 CFG=3
M  V30 44 1 11 45 CFG=3
M  V30 45 1 46 12
M  V30 46 1 47 12
M  V30 47 1 13 48 CFG=3
M  V30 48 1 49 14
M  V30 49 1 50 14
M  V30 50 1 51 15
M  V30 51 1 52 15
M  V30 52 1 53 15
M  V30 53 1 54 16
M  V30 54 1 55 16
M  V30 55 1 18 56 CFG=1
M  V30 56 1 57 19
M  V30 57 1 58 19
M  V30 58 1 59 20
M  V30 59 1 60 20
M  V30 60 1 61 22
M  V30 61 1 62 22
M  V30 62 1 63 22
M  V30 63 1 64 24
M  V30 64 1 65 24
M  V30 65 1 66 24
M  V30 66 1 67 25
M  V30 67 1 23 68 CFG=3
M  V30 END BOND
M  V30 END CTAB
M  END
>  <i_epik_Tot_Q>  (1) 
0

>  <i_epik_Tot_abs_Q>  (1) 
2

>  <i_i_glide_confnum>  (1) 
1380

>  <i_i_glide_lignum>  (1) 
79

>  <i_i_glide_posenum>  (1) 
125

>  <i_i_glide_rotatable_bonds>  (1) 
15

>  <i_lp_mmshare_version>  (1) 
72125

>  <i_m_source_file_index>  (1) 
31

>  <i_f3d_flags>  (1) 
0

>  <num_sample>  (1) 
50

>  <b_lp_Chiralities_Consistent>  (1) 
1

>  <r_epik_Charging_Adjusted_Penalty>  (1) 
0.52251968911758562

>  <r_epik_Ionization_Penalty>  (1) 
0.019979657236955634

>  <r_epik_Ionization_Penalty_Charging>  (1) 
0.019979657236557934

>  <r_epik_Ionization_Penalty_Neutral>  (1) 
3.9770064437045143e-13

>  <r_epik_State_Penalty>  (1) 
0.50254003188102769

>  <r_glide_ring_energy>  (1) 
0

>  <r_i_docking_score>  (1) 
-5.0880544090785422

>  <r_i_glide_ecoul>  (1) 
-2.9292060824816102

>  <r_i_glide_eff_state_penalty>  (1) 
0.50254003188102769

>  <r_i_glide_einternal>  (1) 
4.9387750197452593

>  <r_i_glide_emodel>  (1) 
-46.636710768821089

>  <r_i_glide_emodel_strain>  (1) 
1.0649898829907798

>  <r_i_glide_energy>  (1) 
-35.918212563308025

>  <r_i_glide_erotb>  (1) 
1.833058027080513

>  <r_i_glide_esite>  (1) 
-0.062229191596289438

>  <r_i_glide_evdw>  (1) 
-32.989006480826411

>  <r_i_glide_gscore>  (1) 
-5.5905944409595696

>  <r_i_glide_gscore_strain>  (1) 
0

>  <r_i_glide_hbond>  (1) 
-0.05038505141296528

>  <r_i_glide_ligand_efficiency>  (1) 
-0.20352217636314168

>  <r_i_glide_ligand_efficiency_ln>  (1) 
-1.2060213716381412

>  <r_i_glide_ligand_efficiency_sa>  (1) 
-0.59510245380551363

>  <r_i_glide_lipo>  (1) 
-3.3397496274521394

>  <r_i_glide_metal>  (1) 
-0

>  <r_i_glide_rewards>  (1) 
-1.8824573611651267

>  <r_lp_Energy>  (1) 
19.132985999999999

>  <s_epik_cmdline>  (1) 
J2VwaWtfcHl0aG9uJywgJy1waHQnLCAnMS4wJywgJy1waCcsICc3LjQnLCAnLXRuJywgJzgnLCAnLW1hJywgJzUwMCcsICctaW1hZScsICc8aW5maWxlLm1hZT4nLCAnLW9tYWUnLCAnPG91dGZpbGUubWFlPic=

>  <s_epik_input>  (1) 
W0NIM11bQ0gyXVtDQEhdKFtDSDNdKVtDQEBIXShbQ0hdPVtDSDJdKVtDSDJdW0NIMl1bQ0gyXU4oW09IXSlbQ0gyXVtDSDJdW0NASF0oW0NIM10pW0NASF0oW0NIMl1bQ0gzXSlbQ0gyXVtDQEhdKFtDSDNdKUMoPU8pW0NIM10=

>  <s_glide_docking_method>  (1) 
confgen

>  <s_i_glide_gridfile>  (1) 
gpcr_5ht2c_6bqh_protein_autoprepared_prepared

>  <s_lp_Force_Field>  (1) 
S-OPLS

>  <s_lp_Variant>  (1) 
DiffSBDD_30_num_sample_50-3

>  <s_m_source_file>  (1) 
generated__ligand_DiffSBDD_2026-05-06_prepared.sdf

>  <GenAI_Model>  (1) 
DiffSBDD

>  <Protein>  (1) 
GPCR_5HT2C

$$$$
DiffSBDD_12_num_sample_50
     RDKit          3D

  0  0  0  0  0  0  0  0  0  0999 V3000
M  V30 BEGIN CTAB
M  V30 COUNTS 70 72 0 0 1
M  V30 BEGIN ATOM
M  V30 1 C 37.341909 24.822948 56.968004 0
M  V30 2 C 39.230219 32.761669 61.530946 0
M  V30 3 C 38.813098 29.506801 60.145211 0
M  V30 4 O 37.627455 28.955864 58.100983 0
M  V30 5 N 39.799891 31.493827 61.401912 0
M  V30 6 F 43.598442 33.221401 66.696027 0
M  V30 7 N 39.067449 28.421690 60.727656 0
M  V30 8 C 38.411775 26.201921 55.105077 0
M  V30 9 C 36.589540 34.332693 59.345330 0
M  V30 10 C 37.503666 25.046223 55.491415 0
M  V30 11 C 38.056281 26.071287 57.494410 0
M  V30 12 C 39.255055 28.083825 56.568540 0
M  V30 13 C 42.556785 33.078463 65.859966 0
M  V30 14 C 41.548211 31.148198 64.542963 0
M  V30 15 N 38.344625 33.113222 60.519782 0
M  V30 16 N 40.580359 30.955052 62.421544 0
M  V30 17 C 37.561994 29.707723 59.302869 0
M  V30 18 C 37.893472 26.987727 53.882034 0
M  V30 19 N 39.509398 33.539181 62.534006 0
M  V30 20 O 38.882170 30.711869 55.166752 0
M  V30 21 C 41.067321 34.201417 64.191501 0
M  V30 22 C 39.746524 30.680113 60.195548 0
M  V30 23 O 35.712456 33.224812 59.453340 0
M  V30 24 C 38.597407 29.358111 57.135923 0 CFG=1
M  V30 25 C 39.853610 25.678750 54.923115 0
M  V30 26 C 40.501005 33.173129 63.477422 0
M  V30 27 C 42.171717 34.145785 65.157212 0
M  V30 28 C 40.905405 31.728054 63.514105 0
M  V30 29 C 41.872271 31.776154 65.843076 0
M  V30 30 C 38.363086 31.728189 54.328614 0
M  V30 31 C 37.557252 34.333243 60.541557 0
M  V30 32 C 37.913058 30.251410 56.094416 0
M  V30 33 O 36.937967 24.343838 54.657909 0
M  V30 34 N 38.261974 27.001841 56.343536 0 CFG=1 CHG=1
M  V30 35 H 37.815194 23.896921 57.296433 0
M  V30 36 H 36.285604 24.823796 57.232394 0
M  V30 37 H 39.934809 28.423794 61.244268 0
M  V30 38 H 40.752400 30.311962 59.989638 0
M  V30 39 H 36.000855 35.250356 59.315312 0
M  V30 40 H 37.136972 34.272718 58.403314 0
M  V30 41 H 39.008475 25.793651 57.947876 0
M  V30 42 H 37.451383 26.547816 58.253589 0
M  V30 43 H 39.773630 28.341296 55.645340 0
M  V30 44 H 40.030206 27.725978 57.248237 0
M  V30 45 H 41.793355 30.099163 64.469040 0
M  V30 46 H 38.125110 32.488798 59.760064 0
M  V30 47 H 40.885407 29.997262 62.345275 0
M  V30 48 H 36.686912 29.369184 59.853517 0
M  V30 49 H 37.992739 26.419624 52.961283 0
M  V30 50 H 36.843039 27.257054 53.989812 0
M  V30 51 H 38.447224 27.914133 53.739015 0
M  V30 52 H 40.688828 35.189500 63.971724 0
M  V30 53 H 37.392049 30.760836 59.081396 0
M  V30 54 H 39.467400 31.314959 59.356938 0
M  V30 55 H 35.468437 32.934832 58.575986 0
M  V30 56 H 39.400704 29.947845 57.573784 0
M  V30 57 H 39.867699 24.823126 54.256407 0
M  V30 58 H 40.519199 26.431766 54.505206 0
M  V30 59 H 40.288859 25.340173 55.863824 0
M  V30 60 H 42.721302 35.061209 65.317384 0
M  V30 61 H 42.495735 31.070301 66.394276 0
M  V30 62 H 40.949518 31.865119 66.415496 0
M  V30 63 H 39.080110 31.969218 53.544958 0
M  V30 64 H 37.441916 31.400242 53.854340 0
M  V30 65 H 38.153959 32.636715 54.893815 0
M  V30 66 H 37.002335 34.404865 61.478262 0
M  V30 67 H 38.223409 35.194983 60.486800 0
M  V30 68 H 37.111727 29.718025 55.581801 0
M  V30 69 H 37.467558 31.104470 56.607559 0
M  V30 70 H 37.373764 27.472313 56.236246 0
M  V30 END ATOM
M  V30 BEGIN BOND
M  V30 1 1 5 2
M  V30 2 2 7 3
M  V30 3 1 10 1
M  V30 4 1 10 8
M  V30 5 1 11 1
M  V30 6 1 13 6
M  V30 7 1 15 2
M  V30 8 1 16 5
M  V30 9 1 17 3
M  V30 10 1 17 4
M  V30 11 1 18 8
M  V30 12 2 19 2
M  V30 13 1 22 3
M  V30 14 1 22 5
M  V30 15 1 23 9
M  V30 16 1 24 4
M  V30 17 1 24 12
M  V30 18 1 25 8
M  V30 19 1 26 19
M  V30 20 2 26 21
M  V30 21 2 27 13
M  V30 22 1 27 21
M  V30 23 2 28 14
M  V30 24 1 28 16
M  V30 25 1 28 26
M  V30 26 1 29 13
M  V30 27 1 29 14
M  V30 28 1 30 20
M  V30 29 1 31 9
M  V30 30 1 31 15
M  V30 31 1 32 20
M  V30 32 1 32 24
M  V30 33 2 33 10
M  V30 34 1 34 8
M  V30 35 1 34 11
M  V30 36 1 34 12
M  V30 37 1 35 1
M  V30 38 1 36 1
M  V30 39 1 37 7
M  V30 40 1 38 22
M  V30 41 1 39 9
M  V30 42 1 40 9
M  V30 43 1 41 11
M  V30 44 1 42 11
M  V30 45 1 43 12
M  V30 46 1 44 12
M  V30 47 1 45 14
M  V30 48 1 46 15
M  V30 49 1 47 16
M  V30 50 1 48 17
M  V30 51 1 49 18
M  V30 52 1 50 18
M  V30 53 1 51 18
M  V30 54 1 52 21
M  V30 55 1 53 17
M  V30 56 1 54 22
M  V30 57 1 55 23
M  V30 58 1 24 56 CFG=1
M  V30 59 1 57 25
M  V30 60 1 58 25
M  V30 61 1 59 25
M  V30 62 1 60 27
M  V30 63 1 61 29
M  V30 64 1 62 29
M  V30 65 1 63 30
M  V30 66 1 64 30
M  V30 67 1 65 30
M  V30 68 1 66 31
M  V30 69 1 67 31
M  V30 70 1 68 32
M  V30 71 1 69 32
M  V30 72 1 34 70 CFG=3
M  V30 END BOND
M  V30 END CTAB
M  END
>  <i_epik_Tot_Q>  (1) 
1

>  <i_epik_Tot_abs_Q>  (1) 
1

>  <i_i_glide_confnum>  (1) 
1925

>  <i_i_glide_lignum>  (1) 
40

>  <i_i_glide_posenum>  (1) 
292

>  <i_i_glide_rotatable_bonds>  (1) 
13

>  <i_lp_mmshare_version>  (1) 
72125

>  <i_m_source_file_index>  (1) 
13

>  <i_f3d_flags>  (1) 
0

>  <num_sample>  (1) 
50

>  <b_lp_Chiralities_Consistent>  (1) 
1

>  <r_epik_Charging_Adjusted_Penalty>  (1) 
2.2216491605189872

>  <r_epik_Ionization_Penalty>  (1) 
0.91881204336881139

>  <r_epik_Ionization_Penalty_Charging>  (1) 
0.90548466078319156

>  <r_epik_Ionization_Penalty_Neutral>  (1) 
0.013327382585619883

>  <r_epik_State_Penalty>  (1) 
1.3161644997357957

>  <r_glide_ring_energy>  (1) 
0

>  <r_i_docking_score>  (1) 
-5.0742244785959185

>  <r_i_glide_ecoul>  (1) 
-2.9616545823272977

>  <r_i_glide_eff_state_penalty>  (1) 
1.3161644997357957

>  <r_i_glide_einternal>  (1) 
9.8830816674002193

>  <r_i_glide_emodel>  (1) 
-60.607950263744492

>  <r_i_glide_emodel_strain>  (1) 
1.5335606478567598

>  <r_i_glide_energy>  (1) 
-47.706695942835424

>  <r_i_glide_erotb>  (1) 
0.96958307808003152

>  <r_i_glide_esite>  (1) 
0

>  <r_i_glide_evdw>  (1) 
-44.745041360508125

>  <r_i_glide_gscore>  (1) 
-6.390388978331714

>  <r_i_glide_gscore_strain>  (1) 
0

>  <r_i_glide_hbond>  (1) 
-0.16

>  <r_i_glide_ligand_efficiency>  (1) 
-0.14924189642929173

>  <r_i_glide_ligand_efficiency_ln>  (1) 
-1.1210385144975203

>  <r_i_glide_ligand_efficiency_sa>  (1) 
-0.48348580891736542

>  <r_i_glide_lipo>  (1) 
-3.1690759811449776

>  <r_i_glide_metal>  (1) 
-0

>  <r_i_glide_rewards>  (1) 
-1.3493958198922655

>  <r_lp_Energy>  (1) 
35.139842000000002

>  <r_lp_tautomer_probability>  (1) 
0.49996700039999997

>  <s_epik_Chemistry_Notes>  (1) 
This compound has an imine and may undergo hydrolysis.

>  <s_epik_cmdline>  (1) 
J2VwaWtfcHl0aG9uJywgJy1waHQnLCAnMS4wJywgJy1waCcsICc3LjQnLCAnLXRuJywgJzgnLCAnLW1hJywgJzUwMCcsICctaW1hZScsICc8aW5maWxlLm1hZT4nLCAnLW9tYWUnLCAnPG91dGZpbGUubWFlPic=

>  <s_epik_input>  (1) 
W0NIM11DMShbQ0gzXSlDKD1PKVtDSDJdW0NIMl1OMVtDSDJdW0NAQEhdKFtDSDJdT1tDSDNdKU8vW0NIXT1DKFxbTkgyXSlbQ0gyXU4oQyg9TjIpW05IXVtDSDJdW0NIMl1bT0hdKVtOSF1DKEMyMyk9W0NIXVtDSDJdQyhGKT1bQ0hdW0NIXT0z

>  <s_glide_docking_method>  (1) 
confgen

>  <s_i_glide_gridfile>  (1) 
gpcr_5ht2c_6bqh_protein_autoprepared_prepared

>  <s_lp_Force_Field>  (1) 
S-OPLS

>  <s_lp_Variant>  (1) 
DiffSBDD_12_num_sample_50-2

>  <s_m_source_file>  (1) 
generated__ligand_DiffSBDD_2026-05-06_prepared.sdf

>  <GenAI_Model>  (1) 
DiffSBDD

>  <Protein>  (1) 
GPCR_5HT2C

$$$$
DiffSBDD_12_num_sample_50
     RDKit          3D

  0  0  0  0  0  0  0  0  0  0999 V3000
M  V30 BEGIN CTAB
M  V30 COUNTS 70 72 0 0 1
M  V30 BEGIN ATOM
M  V30 1 C 37.451047 25.869956 57.516270 0
M  V30 2 C 37.631748 33.202886 60.460574 0
M  V30 3 C 38.633097 30.400216 58.545641 0
M  V30 4 O 38.280758 30.016699 56.131251 0
M  V30 5 N 38.138895 31.902622 60.459546 0
M  V30 6 F 42.671445 34.433082 64.893406 0
M  V30 7 N 39.592269 29.609569 58.779864 0
M  V30 8 C 38.169022 26.000807 55.076398 0
M  V30 9 C 36.569187 35.928483 59.098926 0
M  V30 10 C 37.352942 25.290873 56.135879 0
M  V30 11 C 38.323493 27.100199 57.222773 0
M  V30 12 C 39.514701 28.098891 55.201093 0
M  V30 13 C 41.556356 34.128850 64.207926 0
M  V30 14 C 40.411509 31.995095 63.290757 0
M  V30 15 N 36.608752 33.452641 59.544951 0
M  V30 16 N 39.075230 31.505457 61.429002 0
M  V30 17 C 38.394175 31.004594 57.166484 0
M  V30 18 C 37.416564 26.168546 53.747674 0
M  V30 19 N 38.084305 34.107833 61.276539 0
M  V30 20 O 39.464062 30.161217 53.187828 0
M  V30 21 C 39.817181 34.985422 62.617766 0
M  V30 22 C 37.644427 30.804447 59.620637 0
M  V30 23 O 37.172827 36.592588 60.189235 0
M  V30 24 C 39.530022 29.592086 55.590834 0 CFG=1
M  V30 25 C 39.483198 25.222874 54.897111 0
M  V30 26 C 39.187233 33.866902 62.126166 0
M  V30 27 C 41.022745 35.085350 63.448072 0
M  V30 28 C 39.595042 32.435370 62.314403 0
M  V30 29 C 40.980202 32.786278 64.409789 0
M  V30 30 C 39.867454 31.019967 52.131898 0
M  V30 31 C 35.817269 34.676400 59.584076 0
M  V30 32 C 39.982420 30.544606 54.454033 0
M  V30 33 O 36.666385 24.302572 55.885613 0
M  V30 34 N 38.373084 27.311535 55.743865 0 CFG=1 CHG=1
M  V30 35 H 37.912000 25.175894 58.221042 0
M  V30 36 H 36.459417 26.146717 57.877511 0
M  V30 37 H 39.627617 29.282841 59.733710 0
M  V30 38 H 36.673095 31.013455 59.171488 0
M  V30 39 H 37.311925 35.661179 58.349324 0
M  V30 40 H 35.867366 36.636188 58.653284 0
M  V30 41 H 39.328808 26.958874 57.625619 0
M  V30 42 H 37.872687 27.958902 57.709084 0
M  V30 43 H 39.466433 28.002489 54.119070 0
M  V30 44 H 40.463326 27.644669 55.490378 0
M  V30 45 H 40.630552 30.938153 63.329787 0
M  V30 46 H 36.288251 32.753639 58.881768 0
M  V30 47 H 39.326784 30.530977 61.486390 0
M  V30 48 H 37.467908 31.569663 57.183643 0
M  V30 49 H 36.908109 25.249783 53.452698 0
M  V30 50 H 36.668605 26.961600 53.801972 0
M  V30 51 H 38.099280 26.432032 52.941186 0
M  V30 52 H 39.392334 35.930920 62.309273 0
M  V30 53 H 39.177836 31.730214 56.941557 0
M  V30 54 H 37.462319 29.927454 60.243043 0
M  V30 55 H 37.658396 35.931944 60.671175 0
M  V30 56 H 40.282161 29.664954 56.368606 0
M  V30 57 H 39.260412 24.190861 54.654106 0
M  V30 58 H 40.098275 25.621959 54.092109 0
M  V30 59 H 40.096302 25.219791 55.801186 0
M  V30 60 H 41.527271 36.041916 63.451681 0
M  V30 61 H 41.768081 32.173247 64.849383 0
M  V30 62 H 40.218715 32.841371 65.189755 0
M  V30 63 H 39.528709 30.612687 51.177506 0
M  V30 64 H 39.430376 32.009175 52.251761 0
M  V30 65 H 40.948142 31.147946 52.070001 0
M  V30 66 H 34.946569 34.520355 58.945043 0
M  V30 67 H 35.435584 34.815849 60.594948 0
M  V30 68 H 39.694881 31.572614 54.679420 0
M  V30 69 H 41.068029 30.531242 54.399269 0
M  V30 70 H 37.545987 27.856133 55.530064 0
M  V30 END ATOM
M  V30 BEGIN BOND
M  V30 1 1 5 2
M  V30 2 2 7 3
M  V30 3 1 10 1
M  V30 4 1 10 8
M  V30 5 1 11 1
M  V30 6 1 13 6
M  V30 7 1 15 2
M  V30 8 1 16 5
M  V30 9 1 17 3
M  V30 10 1 17 4
M  V30 11 1 18 8
M  V30 12 2 19 2
M  V30 13 1 22 3
M  V30 14 1 22 5
M  V30 15 1 23 9
M  V30 16 1 24 4
M  V30 17 1 24 12
M  V30 18 1 25 8
M  V30 19 1 26 19
M  V30 20 2 26 21
M  V30 21 2 27 13
M  V30 22 1 27 21
M  V30 23 2 28 14
M  V30 24 1 28 16
M  V30 25 1 28 26
M  V30 26 1 29 13
M  V30 27 1 29 14
M  V30 28 1 30 20
M  V30 29 1 31 9
M  V30 30 1 31 15
M  V30 31 1 32 20
M  V30 32 1 32 24
M  V30 33 2 33 10
M  V30 34 1 34 8
M  V30 35 1 34 11
M  V30 36 1 34 12
M  V30 37 1 35 1
M  V30 38 1 36 1
M  V30 39 1 37 7
M  V30 40 1 38 22
M  V30 41 1 39 9
M  V30 42 1 40 9
M  V30 43 1 41 11
M  V30 44 1 42 11
M  V30 45 1 43 12
M  V30 46 1 44 12
M  V30 47 1 45 14
M  V30 48 1 46 15
M  V30 49 1 47 16
M  V30 50 1 48 17
M  V30 51 1 49 18
M  V30 52 1 50 18
M  V30 53 1 51 18
M  V30 54 1 52 21
M  V30 55 1 53 17
M  V30 56 1 54 22
M  V30 57 1 55 23
M  V30 58 1 24 56 CFG=1
M  V30 59 1 57 25
M  V30 60 1 58 25
M  V30 61 1 59 25
M  V30 62 1 60 27
M  V30 63 1 61 29
M  V30 64 1 62 29
M  V30 65 1 63 30
M  V30 66 1 64 30
M  V30 67 1 65 30
M  V30 68 1 66 31
M  V30 69 1 67 31
M  V30 70 1 68 32
M  V30 71 1 69 32
M  V30 72 1 34 70 CFG=3
M  V30 END BOND
M  V30 END CTAB
M  END
>  <i_epik_Tot_Q>  (1) 
1

>  <i_epik_Tot_abs_Q>  (1) 
1

>  <i_i_glide_confnum>  (1) 
1074

>  <i_i_glide_lignum>  (1) 
40

>  <i_i_glide_posenum>  (1) 
283

>  <i_i_glide_rotatable_bonds>  (1) 
13

>  <i_lp_mmshare_version>  (1) 
72125

>  <i_m_source_file_index>  (1) 
13

>  <i_f3d_flags>  (1) 
0

>  <num_sample>  (1) 
50

>  <b_lp_Chiralities_Consistent>  (1) 
1

>  <r_epik_Charging_Adjusted_Penalty>  (1) 
2.2216491605189872

>  <r_epik_Ionization_Penalty>  (1) 
0.91881204336881139

>  <r_epik_Ionization_Penalty_Charging>  (1) 
0.90548466078319156

>  <r_epik_Ionization_Penalty_Neutral>  (1) 
0.013327382585619883

>  <r_epik_State_Penalty>  (1) 
1.3161644997357957

>  <r_glide_ring_energy>  (1) 
0

>  <r_i_docking_score>  (1) 
-5.0673598401890976

>  <r_i_glide_ecoul>  (1) 
-5.3254624712582794

>  <r_i_glide_eff_state_penalty>  (1) 
1.3161644997357957

>  <r_i_glide_einternal>  (1) 
10.828827602381448

>  <r_i_glide_emodel>  (1) 
-61.129854415187808

>  <r_i_glide_emodel_strain>  (1) 
4.4498026808434616

>  <r_i_glide_energy>  (1) 
-51.638529426509074

>  <r_i_glide_erotb>  (1) 
0.96958307808003152

>  <r_i_glide_esite>  (1) 
-0.06623271426930244

>  <r_i_glide_evdw>  (1) 
-46.313066955250797

>  <r_i_glide_gscore>  (1) 
-6.3835243399248931

>  <r_i_glide_gscore_strain>  (1) 
0.11245067021086541

>  <r_i_glide_hbond>  (1) 
0

>  <r_i_glide_ligand_efficiency>  (1) 
-0.14903999529967935

>  <r_i_glide_ligand_efficiency_ln>  (1) 
-1.1195219233268683

>  <r_i_glide_ligand_efficiency_sa>  (1) 
-0.4828317276351819

>  <r_i_glide_lipo>  (1) 
-3.2677991896751601

>  <r_i_glide_metal>  (1) 
-0

>  <r_i_glide_rewards>  (1) 
-1.0170534658200456

>  <r_lp_Energy>  (1) 
35.139842000000002

>  <r_lp_tautomer_probability>  (1) 
0.49996700039999997

>  <s_epik_Chemistry_Notes>  (1) 
This compound has an imine and may undergo hydrolysis.

>  <s_epik_cmdline>  (1) 
J2VwaWtfcHl0aG9uJywgJy1waHQnLCAnMS4wJywgJy1waCcsICc3LjQnLCAnLXRuJywgJzgnLCAnLW1hJywgJzUwMCcsICctaW1hZScsICc8aW5maWxlLm1hZT4nLCAnLW9tYWUnLCAnPG91dGZpbGUubWFlPic=

>  <s_epik_input>  (1) 
W0NIM11DMShbQ0gzXSlDKD1PKVtDSDJdW0NIMl1OMVtDSDJdW0NAQEhdKFtDSDJdT1tDSDNdKU8vW0NIXT1DKFxbTkgyXSlbQ0gyXU4oQyg9TjIpW05IXVtDSDJdW0NIMl1bT0hdKVtOSF1DKEMyMyk9W0NIXVtDSDJdQyhGKT1bQ0hdW0NIXT0z

>  <s_glide_docking_method>  (1) 
confgen

>  <s_i_glide_gridfile>  (1) 
gpcr_5ht2c_6bqh_protein_autoprepared_prepared

>  <s_lp_Force_Field>  (1) 
S-OPLS

>  <s_lp_Variant>  (1) 
DiffSBDD_12_num_sample_50-2

>  <s_m_source_file>  (1) 
generated__ligand_DiffSBDD_2026-05-06_prepared.sdf

>  <GenAI_Model>  (1) 
DiffSBDD

>  <Protein>  (1) 
GPCR_5HT2C

$$$$
DiffSBDD_30_num_sample_50
     RDKit          3D

  0  0  0  0  0  0  0  0  0  0999 V3000
M  V30 BEGIN CTAB
M  V30 COUNTS 68 67 0 0 1
M  V30 BEGIN ATOM
M  V30 1 C 39.230553 28.327609 55.516534 0
M  V30 2 C 38.056912 33.042228 60.202666 0 CFG=2
M  V30 3 C 38.109903 32.191051 61.486565 0
M  V30 4 O 36.807022 38.414687 61.453359 0
M  V30 5 C 36.618543 36.470348 62.841797 0
M  V30 6 C 35.641128 33.251515 59.442306 0
M  V30 7 C 38.561014 24.923475 56.096943 0
M  V30 8 C 37.015833 28.036490 52.977046 0
M  V30 9 C 38.543664 32.850605 57.628192 0
M  V30 10 C 36.785318 33.959015 60.215674 0 CFG=2
M  V30 11 C 38.463343 27.139610 54.888885 0 CFG=1
M  V30 12 C 37.034610 35.415605 59.702396 0
M  V30 13 C 38.230841 27.182900 53.350020 0 CFG=2
M  V30 14 C 39.065757 30.667585 56.478892 0
M  V30 15 C 34.224368 33.779688 59.592183 0
M  V30 16 C 38.240231 32.127468 58.961699 0
M  V30 17 C 37.066288 37.222990 61.600006 0
M  V30 18 C 37.861693 36.442737 60.541765 0 CFG=1
M  V30 19 C 38.535375 29.695485 55.422462 0
M  V30 20 C 39.482105 27.538416 52.527778 0
M  V30 21 O 38.525606 32.627120 55.281925 0 CHG=-1
M  V30 22 C 39.310328 27.447139 51.003093 0
M  V30 23 N 38.279057 31.960447 56.429642 0 CFG=2 CHG=1
M  V30 24 C 39.223284 35.988344 61.096978 0
M  V30 25 C 39.136503 25.843487 55.308638 0
M  V30 26 H 39.358948 28.095616 56.575229 0
M  V30 27 H 40.244142 28.398051 55.125589 0
M  V30 28 H 38.951001 33.652138 60.218858 0
M  V30 29 H 37.269466 31.498641 61.541277 0
M  V30 30 H 39.025161 31.600313 61.534967 0
M  V30 31 H 38.089987 32.819085 62.377922 0
M  V30 32 H 35.915665 37.076988 63.415606 0
M  V30 33 H 36.112461 35.549896 62.564846 0
M  V30 34 H 37.479922 36.246705 63.469624 0
M  V30 35 H 35.880808 33.289815 58.384254 0
M  V30 36 H 35.588103 32.201014 59.727168 0
M  V30 37 H 37.560480 25.063292 56.479480 0
M  V30 38 H 39.083916 24.021739 56.368845 0
M  V30 39 H 37.117617 29.076195 53.272117 0
M  V30 40 H 36.824169 28.021428 51.908091 0
M  V30 41 H 36.133358 27.621608 53.453612 0
M  V30 42 H 39.575381 33.193269 57.565772 0
M  V30 43 H 37.895780 33.706481 57.463530 0
M  V30 44 H 36.445693 34.039015 61.244289 0
M  V30 45 H 37.480130 27.122991 55.361278 0
M  V30 46 H 37.465233 35.374039 58.706950 0
M  V30 47 H 36.068424 35.886011 59.528576 0
M  V30 48 H 37.950079 26.173561 53.053572 0
M  V30 49 H 38.943546 30.217210 57.459885 0
M  V30 50 H 40.111498 30.921419 56.316758 0
M  V30 51 H 33.543514 33.221429 58.949761 0
M  V30 52 H 33.872404 33.654379 60.614926 0
M  V30 53 H 34.167233 34.818421 59.279213 0
M  V30 54 H 37.391870 31.456407 58.832527 0
M  V30 55 H 39.068282 31.460717 59.185824 0
M  V30 56 H 38.104795 37.221004 59.818246 0
M  V30 57 H 38.678767 30.126695 54.431281 0
M  V30 58 H 37.462454 29.572753 55.573168 0
M  V30 59 H 39.825991 28.544403 52.770739 0
M  V30 60 H 40.267549 26.845012 52.823108 0
M  V30 61 H 40.267529 27.581398 50.501417 0
M  V30 62 H 38.905703 26.483167 50.692992 0
M  V30 63 H 38.651088 28.229578 50.629247 0
M  V30 64 H 39.745237 36.818244 61.574735 0
M  V30 65 H 39.119881 35.202825 61.845858 0
M  V30 66 H 39.875497 35.628287 60.300377 0
M  V30 67 H 40.138908 25.675871 54.940206 0
M  V30 68 H 37.270016 31.689686 56.515587 0
M  V30 END ATOM
M  V30 BEGIN BOND
M  V30 1 1 3 2
M  V30 2 1 10 2
M  V30 3 1 10 6
M  V30 4 1 11 1
M  V30 5 1 12 10
M  V30 6 1 13 8
M  V30 7 1 13 11
M  V30 8 1 15 6
M  V30 9 1 16 2
M  V30 10 1 16 9
M  V30 11 2 17 4
M  V30 12 1 17 5
M  V30 13 1 18 12
M  V30 14 1 18 17
M  V30 15 1 19 1
M  V30 16 1 19 14
M  V30 17 1 20 13
M  V30 18 1 22 20
M  V30 19 1 23 9
M  V30 20 1 23 14
M  V30 21 1 23 21
M  V30 22 1 24 18
M  V30 23 2 25 7
M  V30 24 1 25 11
M  V30 25 1 26 1
M  V30 26 1 27 1
M  V30 27 1 2 28 CFG=1
M  V30 28 1 29 3
M  V30 29 1 30 3
M  V30 30 1 31 3
M  V30 31 1 32 5
M  V30 32 1 33 5
M  V30 33 1 34 5
M  V30 34 1 35 6
M  V30 35 1 36 6
M  V30 36 1 37 7
M  V30 37 1 38 7
M  V30 38 1 39 8
M  V30 39 1 40 8
M  V30 40 1 41 8
M  V30 41 1 42 9
M  V30 42 1 43 9
M  V30 43 1 10 44 CFG=1
M  V30 44 1 11 45 CFG=1
M  V30 45 1 46 12
M  V30 46 1 47 12
M  V30 47 1 13 48 CFG=3
M  V30 48 1 49 14
M  V30 49 1 50 14
M  V30 50 1 51 15
M  V30 51 1 52 15
M  V30 52 1 53 15
M  V30 53 1 54 16
M  V30 54 1 55 16
M  V30 55 1 18 56 CFG=3
M  V30 56 1 57 19
M  V30 57 1 58 19
M  V30 58 1 59 20
M  V30 59 1 60 20
M  V30 60 1 61 22
M  V30 61 1 62 22
M  V30 62 1 63 22
M  V30 63 1 64 24
M  V30 64 1 65 24
M  V30 65 1 66 24
M  V30 66 1 67 25
M  V30 67 1 23 68 CFG=3
M  V30 END BOND
M  V30 END CTAB
M  END
>  <i_epik_Tot_Q>  (1) 
0

>  <i_epik_Tot_abs_Q>  (1) 
2

>  <i_i_glide_confnum>  (1) 
5742

>  <i_i_glide_lignum>  (1) 
79

>  <i_i_glide_posenum>  (1) 
82

>  <i_i_glide_rotatable_bonds>  (1) 
15

>  <i_lp_mmshare_version>  (1) 
72125

>  <i_m_source_file_index>  (1) 
31

>  <i_f3d_flags>  (1) 
0

>  <num_sample>  (1) 
50

>  <b_lp_Chiralities_Consistent>  (1) 
1

>  <r_epik_Charging_Adjusted_Penalty>  (1) 
0.52251968911758562

>  <r_epik_Ionization_Penalty>  (1) 
0.019979657236955634

>  <r_epik_Ionization_Penalty_Charging>  (1) 
0.019979657236557934

>  <r_epik_Ionization_Penalty_Neutral>  (1) 
3.9770064437045143e-13

>  <r_epik_State_Penalty>  (1) 
0.50254003188102769

>  <r_glide_ring_energy>  (1) 
0

>  <r_i_docking_score>  (1) 
-5.0357100323738013

>  <r_i_glide_ecoul>  (1) 
-1.1038663836218878

>  <r_i_glide_eff_state_penalty>  (1) 
0.50254003188102769

>  <r_i_glide_einternal>  (1) 
7.9320475413284495

>  <r_i_glide_emodel>  (1) 
-45.014218527754466

>  <r_i_glide_emodel_strain>  (1) 
2.2461309620071361

>  <r_i_glide_energy>  (1) 
-37.106946420911413

>  <r_i_glide_erotb>  (1) 
1.833058027080513

>  <r_i_glide_esite>  (1) 
-0.10000000000000001

>  <r_i_glide_evdw>  (1) 
-36.003080037289529

>  <r_i_glide_gscore>  (1) 
-5.5382500642548287

>  <r_i_glide_gscore_strain>  (1) 
0

>  <r_i_glide_hbond>  (1) 
-0.16

>  <r_i_glide_ligand_efficiency>  (1) 
-0.20142840129495204

>  <r_i_glide_ligand_efficiency_ln>  (1) 
-1.1936141857247289

>  <r_i_glide_ligand_efficiency_sa>  (1) 
-0.58898021836629932

>  <r_i_glide_lipo>  (1) 
-3.2371907347959787

>  <r_i_glide_metal>  (1) 
-0

>  <r_i_glide_rewards>  (1) 
-1.9083833971316024

>  <r_lp_Energy>  (1) 
19.132985999999999

>  <s_epik_cmdline>  (1) 
J2VwaWtfcHl0aG9uJywgJy1waHQnLCAnMS4wJywgJy1waCcsICc3LjQnLCAnLXRuJywgJzgnLCAnLW1hJywgJzUwMCcsICctaW1hZScsICc8aW5maWxlLm1hZT4nLCAnLW9tYWUnLCAnPG91dGZpbGUubWFlPic=

>  <s_epik_input>  (1) 
W0NIM11bQ0gyXVtDQEhdKFtDSDNdKVtDQEBIXShbQ0hdPVtDSDJdKVtDSDJdW0NIMl1bQ0gyXU4oW09IXSlbQ0gyXVtDSDJdW0NASF0oW0NIM10pW0NASF0oW0NIMl1bQ0gzXSlbQ0gyXVtDQEhdKFtDSDNdKUMoPU8pW0NIM10=

>  <s_glide_docking_method>  (1) 
confgen

>  <s_i_glide_gridfile>  (1) 
gpcr_5ht2c_6bqh_protein_autoprepared_prepared

>  <s_lp_Force_Field>  (1) 
S-OPLS

>  <s_lp_Variant>  (1) 
DiffSBDD_30_num_sample_50-3

>  <s_m_source_file>  (1) 
generated__ligand_DiffSBDD_2026-05-06_prepared.sdf

>  <GenAI_Model>  (1) 
DiffSBDD

>  <Protein>  (1) 
GPCR_5HT2C

$$$$
DiffSBDD_35_num_sample_50
     RDKit          3D

  0  0  0  0  0  0  0  0  0  0999 V3000
M  V30 BEGIN CTAB
M  V30 COUNTS 44 43 0 0 1
M  V30 BEGIN ATOM
M  V30 1 C 38.248256 30.556840 58.302326 0
M  V30 2 C 38.088867 33.120555 58.498386 0
M  V30 3 C 36.292529 37.380473 62.797935 0
M  V30 4 C 37.662600 31.755581 59.079135 0
M  V30 5 C 39.917039 28.464071 50.810162 0
M  V30 6 C 37.867400 34.832062 60.253500 0
M  V30 7 C 36.848517 36.057953 62.253469 0
M  V30 8 C 38.956730 28.654861 51.998375 0 CFG=1
M  V30 9 O 38.844342 34.416122 60.876689 0
M  V30 10 N 39.867404 29.601453 49.868281 0 CHG=1
M  V30 11 N 37.867403 30.658634 56.900779 0
M  V30 12 O 35.867402 37.221429 64.134662 0
M  V30 13 C 38.894980 27.405176 52.905323 0
M  V30 14 S 39.467396 30.141929 52.918660 0
M  V30 15 N 37.420826 34.257926 59.125538 0
M  V30 16 C 38.675745 30.199911 55.875147 0
M  V30 17 S 37.972303 30.542240 54.253500 0
M  V30 18 O 39.760043 29.631266 55.999619 0
M  V30 19 O 37.602643 27.236371 53.453479 0
M  V30 20 C 37.107315 36.071771 60.738939 0
M  V30 21 H 39.332508 30.529831 58.415468 0
M  V30 22 H 37.862625 29.621035 58.707966 0
M  V30 23 H 37.831245 33.179512 57.440721 0
M  V30 24 H 39.173211 33.233043 58.548926 0
M  V30 25 H 35.467403 37.771284 62.211832 0
M  V30 26 H 37.067403 38.138063 62.751942 0
M  V30 27 H 37.962265 31.690606 60.125541 0
M  V30 28 H 36.573737 31.686887 59.068039 0
M  V30 29 H 40.938910 28.375996 51.179121 0
M  V30 30 H 39.681617 27.548542 50.264523 0
M  V30 31 H 37.789243 35.860807 62.767925 0
M  V30 32 H 36.162172 35.241554 62.483729 0
M  V30 33 H 37.960948 28.832540 51.589324 0
M  V30 34 H 40.547512 29.472587 49.134199 0
M  V30 35 H 38.939944 29.670176 49.453545 0
M  V30 36 H 36.983168 31.106486 56.648040 0
M  V30 37 H 35.290216 36.469584 64.203141 0
M  V30 38 H 39.132749 26.500981 52.344360 0
M  V30 39 H 39.618480 27.468051 53.717712 0
M  V30 40 H 36.612874 34.646661 58.658686 0
M  V30 41 H 37.040749 26.850775 52.794083 0
M  V30 42 H 36.168685 36.171582 60.193904 0
M  V30 43 H 37.708509 36.943281 60.478285 0
M  V30 44 H 40.071070 30.457516 50.367068 0
M  V30 END ATOM
M  V30 BEGIN BOND
M  V30 1 1 4 1
M  V30 2 1 4 2
M  V30 3 1 7 3
M  V30 4 1 8 5
M  V30 5 2 9 6
M  V30 6 1 10 5
M  V30 7 1 11 1
M  V30 8 1 12 3
M  V30 9 1 13 8
M  V30 10 1 14 8
M  V30 11 1 15 2
M  V30 12 1 15 6
M  V30 13 1 16 11
M  V30 14 1 17 14
M  V30 15 1 17 16
M  V30 16 2 18 16
M  V30 17 1 19 13
M  V30 18 1 20 6
M  V30 19 1 20 7
M  V30 20 1 21 1
M  V30 21 1 22 1
M  V30 22 1 23 2
M  V30 23 1 24 2
M  V30 24 1 25 3
M  V30 25 1 26 3
M  V30 26 1 27 4
M  V30 27 1 28 4
M  V30 28 1 29 5
M  V30 29 1 30 5
M  V30 30 1 31 7
M  V30 31 1 32 7
M  V30 32 1 8 33 CFG=3
M  V30 33 1 34 10
M  V30 34 1 35 10
M  V30 35 1 36 11
M  V30 36 1 37 12
M  V30 37 1 38 13
M  V30 38 1 39 13
M  V30 39 1 40 15
M  V30 40 1 41 19
M  V30 41 1 42 20
M  V30 42 1 43 20
M  V30 43 1 44 10
M  V30 END BOND
M  V30 END CTAB
M  END
>  <i_epik_Tot_Q>  (1) 
1

>  <i_epik_Tot_abs_Q>  (1) 
1

>  <i_i_glide_confnum>  (1) 
1011

>  <i_i_glide_lignum>  (1) 
89

>  <i_i_glide_posenum>  (1) 
174

>  <i_i_glide_rotatable_bonds>  (1) 
16

>  <i_lp_mmshare_version>  (1) 
72125

>  <i_m_source_file_index>  (1) 
36

>  <i_f3d_flags>  (1) 
0

>  <num_sample>  (1) 
50

>  <b_lp_Chiralities_Consistent>  (1) 
1

>  <r_epik_Charging_Adjusted_Penalty>  (1) 
0.070813283132224986

>  <r_epik_Ionization_Penalty>  (1) 
0.035414902051254887

>  <r_epik_Ionization_Penalty_Charging>  (1) 
0.0354066415661125

>  <r_epik_Ionization_Penalty_Neutral>  (1) 
8.2604851423881855e-06

>  <r_epik_State_Penalty>  (1) 
0.035406641566112479

>  <r_glide_ring_energy>  (1) 
0

>  <r_i_docking_score>  (1) 
-5.0274786369154558

>  <r_i_glide_ecoul>  (1) 
-11.352915510410217

>  <r_i_glide_eff_state_penalty>  (1) 
0.035406641566112479

>  <r_i_glide_einternal>  (1) 
6.3092933946437375

>  <r_i_glide_emodel>  (1) 
-52.601895441912077

>  <r_i_glide_emodel_strain>  (1) 
1.5568666760581293

>  <r_i_glide_energy>  (1) 
-41.577382581793032

>  <r_i_glide_erotb>  (1) 
2.287715563984396

>  <r_i_glide_esite>  (1) 
-0.12647801861539276

>  <r_i_glide_evdw>  (1) 
-30.224467071382819

>  <r_i_glide_gscore>  (1) 
-5.0628852784815681

>  <r_i_glide_gscore_strain>  (1) 
0

>  <r_i_glide_hbond>  (1) 
-0.63182577930193939

>  <r_i_glide_ligand_efficiency>  (1) 
-0.25137393184577278

>  <r_i_glide_ligand_efficiency_ln>  (1) 
-1.2582120854768335

>  <r_i_glide_ligand_efficiency_sa>  (1) 
-0.68233382895489314

>  <r_i_glide_lipo>  (1) 
-1.75927422468134

>  <r_i_glide_metal>  (1) 
-0

>  <r_i_glide_rewards>  (1) 
-1.6188621397366179

>  <r_lp_Energy>  (1) 
-0.712812

>  <s_epik_cmdline>  (1) 
J2VwaWtfcHl0aG9uJywgJy1waHQnLCAnMS4wJywgJy1waCcsICc3LjQnLCAnLXRuJywgJzgnLCAnLW1hJywgJzUwMCcsICctaW1hZScsICc8aW5maWxlLm1hZT4nLCAnLW9tYWUnLCAnPG91dGZpbGUubWFlPic=

>  <s_epik_input>  (1) 
W05IMl1bQ0gyXVtDQEBIXShbQ0gyXVtPSF0pU1NDKD1PKVtOSF1bQ0gyXVtDSDJdW0NIMl1bTkhdQyg9TylbQ0gyXVtDSDJdW0NIMl1bT0hd

>  <s_glide_docking_method>  (1) 
confgen

>  <s_i_glide_gridfile>  (1) 
gpcr_5ht2c_6bqh_protein_autoprepared_prepared

>  <s_lp_Force_Field>  (1) 
S-OPLS

>  <s_lp_Variant>  (1) 
DiffSBDD_35_num_sample_50-1

>  <s_m_source_file>  (1) 
generated__ligand_DiffSBDD_2026-05-06_prepared.sdf

>  <GenAI_Model>  (1) 
DiffSBDD

>  <Protein>  (1) 
GPCR_5HT2C

$$$$
DiffSBDD_5_num_sample_50
     RDKit          3D

  0  0  0  0  0  0  0  0  0  0999 V3000
M  V30 BEGIN CTAB
M  V30 COUNTS 80 82 0 0 1
M  V30 BEGIN ATOM
M  V30 1 C 38.407998 30.259174 59.319804 0
M  V30 2 C 39.542641 28.138999 58.415622 0 CFG=2
M  V30 3 N 37.731958 37.894346 60.542079 0
M  V30 4 F 39.484484 26.887223 53.233911 0
M  V30 5 C 37.776250 32.535090 61.751291 0
M  V30 6 N 38.614962 30.530134 60.566908 0 CHG=1
M  V30 7 C 38.297153 34.927743 60.988779 0 CFG=1
M  V30 8 C 38.681291 29.018470 52.584177 0 CFG=2
M  V30 9 C 38.384018 25.996033 57.661392 0
M  V30 10 C 37.453804 31.130080 61.236526 0 CFG=2
M  V30 11 N 37.194684 30.557575 58.948643 0
M  V30 12 C 39.508804 25.271961 56.895809 0
M  V30 13 C 38.289637 29.542190 56.195262 0 CFG=2
M  V30 14 C 36.996455 25.488366 57.242099 0
M  V30 15 N 37.067406 29.761221 54.253490 0 CHG=1
M  V30 16 C 36.678109 36.895705 60.647207 0
M  V30 17 C 39.556921 27.657074 59.854080 0
M  V30 18 C 36.365630 31.118246 60.028390 0
M  V30 19 C 39.460551 29.683822 58.413145 0 CFG=1
M  V30 20 C 37.287223 28.774075 53.172057 0
M  V30 21 O 38.524084 39.967477 60.936497 0
M  V30 22 C 39.395036 27.719692 52.195960 0
M  V30 23 C 36.343424 39.476803 61.814015 0
M  V30 24 C 37.630586 39.129462 61.053501 0
M  V30 25 S 39.586368 30.021430 53.795620 0
M  V30 26 C 39.334996 30.275877 57.013875 0
M  V30 27 C 38.538625 28.018971 56.207903 0
M  V30 28 C 40.438219 35.679839 61.720426 0
M  V30 29 O 39.500412 35.609496 60.654595 0
M  V30 30 O 36.029710 34.669077 60.100597 0
M  V30 31 N 38.471305 27.496218 57.594056 0 CFG=2 CHG=1
M  V30 32 C 37.151920 35.528481 60.130855 0 CFG=2
M  V30 33 N 38.268127 30.130322 54.867939 0
M  V30 34 C 38.511480 33.425351 60.726761 0
M  V30 35 H 40.501734 27.864708 57.971169 0
M  V30 36 H 38.575750 37.637950 60.049851 0
M  V30 37 H 38.380188 32.465138 62.653731 0
M  V30 38 H 36.839553 33.008167 62.049701 0
M  V30 39 H 38.064290 35.090484 62.041801 0
M  V30 40 H 38.616510 29.621323 51.680325 0
M  V30 41 H 38.445264 25.673951 58.697208 0
M  V30 42 H 37.151743 30.472612 62.039368 0
M  V30 43 H 36.852526 30.487580 57.998425 0
M  V30 44 H 39.478416 24.198800 57.089763 0
M  V30 45 H 39.422853 25.400669 55.816642 0
M  V30 46 H 40.494364 25.622732 57.199997 0
M  V30 47 H 37.309875 29.725354 56.632514 0
M  V30 48 H 36.920042 24.412335 57.401465 0
M  V30 49 H 36.222237 25.955748 57.848037 0
M  V30 50 H 36.768322 25.670181 56.192787 0
M  V30 51 H 36.430210 29.435504 54.964852 0
M  V30 52 H 35.838811 37.238420 60.043526 0
M  V30 53 H 36.341630 36.799734 61.680958 0
M  V30 54 H 40.273299 28.202013 60.469271 0
M  V30 55 H 38.575785 27.729690 60.320017 0
M  V30 56 H 39.867212 26.629307 59.853501 0
M  V30 57 H 35.519243 30.467828 60.244993 0
M  V30 58 H 35.995502 32.107534 59.760457 0
M  V30 59 H 40.405115 30.021429 58.826881 0
M  V30 60 H 36.514637 28.821378 52.407337 0
M  V30 61 H 37.206663 27.770470 53.584417 0
M  V30 62 H 38.849922 27.199033 51.406804 0
M  V30 63 H 40.401026 27.922988 51.834131 0
M  V30 64 H 36.266619 38.903400 62.737708 0
M  V30 65 H 36.323372 40.536157 62.068790 0
M  V30 66 H 35.467205 39.272722 61.205771 0
M  V30 67 H 39.136557 31.347451 57.065518 0
M  V30 68 H 40.267406 30.158891 56.491420 0
M  V30 69 H 37.792812 27.508570 55.611072 0
M  V30 70 H 39.508107 27.783074 55.765277 0
M  V30 71 H 41.331694 36.208739 61.389836 0
M  V30 72 H 40.025780 36.225689 62.569947 0
M  V30 73 H 40.742848 34.689855 62.060937 0
M  V30 74 H 35.423648 34.986559 59.445250 0
M  V30 75 H 37.467379 35.624149 59.092182 0
M  V30 76 H 38.211149 33.196878 59.703731 0
M  V30 77 H 39.572785 33.179631 60.766366 0
M  V30 78 H 36.708194 30.622950 53.866358 0
M  V30 79 H 39.491394 30.370584 61.045474 0
M  V30 80 H 37.599260 27.819569 57.987289 0
M  V30 END ATOM
M  V30 BEGIN BOND
M  V30 1 2 6 1
M  V30 2 1 10 5
M  V30 3 1 10 6
M  V30 4 1 11 1
M  V30 5 1 12 9
M  V30 6 1 14 9
M  V30 7 1 16 3
M  V30 8 1 17 2
M  V30 9 1 18 10
M  V30 10 1 18 11
M  V30 11 1 19 1
M  V30 12 1 19 2
M  V30 13 1 20 8
M  V30 14 1 20 15
M  V30 15 1 22 4
M  V30 16 1 22 8
M  V30 17 1 24 3
M  V30 18 2 24 21
M  V30 19 1 24 23
M  V30 20 1 25 8
M  V30 21 1 26 13
M  V30 22 1 26 19
M  V30 23 1 27 13
M  V30 24 1 29 7
M  V30 25 1 29 28
M  V30 26 1 31 2
M  V30 27 1 31 9
M  V30 28 1 31 27
M  V30 29 1 32 7
M  V30 30 1 32 16
M  V30 31 1 32 30
M  V30 32 1 33 13
M  V30 33 1 33 15
M  V30 34 1 33 25
M  V30 35 1 34 5
M  V30 36 1 34 7
M  V30 37 1 2 35 CFG=3
M  V30 38 1 36 3
M  V30 39 1 37 5
M  V30 40 1 38 5
M  V30 41 1 7 39 CFG=1
M  V30 42 1 8 40 CFG=3
M  V30 43 1 41 9
M  V30 44 1 10 42 CFG=1
M  V30 45 1 43 11
M  V30 46 1 44 12
M  V30 47 1 45 12
M  V30 48 1 46 12
M  V30 49 1 13 47 CFG=1
M  V30 50 1 48 14
M  V30 51 1 49 14
M  V30 52 1 50 14
M  V30 53 1 51 15
M  V30 54 1 52 16
M  V30 55 1 53 16
M  V30 56 1 54 17
M  V30 57 1 55 17
M  V30 58 1 56 17
M  V30 59 1 57 18
M  V30 60 1 58 18
M  V30 61 1 19 59 CFG=1
M  V30 62 1 60 20
M  V30 63 1 61 20
M  V30 64 1 62 22
M  V30 65 1 63 22
M  V30 66 1 64 23
M  V30 67 1 65 23
M  V30 68 1 66 23
M  V30 69 1 67 26
M  V30 70 1 68 26
M  V30 71 1 69 27
M  V30 72 1 70 27
M  V30 73 1 71 28
M  V30 74 1 72 28
M  V30 75 1 73 28
M  V30 76 1 74 30
M  V30 77 1 32 75 CFG=3
M  V30 78 1 76 34
M  V30 79 1 77 34
M  V30 80 1 78 15
M  V30 81 1 79 6
M  V30 82 1 31 80 CFG=1
M  V30 END BOND
M  V30 END CTAB
M  END
>  <i_epik_Tot_Q>  (1) 
3

>  <i_epik_Tot_abs_Q>  (1) 
3

>  <i_i_glide_confnum>  (1) 
173

>  <i_i_glide_lignum>  (1) 
17

>  <i_i_glide_posenum>  (1) 
268

>  <i_i_glide_rotatable_bonds>  (1) 
13

>  <i_lp_mmshare_version>  (1) 
72125

>  <i_m_source_file_index>  (1) 
6

>  <i_f3d_flags>  (1) 
0

>  <num_sample>  (1) 
50

>  <b_lp_Chiralities_Consistent>  (1) 
1

>  <r_epik_Charging_Adjusted_Penalty>  (1) 
0.16301919670703535

>  <r_epik_Ionization_Penalty>  (1) 
0.082191666583868089

>  <r_epik_Ionization_Penalty_Charging>  (1) 
0.082191230012028396

>  <r_epik_Ionization_Penalty_Neutral>  (1) 
4.3657183969654913e-07

>  <r_epik_State_Penalty>  (1) 
0.080827966695006942

>  <r_glide_ring_energy>  (1) 
0

>  <r_i_docking_score>  (1) 
-5.0111035108144639

>  <r_i_glide_ecoul>  (1) 
-1.3708634478543233

>  <r_i_glide_eff_state_penalty>  (1) 
0.080827966695006942

>  <r_i_glide_einternal>  (1) 
9.5769949956738394

>  <r_i_glide_emodel>  (1) 
-44.546740390825356

>  <r_i_glide_emodel_strain>  (1) 
0.4541480136115581

>  <r_i_glide_energy>  (1) 
-36.940242975872252

>  <r_i_glide_erotb>  (1) 
0.63983490757673345

>  <r_i_glide_esite>  (1) 
-0.090485998750793509

>  <r_i_glide_evdw>  (1) 
-35.569379528017926

>  <r_i_glide_gscore>  (1) 
-5.0919314775094708

>  <r_i_glide_gscore_strain>  (1) 
0

>  <r_i_glide_hbond>  (1) 
-0.28830508412907041

>  <r_i_glide_ligand_efficiency>  (1) 
-0.14738539737689599

>  <r_i_glide_ligand_efficiency_ln>  (1) 
-1.107093322231421

>  <r_i_glide_ligand_efficiency_sa>  (1) 
-0.47747147267816376

>  <r_i_glide_lipo>  (1) 
-3.8121304878488038

>  <r_i_glide_metal>  (1) 
-0

>  <r_i_glide_rewards>  (1) 
0.44325367922150771

>  <r_lp_Energy>  (1) 
42.251275999999997

>  <s_epik_Chemistry_Notes>  (1) 
This compound has an imine and may undergo hydrolysis. This compound has a N-S or N-O group and may undergo hydrolysis at high or low pH.

>  <s_epik_cmdline>  (1) 
J2VwaWtfcHl0aG9uJywgJy1waHQnLCAnMS4wJywgJy1waCcsICc3LjQnLCAnLXRuJywgJzgnLCAnLW1hJywgJzUwMCcsICctaW1hZScsICc8aW5maWxlLm1hZT4nLCAnLW9tYWUnLCAnPG91dGZpbGUubWFlPic=

>  <s_epik_input>  (1) 
RltDSDJdW0NASF0xW0NIMl1bTkhdTihTMSlbQ0BASF0oW0NIMl1OMltDSF0oW0NIM10pW0NIM10pW0NIMl1bQ0BASF0oW0NASF0yW0NIM10pQzM9TltDQEhdKFtDSDJdW05IXTMpW0NIMl1bQ0gyXVtDQEBIXShPW0NIM10pW0NAQEhdKFtPSF0pW0NIMl1bTkhdQyg9TylbQ0gzXQ==

>  <s_glide_docking_method>  (1) 
confgen

>  <s_i_glide_gridfile>  (1) 
gpcr_5ht2c_6bqh_protein_autoprepared_prepared

>  <s_lp_Force_Field>  (1) 
S-OPLS

>  <s_lp_Variant>  (1) 
DiffSBDD_5_num_sample_50-4

>  <s_m_source_file>  (1) 
generated__ligand_DiffSBDD_2026-05-06_prepared.sdf

>  <GenAI_Model>  (1) 
DiffSBDD

>  <Protein>  (1) 
GPCR_5HT2C

$$$$
DiffSBDD_5_num_sample_50
     RDKit          3D

  0  0  0  0  0  0  0  0  0  0999 V3000
M  V30 BEGIN CTAB
M  V30 COUNTS 80 82 0 0 1
M  V30 BEGIN ATOM
M  V30 1 C 38.136909 30.746374 60.272615 0
M  V30 2 C 39.129653 32.956226 61.111235 0 CFG=2
M  V30 3 N 39.067387 28.772827 52.890847 0
M  V30 4 F 42.810682 31.285368 68.374842 0
M  V30 5 C 38.268124 27.822523 58.428392 0
M  V30 6 N 38.892046 30.015324 59.503758 0 CHG=1
M  V30 7 C 39.220507 26.835669 56.209573 0 CFG=1
M  V30 8 C 41.882723 30.098718 66.561815 0 CFG=2
M  V30 9 C 39.980770 35.117823 62.186955 0
M  V30 10 C 38.157834 29.357006 58.398070 0 CFG=2
M  V30 11 N 36.894844 30.727085 59.892698 0
M  V30 12 C 40.966522 35.419855 61.053900 0
M  V30 13 C 40.269567 31.438755 63.406460 0 CFG=2
M  V30 14 C 40.463280 35.813477 63.479741 0
M  V30 15 N 40.672229 29.362928 64.595802 0 CHG=1
M  V30 16 C 38.828470 27.631652 53.773560 0
M  V30 17 C 37.984115 33.742302 60.435969 0
M  V30 18 C 36.653458 29.878324 58.707187 0
M  V30 19 C 38.642661 31.521851 61.472534 0 CFG=2
M  V30 20 C 40.645130 29.344930 66.067754 0
M  V30 21 O 39.468393 29.623354 50.841675 0
M  V30 22 C 41.692627 30.688729 67.965426 0
M  V30 23 C 39.058344 27.267724 50.945444 0
M  V30 24 C 39.216365 28.660046 51.558727 0
M  V30 25 S 42.230055 31.375620 65.323907 0
M  V30 26 C 39.750408 30.705041 62.158841 0
M  V30 27 C 40.766191 32.848953 62.983366 0
M  V30 28 C 38.228199 24.824864 55.325316 0
M  V30 29 O 38.154600 25.890032 56.260039 0
M  V30 30 O 39.867218 29.032939 55.452975 0
M  V30 31 N 39.677249 33.648124 62.336413 0 CFG=2 CHG=1
M  V30 32 C 38.886129 28.026360 55.270445 0 CFG=2
M  V30 33 N 41.275496 30.629278 64.104840 0
M  V30 34 C 39.481310 27.224822 57.687508 0
M  V30 35 H 39.939437 32.862691 60.386465 0
M  V30 36 H 39.168592 29.681934 53.320040 0
M  V30 37 H 37.351791 27.383468 58.034890 0
M  V30 38 H 38.318569 27.503527 59.468914 0
M  V30 39 H 40.136989 26.357446 55.856669 0
M  V30 40 H 42.735532 29.418427 66.563382 0
M  V30 41 H 39.041470 35.617009 61.948345 0
M  V30 42 H 38.485751 29.772851 57.447719 0
M  V30 43 H 36.152424 31.243547 60.344728 0
M  V30 44 H 41.263854 36.469576 61.054629 0
M  V30 45 H 41.867920 34.826147 61.151842 0
M  V30 46 H 40.532703 35.220731 60.076413 0
M  V30 47 H 39.467442 31.574975 64.120296 0
M  V30 48 H 40.467514 36.895766 63.344785 0
M  V30 49 H 39.823316 35.621461 64.336101 0
M  V30 50 H 41.484584 35.540779 63.747539 0
M  V30 51 H 39.730489 29.264437 64.228794 0
M  V30 52 H 39.588990 26.873524 53.579383 0
M  V30 53 H 37.856022 27.194386 53.545076 0
M  V30 54 H 37.611022 33.214721 59.559019 0
M  V30 55 H 37.144340 33.894922 61.114524 0
M  V30 56 H 38.297636 34.717708 60.066750 0
M  V30 57 H 36.267674 30.421425 57.855064 0
M  V30 58 H 35.963072 29.070915 58.947918 0
M  V30 59 H 37.812420 31.610907 62.174976 0
M  V30 60 H 40.598328 28.324953 66.451933 0
M  V30 61 H 39.736004 29.855816 66.389656 0
M  V30 62 H 40.898313 31.435260 67.987349 0
M  V30 63 H 41.454489 29.914797 68.696628 0
M  V30 64 H 39.867075 26.605986 51.250843 0
M  V30 65 H 38.106611 26.821253 51.228375 0
M  V30 66 H 39.067482 27.334543 49.857121 0
M  V30 67 H 39.343541 29.723521 62.402754 0
M  V30 68 H 40.582827 30.540578 61.473022 0
M  V30 69 H 41.109544 33.373814 63.870950 0
M  V30 70 H 41.623948 32.770315 62.313282 0
M  V30 71 H 37.563719 24.021056 55.641119 0
M  V30 72 H 37.908023 25.131392 54.332345 0
M  V30 73 H 39.237281 24.421367 55.257719 0
M  V30 74 H 40.045615 29.120867 56.375083 0
M  V30 75 H 37.925652 28.456952 55.555740 0
M  V30 76 H 39.762555 26.305543 58.204380 0
M  V30 77 H 40.353285 27.872008 57.784577 0
M  V30 78 H 41.262615 28.617948 64.253025 0
M  V30 79 H 39.886344 29.897751 59.633207 0
M  V30 80 H 38.921636 33.637658 63.006437 0
M  V30 END ATOM
M  V30 BEGIN BOND
M  V30 1 2 6 1
M  V30 2 1 10 5
M  V30 3 1 10 6
M  V30 4 1 11 1
M  V30 5 1 12 9
M  V30 6 1 14 9
M  V30 7 1 16 3
M  V30 8 1 17 2
M  V30 9 1 18 10
M  V30 10 1 18 11
M  V30 11 1 19 1
M  V30 12 1 19 2
M  V30 13 1 20 8
M  V30 14 1 20 15
M  V30 15 1 22 4
M  V30 16 1 22 8
M  V30 17 1 24 3
M  V30 18 2 24 21
M  V30 19 1 24 23
M  V30 20 1 25 8
M  V30 21 1 26 13
M  V30 22 1 26 19
M  V30 23 1 27 13
M  V30 24 1 29 7
M  V30 25 1 29 28
M  V30 26 1 31 2
M  V30 27 1 31 9
M  V30 28 1 31 27
M  V30 29 1 32 7
M  V30 30 1 32 16
M  V30 31 1 32 30
M  V30 32 1 33 13
M  V30 33 1 33 15
M  V30 34 1 33 25
M  V30 35 1 34 5
M  V30 36 1 34 7
M  V30 37 1 2 35 CFG=3
M  V30 38 1 36 3
M  V30 39 1 37 5
M  V30 40 1 38 5
M  V30 41 1 7 39 CFG=3
M  V30 42 1 8 40 CFG=1
M  V30 43 1 41 9
M  V30 44 1 10 42 CFG=3
M  V30 45 1 43 11
M  V30 46 1 44 12
M  V30 47 1 45 12
M  V30 48 1 46 12
M  V30 49 1 13 47 CFG=1
M  V30 50 1 48 14
M  V30 51 1 49 14
M  V30 52 1 50 14
M  V30 53 1 51 15
M  V30 54 1 52 16
M  V30 55 1 53 16
M  V30 56 1 54 17
M  V30 57 1 55 17
M  V30 58 1 56 17
M  V30 59 1 57 18
M  V30 60 1 58 18
M  V30 61 1 19 59 CFG=1
M  V30 62 1 60 20
M  V30 63 1 61 20
M  V30 64 1 62 22
M  V30 65 1 63 22
M  V30 66 1 64 23
M  V30 67 1 65 23
M  V30 68 1 66 23
M  V30 69 1 67 26
M  V30 70 1 68 26
M  V30 71 1 69 27
M  V30 72 1 70 27
M  V30 73 1 71 28
M  V30 74 1 72 28
M  V30 75 1 73 28
M  V30 76 1 74 30
M  V30 77 1 32 75 CFG=1
M  V30 78 1 76 34
M  V30 79 1 77 34
M  V30 80 1 78 15
M  V30 81 1 79 6
M  V30 82 1 31 80 CFG=1
M  V30 END BOND
M  V30 END CTAB
M  END
>  <i_epik_Tot_Q>  (1) 
3

>  <i_epik_Tot_abs_Q>  (1) 
3

>  <i_i_glide_confnum>  (1) 
1468

>  <i_i_glide_lignum>  (1) 
15

>  <i_i_glide_posenum>  (1) 
333

>  <i_i_glide_rotatable_bonds>  (1) 
13

>  <i_lp_mmshare_version>  (1) 
72125

>  <i_m_source_file_index>  (1) 
6

>  <i_f3d_flags>  (1) 
0

>  <num_sample>  (1) 
50

>  <b_lp_Chiralities_Consistent>  (1) 
1

>  <r_epik_Charging_Adjusted_Penalty>  (1) 
0.16301919670703535

>  <r_epik_Ionization_Penalty>  (1) 
0.082191666583868089

>  <r_epik_Ionization_Penalty_Charging>  (1) 
0.082191230012028396

>  <r_epik_Ionization_Penalty_Neutral>  (1) 
4.3657183969654913e-07

>  <r_epik_State_Penalty>  (1) 
0.080827966695006942

>  <r_glide_ring_energy>  (1) 
0

>  <r_i_docking_score>  (1) 
-5.0079021775774253

>  <r_i_glide_ecoul>  (1) 
-6.3694321741109041

>  <r_i_glide_eff_state_penalty>  (1) 
0.080827966695006942

>  <r_i_glide_einternal>  (1) 
24.047794171669032

>  <r_i_glide_emodel>  (1) 
-51.380964833748934

>  <r_i_glide_emodel_strain>  (1) 
3.25733356694289

>  <r_i_glide_energy>  (1) 
-47.815924294548068

>  <r_i_glide_erotb>  (1) 
0.63983490757673345

>  <r_i_glide_esite>  (1) 
-0.081970338861581254

>  <r_i_glide_evdw>  (1) 
-41.446492120437163

>  <r_i_glide_gscore>  (1) 
-5.0887301442724322

>  <r_i_glide_gscore_strain>  (1) 
0

>  <r_i_glide_hbond>  (1) 
0

>  <r_i_glide_ligand_efficiency>  (1) 
-0.14729124051698309

>  <r_i_glide_ligand_efficiency_ln>  (1) 
-1.1063860579250033

>  <r_i_glide_ligand_efficiency_sa>  (1) 
-0.47716644100361871

>  <r_i_glide_lipo>  (1) 
-3.2911365786756348

>  <r_i_glide_metal>  (1) 
-0

>  <r_i_glide_rewards>  (1) 
0.67228129782654578

>  <r_lp_Energy>  (1) 
42.756794999999997

>  <s_epik_Chemistry_Notes>  (1) 
This compound has an imine and may undergo hydrolysis. This compound has a N-S or N-O group and may undergo hydrolysis at high or low pH.

>  <s_epik_cmdline>  (1) 
J2VwaWtfcHl0aG9uJywgJy1waHQnLCAnMS4wJywgJy1waCcsICc3LjQnLCAnLXRuJywgJzgnLCAnLW1hJywgJzUwMCcsICctaW1hZScsICc8aW5maWxlLm1hZT4nLCAnLW9tYWUnLCAnPG91dGZpbGUubWFlPic=

>  <s_epik_input>  (1) 
RltDSDJdW0NASF0xW0NIMl1bTkhdTihTMSlbQ0BASF0oW0NIMl1OMltDSF0oW0NIM10pW0NIM10pW0NIMl1bQ0BASF0oW0NASF0yW0NIM10pQzM9TltDQEhdKFtDSDJdW05IXTMpW0NIMl1bQ0gyXVtDQEBIXShPW0NIM10pW0NAQEhdKFtPSF0pW0NIMl1bTkhdQyg9TylbQ0gzXQ==

>  <s_glide_docking_method>  (1) 
confgen

>  <s_i_glide_gridfile>  (1) 
gpcr_5ht2c_6bqh_protein_autoprepared_prepared

>  <s_lp_Force_Field>  (1) 
S-OPLS

>  <s_lp_Variant>  (1) 
DiffSBDD_5_num_sample_50-2

>  <s_m_source_file>  (1) 
generated__ligand_DiffSBDD_2026-05-06_prepared.sdf

>  <GenAI_Model>  (1) 
DiffSBDD

>  <Protein>  (1) 
GPCR_5HT2C

$$$$
DiffSBDD_27_num_sample_50
     RDKit          3D

  0  0  0  0  0  0  0  0  0  0999 V3000
M  V30 BEGIN CTAB
M  V30 COUNTS 64 66 0 0 1
M  V30 BEGIN ATOM
M  V30 1 C 38.554081 33.490304 61.462865 0
M  V30 2 C 41.746632 32.932524 64.251908 0
M  V30 3 C 41.326159 36.201190 61.433683 0
M  V30 4 C 41.786109 31.919053 65.228573 0
M  V30 5 O 37.775804 36.791377 61.857983 0
M  V30 6 C 40.477465 31.485960 62.776619 0
M  V30 7 N 41.797563 29.877442 67.162105 0
M  V30 8 C 36.169354 33.536698 60.641831 0 CFG=1
M  V30 9 C 38.046935 29.824246 55.711892 0
M  V30 10 C 37.859630 32.962035 57.653269 0
M  V30 11 C 40.508979 30.456396 63.739437 0
M  V30 12 C 39.469568 32.433548 55.841991 0
M  V30 13 C 41.160504 30.668979 64.977326 0
M  V30 14 C 39.832145 29.214093 58.692251 0
M  V30 15 O 41.018439 33.678101 62.089347 0
M  V30 16 C 35.966350 33.670109 59.117606 0
M  V30 17 C 39.799021 31.282597 61.456214 0
M  V30 18 N 38.638595 32.149859 61.208270 0 CHG=1
M  V30 19 C 39.519488 31.467378 54.641410 0
M  V30 20 C 38.469432 32.041373 56.932025 0
M  V30 21 O 40.668734 28.476998 65.803973 0
M  V30 22 C 41.185323 29.570345 66.017439 0
M  V30 23 C 41.083901 32.705624 63.032308 0
M  V30 24 C 37.184801 33.926917 58.248842 0
M  V30 25 C 38.226034 30.673829 54.466693 0
M  V30 26 O 36.204048 31.095156 60.410072 0
M  V30 27 C 38.987024 36.766262 62.068434 0
M  V30 28 C 35.777342 32.164827 61.236623 0
M  V30 29 C 39.731383 34.285031 62.067880 0 CFG=1
M  V30 30 O 37.868253 28.609516 55.633215 0
M  V30 31 C 38.125783 30.543795 57.074110 0 CFG=2
M  V30 32 C 39.056086 29.833161 57.979265 0
M  V30 33 N 37.401181 34.150988 61.192220 0
M  V30 34 C 39.875824 35.694709 61.417959 0 CFG=2
M  V30 35 H 42.221081 33.884591 64.440524 0
M  V30 36 H 41.413067 37.224573 61.075493 0
M  V30 37 H 41.771096 36.158469 62.428805 0
M  V30 38 H 41.944035 35.607518 60.761974 0
M  V30 39 H 42.292587 32.101905 66.162950 0
M  V30 40 H 41.844815 29.193779 67.902998 0
M  V30 41 H 42.206236 30.789651 67.285997 0
M  V30 42 H 35.417060 34.202284 61.068228 0
M  V30 43 H 40.034245 29.507877 63.531475 0
M  V30 44 H 40.465246 32.568882 56.254119 0
M  V30 45 H 39.184342 33.416183 55.461248 0
M  V30 46 H 40.515104 28.664276 59.302496 0
M  V30 47 H 35.289629 34.507768 58.942432 0
M  V30 48 H 35.414219 32.821487 58.726428 0
M  V30 49 H 39.456929 30.249350 61.391552 0
M  V30 50 H 40.524992 31.433293 60.656084 0
M  V30 51 H 40.352977 30.774491 54.770279 0
M  V30 52 H 39.736913 32.006156 53.723844 0
M  V30 53 H 37.467259 34.959671 58.127921 0
M  V30 54 H 38.278162 30.028222 53.588866 0
M  V30 55 H 37.370887 31.339430 54.342975 0
M  V30 56 H 35.793468 31.185485 59.556655 0
M  V30 57 H 39.501597 37.482171 62.710337 0
M  V30 58 H 36.206867 32.028536 62.231385 0
M  V30 59 H 34.695025 32.112705 61.349324 0
M  V30 60 H 39.464423 34.456410 63.113227 0
M  V30 61 H 37.137914 30.462519 57.530433 0
M  V30 62 H 37.363895 35.150344 61.386693 0
M  V30 63 H 39.568860 35.612092 60.374686 0
M  V30 64 H 37.818118 31.692298 60.811845 0
M  V30 END ATOM
M  V30 BEGIN BOND
M  V30 1 2 4 2
M  V30 2 1 11 6
M  V30 3 1 13 4
M  V30 4 2 13 11
M  V30 5 1 16 8
M  V30 6 1 17 6
M  V30 7 2 18 1
M  V30 8 1 18 17
M  V30 9 1 19 12
M  V30 10 2 20 10
M  V30 11 1 20 12
M  V30 12 1 22 7
M  V30 13 1 22 13
M  V30 14 2 22 21
M  V30 15 1 23 2
M  V30 16 2 23 6
M  V30 17 1 23 15
M  V30 18 2 24 10
M  V30 19 1 24 16
M  V30 20 1 25 9
M  V30 21 1 25 19
M  V30 22 2 27 5
M  V30 23 1 28 8
M  V30 24 1 28 26
M  V30 25 1 29 1
M  V30 26 1 29 15
M  V30 27 2 30 9
M  V30 28 1 31 9
M  V30 29 1 31 20
M  V30 30 3 32 14
M  V30 31 1 32 31
M  V30 32 1 33 1
M  V30 33 1 33 8
M  V30 34 1 34 3
M  V30 35 1 34 27
M  V30 36 1 34 29
M  V30 37 1 35 2
M  V30 38 1 36 3
M  V30 39 1 37 3
M  V30 40 1 38 3
M  V30 41 1 39 4
M  V30 42 1 40 7
M  V30 43 1 41 7
M  V30 44 1 8 42 CFG=1
M  V30 45 1 43 11
M  V30 46 1 44 12
M  V30 47 1 45 12
M  V30 48 1 46 14
M  V30 49 1 47 16
M  V30 50 1 48 16
M  V30 51 1 49 17
M  V30 52 1 50 17
M  V30 53 1 51 19
M  V30 54 1 52 19
M  V30 55 1 53 24
M  V30 56 1 54 25
M  V30 57 1 55 25
M  V30 58 1 56 26
M  V30 59 1 57 27
M  V30 60 1 58 28
M  V30 61 1 59 28
M  V30 62 1 29 60 CFG=1
M  V30 63 1 31 61 CFG=1
M  V30 64 1 62 33
M  V30 65 1 34 63 CFG=3
M  V30 66 1 64 18
M  V30 END BOND
M  V30 END CTAB
M  END
>  <i_epik_Tot_Q>  (1) 
1

>  <i_epik_Tot_abs_Q>  (1) 
1

>  <i_i_glide_confnum>  (1) 
256

>  <i_i_glide_lignum>  (1) 
70

>  <i_i_glide_posenum>  (1) 
155

>  <i_i_glide_rotatable_bonds>  (1) 
10

>  <i_lp_mmshare_version>  (1) 
72125

>  <i_m_source_file_index>  (1) 
28

>  <i_f3d_flags>  (1) 
0

>  <num_sample>  (1) 
50

>  <b_lp_Chiralities_Consistent>  (1) 
1

>  <r_epik_Charging_Adjusted_Penalty>  (1) 
0.046741104871076994

>  <r_epik_Ionization_Penalty>  (1) 
0.019812372092419556

>  <r_epik_Ionization_Penalty_Charging>  (1) 
0.019701646860550703

>  <r_epik_Ionization_Penalty_Neutral>  (1) 
0.00011072523186885321

>  <r_epik_State_Penalty>  (1) 
0.027039458010526287

>  <r_glide_ring_energy>  (1) 
1.1279086995901264

>  <r_i_docking_score>  (1) 
-4.9967368448358025

>  <r_i_glide_ecoul>  (1) 
-2.0595729294178868

>  <r_i_glide_eff_state_penalty>  (1) 
0.027039458010526287

>  <r_i_glide_einternal>  (1) 
17.467442113256602

>  <r_i_glide_emodel>  (1) 
-44.664134238775326

>  <r_i_glide_emodel_strain>  (1) 
4.2235738725497569

>  <r_i_glide_energy>  (1) 
-43.099119075893036

>  <r_i_glide_erotb>  (1) 
0.65393697564197784

>  <r_i_glide_esite>  (1) 
-0.02493707406643951

>  <r_i_glide_evdw>  (1) 
-41.039546146475146

>  <r_i_glide_gscore>  (1) 
-5.0237763028463291

>  <r_i_glide_gscore_strain>  (1) 
0.055893468137439228

>  <r_i_glide_hbond>  (1) 
0

>  <r_i_glide_ligand_efficiency>  (1) 
-0.1469628483775236

>  <r_i_glide_ligand_efficiency_ln>  (1) 
-1.1039193227454036

>  <r_i_glide_ligand_efficiency_sa>  (1) 
-0.47610257795317895

>  <r_i_glide_lipo>  (1) 
-2.0263602069369213

>  <r_i_glide_metal>  (1) 
-0

>  <r_i_glide_rewards>  (1) 
-1.3213962188859445

>  <r_lp_Energy>  (1) 
12.568142999999999

>  <r_lp_tautomer_probability>  (1) 
0.99985000999950013

>  <s_epik_Chemistry_Notes>  (1) 
This compound has an imine and may undergo hydrolysis.

>  <s_epik_cmdline>  (1) 
J2VwaWtfcHl0aG9uJywgJy1waHQnLCAnMS4wJywgJy1waCcsICc3LjQnLCAnLXRuJywgJzgnLCAnLW1hJywgJzUwMCcsICctaW1hZScsICc8aW5maWxlLm1hZT4nLCAnLW9tYWUnLCAnPG91dGZpbGUubWFlPic=

>  <s_epik_input>  (1) 
W05IMl1DKD1PKWMoW2NIXTEpW2NIXVtjSF1jKGMxMilPW0NAQEhdKFtDQEhdKFtDSDNdKVtDSF09TylDKD1OW0NIMl0yKVtOSF1bQ0BIXShbQ0gyXVtPSF0pW0NIMl1bQ0hdPUM9QyhbQ0BASF0zQyNbQ0hdKVtDSDJdW0NIMl1bQ0gyXUMzPU8=

>  <s_glide_docking_method>  (1) 
confgen

>  <s_i_glide_gridfile>  (1) 
gpcr_5ht2c_6bqh_protein_autoprepared_prepared

>  <s_lp_Force_Field>  (1) 
S-OPLS

>  <s_lp_Variant>  (1) 
DiffSBDD_27_num_sample_50-1

>  <s_m_source_file>  (1) 
generated__ligand_DiffSBDD_2026-05-06_prepared.sdf

>  <GenAI_Model>  (1) 
DiffSBDD

>  <Protein>  (1) 
GPCR_5HT2C

$$$$
DiffSBDD_5_num_sample_50
     RDKit          3D

  0  0  0  0  0  0  0  0  0  0999 V3000
M  V30 BEGIN CTAB
M  V30 COUNTS 80 82 0 0 1
M  V30 BEGIN ATOM
M  V30 1 C 36.747058 32.338880 59.484089 0
M  V30 2 C 37.879031 32.227556 57.260584 0 CFG=2
M  V30 3 N 40.521996 35.621285 65.283346 0
M  V30 4 F 39.467380 24.421417 56.436310 0
M  V30 5 C 36.903603 35.312678 61.119981 0
M  V30 6 N 37.358527 32.951603 60.442941 0 CHG=1
M  V30 7 C 39.218459 35.357449 62.380633 0 CFG=1
M  V30 8 C 38.372261 26.313161 56.755215 0 CFG=2
M  V30 9 C 38.796353 31.959302 54.898700 0
M  V30 10 C 36.483791 33.834724 61.234601 0 CFG=2
M  V30 11 N 35.486285 32.616045 59.453508 0
M  V30 12 C 37.647437 32.777309 54.327670 0
M  V30 13 C 39.251835 29.777206 58.053099 0 CFG=2
M  V30 14 C 39.255132 30.946563 53.826289 0
M  V30 15 N 38.667618 27.588588 58.792025 0 CHG=1
M  V30 16 C 40.251246 36.733057 64.384834 0
M  V30 17 C 38.735641 33.434592 57.605160 0
M  V30 18 C 35.058609 33.556250 60.499607 0
M  V30 19 C 37.417677 31.421845 58.506578 0 CFG=1
M  V30 20 C 39.073172 26.354234 58.120189 0
M  V30 21 O 40.549981 36.866430 67.177555 0
M  V30 22 C 39.127978 25.480016 55.743627 0
M  V30 23 C 40.930957 34.519536 67.424664 0
M  V30 24 C 40.650319 35.777611 66.614038 0
M  V30 25 S 38.267399 27.995358 56.193951 0
M  V30 26 C 38.586548 30.650424 59.134290 0
M  V30 27 C 39.568093 30.555290 56.759332 0
M  V30 28 C 41.282197 35.833852 61.220197 0
M  V30 29 O 40.554496 34.963724 62.072060 0
M  V30 30 O 37.908645 36.821452 63.876207 0
M  V30 31 N 38.435944 31.321449 56.205855 0 CFG=1 CHG=1
M  V30 32 C 39.176800 36.603667 63.297029 0 CFG=2
M  V30 33 N 38.413236 28.615139 57.787573 0
M  V30 34 C 38.419157 35.571762 61.074632 0
M  V30 35 H 37.067413 32.766259 56.828171 0
M  V30 36 H 40.619445 34.700312 64.881520 0
M  V30 37 H 36.449270 35.879174 61.930635 0
M  V30 38 H 36.480572 35.727057 60.204174 0
M  V30 39 H 38.834526 34.494548 62.906584 0
M  V30 40 H 37.358476 25.930409 56.883703 0
M  V30 41 H 39.625222 32.637735 55.079283 0
M  V30 42 H 36.480752 33.476236 62.253606 0
M  V30 43 H 34.851971 32.262570 58.741599 0
M  V30 44 H 37.867398 33.169427 53.344109 0
M  V30 45 H 36.743101 32.172237 54.253568 0
M  V30 46 H 37.467362 33.661883 54.929105 0
M  V30 47 H 40.210518 29.423097 58.437612 0
M  V30 48 H 39.355749 31.432419 52.856042 0
M  V30 49 H 40.240560 30.530077 54.032426 0
M  V30 50 H 38.544709 30.127440 53.711368 0
M  V30 51 H 39.395741 27.919836 59.407976 0
M  V30 52 H 41.191392 36.821416 63.853388 0
M  V30 53 H 40.011330 37.639260 64.935823 0
M  V30 54 H 38.190086 34.070718 58.293695 0
M  V30 55 H 39.703250 33.217041 58.048756 0
M  V30 56 H 38.871091 34.021400 56.702994 0
M  V30 57 H 34.310219 33.136916 61.170047 0
M  V30 58 H 34.651376 34.434746 60.008701 0
M  V30 59 H 36.669363 30.686106 58.210506 0
M  V30 60 H 38.831106 25.487123 58.729387 0
M  V30 61 H 40.157790 26.378438 57.994045 0
M  V30 62 H 38.518350 25.167204 54.894186 0
M  V30 63 H 40.047570 25.946719 55.386873 0
M  V30 64 H 40.024750 33.924598 67.505344 0
M  V30 65 H 41.719117 33.920139 66.968180 0
M  V30 66 H 41.237788 34.779081 68.437040 0
M  V30 67 H 39.315661 31.343358 59.552606 0
M  V30 68 H 38.232665 30.051190 59.974725 0
M  V30 69 H 40.267392 31.329519 56.967747 0
M  V30 70 H 40.072897 29.910844 56.045340 0
M  V30 71 H 42.267403 35.423890 61.034114 0
M  V30 72 H 40.801548 35.940589 60.253539 0
M  V30 73 H 41.414975 36.823765 61.646883 0
M  V30 74 H 37.287878 37.035183 63.197159 0
M  V30 75 H 39.334208 37.477914 62.664446 0
M  V30 76 H 38.578605 36.591082 60.722573 0
M  V30 77 H 38.849259 34.953324 60.291599 0
M  V30 78 H 37.800690 27.453212 59.292672 0
M  V30 79 H 38.347981 32.865710 60.629088 0
M  V30 80 H 37.695173 30.665070 55.999483 0
M  V30 END ATOM
M  V30 BEGIN BOND
M  V30 1 2 6 1
M  V30 2 1 10 5
M  V30 3 1 10 6
M  V30 4 1 11 1
M  V30 5 1 12 9
M  V30 6 1 14 9
M  V30 7 1 16 3
M  V30 8 1 17 2
M  V30 9 1 18 10
M  V30 10 1 18 11
M  V30 11 1 19 1
M  V30 12 1 19 2
M  V30 13 1 20 8
M  V30 14 1 20 15
M  V30 15 1 22 4
M  V30 16 1 22 8
M  V30 17 1 24 3
M  V30 18 2 24 21
M  V30 19 1 24 23
M  V30 20 1 25 8
M  V30 21 1 26 13
M  V30 22 1 26 19
M  V30 23 1 27 13
M  V30 24 1 29 7
M  V30 25 1 29 28
M  V30 26 1 31 2
M  V30 27 1 31 9
M  V30 28 1 31 27
M  V30 29 1 32 7
M  V30 30 1 32 16
M  V30 31 1 32 30
M  V30 32 1 33 13
M  V30 33 1 33 15
M  V30 34 1 33 25
M  V30 35 1 34 5
M  V30 36 1 34 7
M  V30 37 1 2 35 CFG=3
M  V30 38 1 36 3
M  V30 39 1 37 5
M  V30 40 1 38 5
M  V30 41 1 7 39 CFG=1
M  V30 42 1 8 40 CFG=1
M  V30 43 1 41 9
M  V30 44 1 10 42 CFG=1
M  V30 45 1 43 11
M  V30 46 1 44 12
M  V30 47 1 45 12
M  V30 48 1 46 12
M  V30 49 1 13 47 CFG=1
M  V30 50 1 48 14
M  V30 51 1 49 14
M  V30 52 1 50 14
M  V30 53 1 51 15
M  V30 54 1 52 16
M  V30 55 1 53 16
M  V30 56 1 54 17
M  V30 57 1 55 17
M  V30 58 1 56 17
M  V30 59 1 57 18
M  V30 60 1 58 18
M  V30 61 1 19 59 CFG=3
M  V30 62 1 60 20
M  V30 63 1 61 20
M  V30 64 1 62 22
M  V30 65 1 63 22
M  V30 66 1 64 23
M  V30 67 1 65 23
M  V30 68 1 66 23
M  V30 69 1 67 26
M  V30 70 1 68 26
M  V30 71 1 69 27
M  V30 72 1 70 27
M  V30 73 1 71 28
M  V30 74 1 72 28
M  V30 75 1 73 28
M  V30 76 1 74 30
M  V30 77 1 32 75 CFG=3
M  V30 78 1 76 34
M  V30 79 1 77 34
M  V30 80 1 78 15
M  V30 81 1 79 6
M  V30 82 1 31 80 CFG=3
M  V30 END BOND
M  V30 END CTAB
M  END
>  <i_epik_Tot_Q>  (1) 
3

>  <i_epik_Tot_abs_Q>  (1) 
3

>  <i_i_glide_confnum>  (1) 
22

>  <i_i_glide_lignum>  (1) 
16

>  <i_i_glide_posenum>  (1) 
296

>  <i_i_glide_rotatable_bonds>  (1) 
13

>  <i_lp_mmshare_version>  (1) 
72125

>  <i_m_source_file_index>  (1) 
6

>  <i_f3d_flags>  (1) 
0

>  <num_sample>  (1) 
50

>  <b_lp_Chiralities_Consistent>  (1) 
1

>  <r_epik_Charging_Adjusted_Penalty>  (1) 
0.16301919670703535

>  <r_epik_Ionization_Penalty>  (1) 
0.082191666583868089

>  <r_epik_Ionization_Penalty_Charging>  (1) 
0.082191230012028396

>  <r_epik_Ionization_Penalty_Neutral>  (1) 
4.3657183969654913e-07

>  <r_epik_State_Penalty>  (1) 
0.080827966695006942

>  <r_glide_ring_energy>  (1) 
0

>  <r_i_docking_score>  (1) 
-4.9878231189734725

>  <r_i_glide_ecoul>  (1) 
-3.6974062877274889

>  <r_i_glide_eff_state_penalty>  (1) 
0.080827966695006942

>  <r_i_glide_einternal>  (1) 
10.967033633595378

>  <r_i_glide_emodel>  (1) 
-30.083463787036578

>  <r_i_glide_emodel_strain>  (1) 
2.8947072017402462

>  <r_i_glide_energy>  (1) 
-21.173370475419858

>  <r_i_glide_erotb>  (1) 
0.63983490757673345

>  <r_i_glide_esite>  (1) 
-0.27821237448360353

>  <r_i_glide_evdw>  (1) 
-17.475964187692369

>  <r_i_glide_gscore>  (1) 
-5.0686510856684794

>  <r_i_glide_gscore_strain>  (1) 
0

>  <r_i_glide_hbond>  (1) 
-0.10881393428260799

>  <r_i_glide_ligand_efficiency>  (1) 
-0.14670067996980801

>  <r_i_glide_ligand_efficiency_ln>  (1) 
-1.1019500306808732

>  <r_i_glide_ligand_efficiency_sa>  (1) 
-0.47525325408562141

>  <r_i_glide_lipo>  (1) 
-2.7928865389294062

>  <r_i_glide_metal>  (1) 
-0

>  <r_i_glide_rewards>  (1) 
-1.1001639930058527

>  <r_lp_Energy>  (1) 
52.952152999999996

>  <s_epik_Chemistry_Notes>  (1) 
This compound has an imine and may undergo hydrolysis. This compound has a N-S or N-O group and may undergo hydrolysis at high or low pH.

>  <s_epik_cmdline>  (1) 
J2VwaWtfcHl0aG9uJywgJy1waHQnLCAnMS4wJywgJy1waCcsICc3LjQnLCAnLXRuJywgJzgnLCAnLW1hJywgJzUwMCcsICctaW1hZScsICc8aW5maWxlLm1hZT4nLCAnLW9tYWUnLCAnPG91dGZpbGUubWFlPic=

>  <s_epik_input>  (1) 
RltDSDJdW0NASF0xW0NIMl1bTkhdTihTMSlbQ0BASF0oW0NIMl1OMltDSF0oW0NIM10pW0NIM10pW0NIMl1bQ0BASF0oW0NASF0yW0NIM10pQzM9TltDQEhdKFtDSDJdW05IXTMpW0NIMl1bQ0gyXVtDQEBIXShPW0NIM10pW0NAQEhdKFtPSF0pW0NIMl1bTkhdQyg9TylbQ0gzXQ==

>  <s_glide_docking_method>  (1) 
confgen

>  <s_i_glide_gridfile>  (1) 
gpcr_5ht2c_6bqh_protein_autoprepared_prepared

>  <s_lp_Force_Field>  (1) 
S-OPLS

>  <s_lp_Variant>  (1) 
DiffSBDD_5_num_sample_50-3

>  <s_m_source_file>  (1) 
generated__ligand_DiffSBDD_2026-05-06_prepared.sdf

>  <GenAI_Model>  (1) 
DiffSBDD

>  <Protein>  (1) 
GPCR_5HT2C

$$$$
DiffSBDD_5_num_sample_50
     RDKit          3D

  0  0  0  0  0  0  0  0  0  0999 V3000
M  V30 BEGIN CTAB
M  V30 COUNTS 79 81 0 0 1
M  V30 BEGIN ATOM
M  V30 1 C 39.504771 35.213848 61.387912 0
M  V30 2 C 37.221393 34.341385 61.031704 0 CFG=2
M  V30 3 N 40.953089 30.003842 65.790582 0
M  V30 4 F 38.966379 29.790151 53.373564 0
M  V30 5 C 40.899396 34.442601 64.443624 0
M  V30 6 N 39.338787 35.006109 62.653652 0 CHG=1
M  V30 7 C 42.797761 33.462721 65.910296 0 CFG=1
M  V30 8 C 38.465580 31.349022 55.072680 0 CFG=2
M  V30 9 C 35.030462 33.258071 60.752061 0
M  V30 10 C 40.389662 35.556205 63.513108 0 CFG=2
M  V30 11 N 40.596722 35.847814 61.147566 0
M  V30 12 C 35.238642 31.908762 61.476493 0
M  V30 13 C 38.029767 33.186407 58.447958 0 CFG=2
M  V30 14 C 33.873618 33.218663 59.730324 0
M  V30 15 N 37.866484 30.977618 57.372410 0 CHG=1
M  V30 16 C 41.136855 31.426589 66.079763 0
M  V30 17 C 36.637155 35.627224 61.646439 0
M  V30 18 C 41.355383 36.160735 62.367424 0
M  V30 19 C 38.527328 34.771521 60.329920 0 CFG=2
M  V30 20 C 38.271590 30.276687 56.147850 0
M  V30 21 O 41.758213 29.273248 67.774136 0
M  V30 22 C 39.407746 30.912653 53.940231 0
M  V30 23 C 41.035124 27.601816 66.223884 0
M  V30 24 C 41.278977 29.038785 66.666495 0
M  V30 25 S 39.066152 32.820775 55.946964 0
M  V30 26 C 39.109558 33.666875 59.429760 0
M  V30 27 C 36.867279 32.661509 59.300741 0
M  V30 28 C 42.854460 33.323084 68.309437 0
M  V30 29 O 42.217758 33.862272 67.152092 0
M  V30 30 O 43.576546 31.201782 66.043285 0
M  V30 31 N 36.260581 33.736195 60.094459 0
M  V30 32 C 42.496300 31.975269 65.558509 0 CFG=2
M  V30 33 N 38.613740 32.230287 57.490763 0
M  V30 34 C 42.382384 34.478138 64.818231 0
M  V30 35 H 37.451054 33.610688 61.807470 0
M  V30 36 H 40.559876 29.746400 64.896842 0
M  V30 37 H 40.663318 33.472583 64.005830 0
M  V30 38 H 40.317243 34.518339 65.365783 0
M  V30 39 H 43.879867 33.584452 65.981011 0
M  V30 40 H 37.488905 31.604370 54.658569 0
M  V30 41 H 34.709127 33.983083 61.495961 0
M  V30 42 H 39.984322 36.377069 64.107964 0
M  V30 43 H 40.905172 36.127257 60.226612 0
M  V30 44 H 34.494276 31.773384 62.253845 0
M  V30 45 H 35.159475 31.066157 60.791444 0
M  V30 46 H 36.204389 31.828126 61.974682 0
M  V30 47 H 37.652772 34.034537 57.869500 0
M  V30 48 H 32.908655 33.221479 60.237181 0
M  V30 49 H 33.881108 34.086527 59.067421 0
M  V30 50 H 33.909371 32.325884 59.107594 0
M  V30 51 H 38.012593 30.428510 58.206316 0
M  V30 52 H 41.012345 31.607954 67.145497 0
M  V30 53 H 40.308944 31.953411 65.610489 0
M  V30 54 H 37.349492 36.259888 62.166390 0
M  V30 55 H 36.267637 36.268891 60.848420 0
M  V30 56 H 35.868772 35.418228 62.385741 0
M  V30 57 H 41.526765 37.221037 62.498783 0
M  V30 58 H 42.267482 35.621410 62.343336 0
M  V30 59 H 38.267433 35.646441 59.736300 0
M  V30 60 H 37.528417 29.532554 55.857533 0
M  V30 61 H 39.209310 29.753526 56.345640 0
M  V30 62 H 39.466899 31.658992 53.150240 0
M  V30 63 H 40.418468 30.723244 54.299820 0
M  V30 64 H 40.388224 27.550004 65.348579 0
M  V30 65 H 41.982739 27.119375 65.990135 0
M  V30 66 H 40.569521 27.036226 67.029792 0
M  V30 67 H 39.962000 34.021347 58.867582 0
M  V30 68 H 39.469781 32.848721 60.051638 0
M  V30 69 H 36.101327 32.260219 58.653502 0
M  V30 70 H 37.226817 31.848375 59.931816 0
M  V30 71 H 42.480604 33.822830 69.202906 0
M  V30 72 H 42.666267 32.258247 68.434322 0
M  V30 73 H 43.933722 33.461590 68.276988 0
M  V30 74 H 43.314207 30.293107 66.050921 0
M  V30 75 H 42.524998 31.857167 64.474528 0
M  V30 76 H 42.662848 35.485060 65.127960 0
M  V30 77 H 42.953708 34.267586 63.918775 0
M  V30 78 H 36.883064 31.254817 57.275744 0
M  V30 79 H 38.530389 34.545332 63.039781 0
M  V30 END ATOM
M  V30 BEGIN BOND
M  V30 1 2 6 1
M  V30 2 1 10 5
M  V30 3 1 10 6
M  V30 4 1 11 1
M  V30 5 1 12 9
M  V30 6 1 14 9
M  V30 7 1 16 3
M  V30 8 1 17 2
M  V30 9 1 18 10
M  V30 10 1 18 11
M  V30 11 1 19 1
M  V30 12 1 19 2
M  V30 13 1 20 8
M  V30 14 1 20 15
M  V30 15 1 22 4
M  V30 16 1 22 8
M  V30 17 1 24 3
M  V30 18 2 24 21
M  V30 19 1 24 23
M  V30 20 1 25 8
M  V30 21 1 26 13
M  V30 22 1 26 19
M  V30 23 1 27 13
M  V30 24 1 29 7
M  V30 25 1 29 28
M  V30 26 1 31 2
M  V30 27 1 31 9
M  V30 28 1 31 27
M  V30 29 1 32 7
M  V30 30 1 32 16
M  V30 31 1 32 30
M  V30 32 1 33 13
M  V30 33 1 33 15
M  V30 34 1 33 25
M  V30 35 1 34 5
M  V30 36 1 34 7
M  V30 37 1 2 35 CFG=1
M  V30 38 1 36 3
M  V30 39 1 37 5
M  V30 40 1 38 5
M  V30 41 1 7 39 CFG=1
M  V30 42 1 8 40 CFG=3
M  V30 43 1 41 9
M  V30 44 1 10 42 CFG=1
M  V30 45 1 43 11
M  V30 46 1 44 12
M  V30 47 1 45 12
M  V30 48 1 46 12
M  V30 49 1 13 47 CFG=3
M  V30 50 1 48 14
M  V30 51 1 49 14
M  V30 52 1 50 14
M  V30 53 1 51 15
M  V30 54 1 52 16
M  V30 55 1 53 16
M  V30 56 1 54 17
M  V30 57 1 55 17
M  V30 58 1 56 17
M  V30 59 1 57 18
M  V30 60 1 58 18
M  V30 61 1 19 59 CFG=3
M  V30 62 1 60 20
M  V30 63 1 61 20
M  V30 64 1 62 22
M  V30 65 1 63 22
M  V30 66 1 64 23
M  V30 67 1 65 23
M  V30 68 1 66 23
M  V30 69 1 67 26
M  V30 70 1 68 26
M  V30 71 1 69 27
M  V30 72 1 70 27
M  V30 73 1 71 28
M  V30 74 1 72 28
M  V30 75 1 73 28
M  V30 76 1 74 30
M  V30 77 1 32 75 CFG=3
M  V30 78 1 76 34
M  V30 79 1 77 34
M  V30 80 1 78 15
M  V30 81 1 79 6
M  V30 END BOND
M  V30 END CTAB
M  END
>  <i_epik_Tot_Q>  (1) 
2

>  <i_epik_Tot_abs_Q>  (1) 
2

>  <i_i_glide_confnum>  (1) 
1411

>  <i_i_glide_lignum>  (1) 
18

>  <i_i_glide_posenum>  (1) 
330

>  <i_i_glide_rotatable_bonds>  (1) 
13

>  <i_lp_mmshare_version>  (1) 
72125

>  <i_m_source_file_index>  (1) 
6

>  <i_f3d_flags>  (1) 
0

>  <num_sample>  (1) 
50

>  <b_lp_Chiralities_Consistent>  (1) 
1

>  <r_epik_Charging_Adjusted_Penalty>  (1) 
1.2202907703101018

>  <r_epik_Ionization_Penalty>  (1) 
1.220291206888735

>  <r_epik_Ionization_Penalty_Charging>  (1) 
0.00010224848283174563

>  <r_epik_Ionization_Penalty_Neutral>  (1) 
1.2201889584059034

>  <r_epik_State_Penalty>  (1) 
1.2201885218272701

>  <r_glide_ring_energy>  (1) 
0

>  <r_i_docking_score>  (1) 
-4.9740922525632989

>  <r_i_glide_ecoul>  (1) 
-6.5748368781805446

>  <r_i_glide_eff_state_penalty>  (1) 
1.2201885218272701

>  <r_i_glide_einternal>  (1) 
12.161574921945579

>  <r_i_glide_emodel>  (1) 
-53.118550068405099

>  <r_i_glide_emodel_strain>  (1) 
3.6786438966113195

>  <r_i_glide_energy>  (1) 
-41.917317385448442

>  <r_i_glide_erotb>  (1) 
0.64218136225351719

>  <r_i_glide_esite>  (1) 
-0.10000000000000001

>  <r_i_glide_evdw>  (1) 
-35.342480507267901

>  <r_i_glide_gscore>  (1) 
-6.1942807743905686

>  <r_i_glide_gscore_strain>  (1) 
0

>  <r_i_glide_hbond>  (1) 
-0.20000000000000001

>  <r_i_glide_ligand_efficiency>  (1) 
-0.1462968309577441

>  <r_i_glide_ligand_efficiency_ln>  (1) 
-1.0989164971531085

>  <r_i_glide_ligand_efficiency_sa>  (1) 
-0.47394494006020488

>  <r_i_glide_lipo>  (1) 
-2.5772554535923518

>  <r_i_glide_metal>  (1) 
-0

>  <r_i_glide_rewards>  (1) 
-1.2058571259612572

>  <r_lp_Energy>  (1) 
23.621561999999997

>  <s_epik_Chemistry_Notes>  (1) 
This compound has an imine and may undergo hydrolysis. This compound has a N-S or N-O group and may undergo hydrolysis at high or low pH.

>  <s_epik_cmdline>  (1) 
J2VwaWtfcHl0aG9uJywgJy1waHQnLCAnMS4wJywgJy1waCcsICc3LjQnLCAnLXRuJywgJzgnLCAnLW1hJywgJzUwMCcsICctaW1hZScsICc8aW5maWxlLm1hZT4nLCAnLW9tYWUnLCAnPG91dGZpbGUubWFlPic=

>  <s_epik_input>  (1) 
RltDSDJdW0NASF0xW0NIMl1bTkhdTihTMSlbQ0BASF0oW0NIMl1OMltDSF0oW0NIM10pW0NIM10pW0NIMl1bQ0BASF0oW0NASF0yW0NIM10pQzM9TltDQEhdKFtDSDJdW05IXTMpW0NIMl1bQ0gyXVtDQEBIXShPW0NIM10pW0NAQEhdKFtPSF0pW0NIMl1bTkhdQyg9TylbQ0gzXQ==

>  <s_glide_docking_method>  (1) 
confgen

>  <s_i_glide_gridfile>  (1) 
gpcr_5ht2c_6bqh_protein_autoprepared_prepared

>  <s_lp_Force_Field>  (1) 
S-OPLS

>  <s_lp_Variant>  (1) 
DiffSBDD_5_num_sample_50-5

>  <s_m_source_file>  (1) 
generated__ligand_DiffSBDD_2026-05-06_prepared.sdf

>  <GenAI_Model>  (1) 
DiffSBDD

>  <Protein>  (1) 
GPCR_5HT2C

$$$$
DiffSBDD_30_num_sample_50
     RDKit          3D

  0  0  0  0  0  0  0  0  0  0999 V3000
M  V30 BEGIN CTAB
M  V30 COUNTS 68 67 0 0 1
M  V30 BEGIN ATOM
M  V30 1 C 40.192943 30.409037 53.903174 0
M  V30 2 C 38.257534 32.844424 60.179743 0 CFG=2
M  V30 3 C 38.868224 31.899587 61.234726 0
M  V30 4 O 38.989191 36.222987 62.262868 0
M  V30 5 C 36.698707 36.911686 62.526797 0
M  V30 6 C 35.636874 32.638052 60.472582 0
M  V30 7 C 40.570685 30.681478 50.232359 0
M  V30 8 C 38.752229 28.028560 51.081570 0
M  V30 9 C 38.470651 33.198291 57.655879 0
M  V30 10 C 36.911397 33.501096 60.647661 0 CFG=2
M  V30 11 C 39.968831 29.758850 52.513285 0 CFG=1
M  V30 12 C 36.612561 34.887671 60.043509 0
M  V30 13 C 38.795514 28.729978 52.447938 0 CFG=2
M  V30 14 C 39.340906 31.791926 55.850075 0
M  V30 15 C 35.665311 31.363070 61.294510 0
M  V30 16 C 38.235730 32.180603 58.779628 0
M  V30 17 C 37.887369 36.366405 61.737990 0
M  V30 18 C 37.654892 36.005057 60.264629 0 CFG=2
M  V30 19 C 39.027589 31.248304 54.442771 0
M  V30 20 C 38.843358 27.610088 53.527095 0
M  V30 21 O 38.267400 33.800812 55.453525 0
M  V30 22 C 38.111898 27.912281 54.843245 0
M  V30 23 N 38.267448 32.650738 56.324296 0
M  V30 24 C 37.280400 37.237608 59.440698 0
M  V30 25 C 39.973083 30.825666 51.425766 0
M  V30 26 H 41.067383 31.055013 53.854291 0
M  V30 27 H 40.442278 29.650900 54.644534 0
M  V30 28 H 39.001048 33.637765 60.132128 0
M  V30 29 H 38.361862 30.939358 61.294157 0
M  V30 30 H 39.909938 31.685606 60.995738 0
M  V30 31 H 38.858688 32.348977 62.228917 0
M  V30 32 H 36.114897 37.609945 61.927002 0
M  V30 33 H 36.054022 36.094523 62.850439 0
M  V30 34 H 37.046969 37.440350 63.414030 0
M  V30 35 H 34.774234 33.210868 60.817179 0
M  V30 36 H 35.429490 32.417081 59.425945 0
M  V30 37 H 40.546824 31.473587 49.499521 0
M  V30 38 H 41.088767 29.771619 49.975611 0
M  V30 39 H 39.645209 27.427757 50.909750 0
M  V30 40 H 37.891659 27.361055 51.048101 0
M  V30 41 H 38.667389 28.728089 50.253520 0
M  V30 42 H 39.467378 33.621431 57.754786 0
M  V30 43 H 37.772940 34.021279 57.759667 0
M  V30 44 H 37.012253 33.678385 61.718632 0
M  V30 45 H 40.861332 29.202197 52.253497 0
M  V30 46 H 36.380451 34.795355 58.985246 0
M  V30 47 H 35.669992 35.221436 60.462077 0
M  V30 48 H 37.851820 29.258751 52.559233 0
M  V30 49 H 40.278958 32.345849 55.853390 0
M  V30 50 H 39.462377 30.953839 56.536407 0
M  V30 51 H 34.667406 30.959795 61.458085 0
M  V30 52 H 36.262476 30.589868 60.812512 0
M  V30 53 H 36.104286 31.621428 62.253502 0
M  V30 54 H 37.312017 31.628354 58.609765 0
M  V30 55 H 39.025970 31.431775 58.727657 0
M  V30 56 H 38.618570 35.669075 59.890097 0
M  V30 57 H 38.108511 30.666575 54.480825 0
M  V30 58 H 38.826146 32.059622 53.747510 0
M  V30 59 H 38.357951 26.716378 53.132318 0
M  V30 60 H 39.867411 27.296236 53.721951 0
M  V30 61 H 39.116484 34.178831 55.616196 0
M  V30 62 H 38.030131 27.008557 55.447173 0
M  V30 63 H 38.626611 28.649097 55.455484 0
M  V30 64 H 37.100131 28.271855 54.653474 0
M  V30 65 H 37.867426 38.116532 59.705618 0
M  V30 66 H 37.454753 37.021346 58.388430 0
M  V30 67 H 36.226647 37.488246 59.563539 0
M  V30 68 H 39.467415 31.746750 51.650360 0
M  V30 END ATOM
M  V30 BEGIN BOND
M  V30 1 1 3 2
M  V30 2 1 10 2
M  V30 3 1 10 6
M  V30 4 1 11 1
M  V30 5 1 12 10
M  V30 6 1 13 8
M  V30 7 1 13 11
M  V30 8 1 15 6
M  V30 9 1 16 2
M  V30 10 1 16 9
M  V30 11 2 17 4
M  V30 12 1 17 5
M  V30 13 1 18 12
M  V30 14 1 18 17
M  V30 15 1 19 1
M  V30 16 1 19 14
M  V30 17 1 20 13
M  V30 18 1 22 20
M  V30 19 1 23 9
M  V30 20 1 23 14
M  V30 21 1 23 21
M  V30 22 1 24 18
M  V30 23 2 25 7
M  V30 24 1 25 11
M  V30 25 1 26 1
M  V30 26 1 27 1
M  V30 27 1 2 28 CFG=3
M  V30 28 1 29 3
M  V30 29 1 30 3
M  V30 30 1 31 3
M  V30 31 1 32 5
M  V30 32 1 33 5
M  V30 33 1 34 5
M  V30 34 1 35 6
M  V30 35 1 36 6
M  V30 36 1 37 7
M  V30 37 1 38 7
M  V30 38 1 39 8
M  V30 39 1 40 8
M  V30 40 1 41 8
M  V30 41 1 42 9
M  V30 42 1 43 9
M  V30 43 1 10 44 CFG=1
M  V30 44 1 11 45 CFG=3
M  V30 45 1 46 12
M  V30 46 1 47 12
M  V30 47 1 13 48 CFG=1
M  V30 48 1 49 14
M  V30 49 1 50 14
M  V30 50 1 51 15
M  V30 51 1 52 15
M  V30 52 1 53 15
M  V30 53 1 54 16
M  V30 54 1 55 16
M  V30 55 1 18 56 CFG=3
M  V30 56 1 57 19
M  V30 57 1 58 19
M  V30 58 1 59 20
M  V30 59 1 60 20
M  V30 60 1 61 21
M  V30 61 1 62 22
M  V30 62 1 63 22
M  V30 63 1 64 22
M  V30 64 1 65 24
M  V30 65 1 66 24
M  V30 66 1 67 24
M  V30 67 1 68 25
M  V30 END BOND
M  V30 END CTAB
M  END
>  <i_epik_Tot_Q>  (1) 
0

>  <i_epik_Tot_abs_Q>  (1) 
0

>  <i_i_glide_confnum>  (1) 
1726

>  <i_i_glide_lignum>  (1) 
78

>  <i_i_glide_posenum>  (1) 
110

>  <i_i_glide_rotatable_bonds>  (1) 
16

>  <i_lp_mmshare_version>  (1) 
72125

>  <i_m_source_file_index>  (1) 
31

>  <i_f3d_flags>  (1) 
0

>  <num_sample>  (1) 
50

>  <b_lp_Chiralities_Consistent>  (1) 
1

>  <r_epik_Charging_Adjusted_Penalty>  (1) 
0.34658394344942783

>  <r_epik_Ionization_Penalty>  (1) 
0.015417953954219563

>  <r_epik_Ionization_Penalty_Charging>  (1) 
0

>  <r_epik_Ionization_Penalty_Neutral>  (1) 
0.015417953954219563

>  <r_epik_State_Penalty>  (1) 
0.34658394344942783

>  <r_glide_ring_energy>  (1) 
0

>  <r_i_docking_score>  (1) 
-4.9728730148531071

>  <r_i_glide_ecoul>  (1) 
1.7578112496107754

>  <r_i_glide_eff_state_penalty>  (1) 
0.34658394344942783

>  <r_i_glide_einternal>  (1) 
4.4469757885140364

>  <r_i_glide_emodel>  (1) 
-43.586200341907592

>  <r_i_glide_emodel_strain>  (1) 
0.62175769897842059

>  <r_i_glide_energy>  (1) 
-34.056166212123522

>  <r_i_glide_erotb>  (1) 
1.833058027080513

>  <r_i_glide_esite>  (1) 
-0.12265075115999591

>  <r_i_glide_evdw>  (1) 
-35.813977461734297

>  <r_i_glide_gscore>  (1) 
-5.3194569583025348

>  <r_i_glide_gscore_strain>  (1) 
0

>  <r_i_glide_hbond>  (1) 
0

>  <r_i_glide_ligand_efficiency>  (1) 
-0.19891492059412427

>  <r_i_glide_ligand_efficiency_ln>  (1) 
-1.1787199294988639

>  <r_i_glide_ligand_efficiency_sa>  (1) 
-0.58163075621242322

>  <r_i_glide_lipo>  (1) 
-3.3719882103976486

>  <r_i_glide_metal>  (1) 
-0

>  <r_i_glide_rewards>  (1) 
-2.1308488381803041

>  <r_lp_Energy>  (1) 
19.892499999999998

>  <r_lp_tautomer_probability>  (1) 
0.9999999700000004

>  <s_epik_Chemistry_Notes>  (1) 
This compound has a N-S or N-O group and may undergo hydrolysis at high or low pH.

>  <s_epik_cmdline>  (1) 
J2VwaWtfcHl0aG9uJywgJy1waHQnLCAnMS4wJywgJy1waCcsICc3LjQnLCAnLXRuJywgJzgnLCAnLW1hJywgJzUwMCcsICctaW1hZScsICc8aW5maWxlLm1hZT4nLCAnLW9tYWUnLCAnPG91dGZpbGUubWFlPic=

>  <s_epik_input>  (1) 
W0NIM11bQ0gyXVtDQEhdKFtDSDNdKVtDQEBIXShbQ0hdPVtDSDJdKVtDSDJdW0NIMl1bQ0gyXU4oW09IXSlbQ0gyXVtDSDJdW0NASF0oW0NIM10pW0NASF0oW0NIMl1bQ0gzXSlbQ0gyXVtDQEhdKFtDSDNdKUMoPU8pW0NIM10=

>  <s_glide_docking_method>  (1) 
confgen

>  <s_i_glide_gridfile>  (1) 
gpcr_5ht2c_6bqh_protein_autoprepared_prepared

>  <s_lp_Force_Field>  (1) 
S-OPLS

>  <s_lp_Variant>  (1) 
DiffSBDD_30_num_sample_50-2

>  <s_m_source_file>  (1) 
generated__ligand_DiffSBDD_2026-05-06_prepared.sdf

>  <GenAI_Model>  (1) 
DiffSBDD

>  <Protein>  (1) 
GPCR_5HT2C

$$$$
DiffSBDD_30_num_sample_50
     RDKit          3D

  0  0  0  0  0  0  0  0  0  0999 V3000
M  V30 BEGIN CTAB
M  V30 COUNTS 68 67 0 0 1
M  V30 BEGIN ATOM
M  V30 1 C 39.522570 29.830516 54.344488 0
M  V30 2 C 38.183487 32.857221 60.552636 0 CFG=2
M  V30 3 C 37.256678 32.109742 61.528620 0
M  V30 4 O 39.618372 36.399301 63.115566 0
M  V30 5 C 41.651783 35.618275 64.129041 0
M  V30 6 C 37.190229 35.261916 60.490703 0
M  V30 7 C 37.392827 27.351434 53.060169 0
M  V30 8 C 39.868351 31.380186 51.765702 0
M  V30 9 C 38.547706 33.252889 57.993153 0
M  V30 10 C 38.346919 34.354625 60.987982 0 CFG=2
M  V30 11 C 38.905772 29.348428 53.007167 0 CFG=1
M  V30 12 C 39.756069 34.948129 60.672890 0
M  V30 13 C 39.487707 29.899383 51.671545 0 CFG=2
M  V30 14 C 39.075886 31.433694 56.348176 0
M  V30 15 C 37.069101 36.604466 61.230388 0
M  V30 16 C 37.721869 32.572607 59.096113 0
M  V30 17 C 40.611263 35.680940 63.016376 0
M  V30 18 C 40.862157 34.818639 61.760734 0 CFG=1
M  V30 19 C 38.544563 30.786452 55.063952 0
M  V30 20 C 40.516641 29.090144 50.861955 0
M  V30 21 O 38.487333 33.621525 55.681838 0 CHG=-1
M  V30 22 C 40.667867 29.718354 49.447906 0
M  V30 23 N 38.266178 32.683998 56.627298 0 CFG=2 CHG=1
M  V30 24 C 41.198721 33.354904 62.108297 0
M  V30 25 C 38.626098 27.867757 52.998603 0
M  V30 26 H 39.739070 28.984929 54.999587 0
M  V30 27 H 40.478897 30.327260 54.181109 0
M  V30 28 H 39.155607 32.377617 60.650006 0
M  V30 29 H 36.245464 32.516434 61.507380 0
M  V30 30 H 37.189331 31.050864 61.278003 0
M  V30 31 H 37.622885 32.179322 62.552648 0
M  V30 32 H 41.749080 34.605278 64.519182 0
M  V30 33 H 42.623575 35.957804 63.769948 0
M  V30 34 H 41.347244 36.263174 64.952879 0
M  V30 35 H 37.287442 35.471243 59.428633 0
M  V30 36 H 36.242390 34.735542 60.603441 0
M  V30 37 H 36.523368 27.989560 53.117512 0
M  V30 38 H 37.235309 26.294285 53.053552 0
M  V30 39 H 40.860770 31.492905 52.189744 0
M  V30 40 H 39.866862 31.839162 50.779401 0
M  V30 41 H 39.187287 31.975383 52.374531 0
M  V30 42 H 39.623932 33.218994 58.135338 0
M  V30 43 H 38.232619 34.287088 57.921562 0
M  V30 44 H 38.264341 34.363500 62.073249 0
M  V30 45 H 37.898629 29.762749 53.028112 0
M  V30 46 H 40.141919 34.525615 59.753957 0
M  V30 47 H 39.662785 36.007116 60.443673 0
M  V30 48 H 38.666916 29.841640 50.976977 0
M  V30 49 H 38.995362 30.761903 57.202324 0
M  V30 50 H 40.108882 31.761013 56.235879 0
M  V30 51 H 36.267475 37.208728 60.808871 0
M  V30 52 H 36.852941 36.450285 62.288177 0
M  V30 53 H 37.973336 37.206093 61.157309 0
M  V30 54 H 36.677980 32.864913 58.973578 0
M  V30 55 H 37.735038 31.494362 58.942144 0
M  V30 56 H 41.762596 35.244207 61.316384 0
M  V30 57 H 38.265972 31.570230 54.360974 0
M  V30 58 H 37.615614 30.265985 55.300936 0
M  V30 59 H 41.467334 29.043957 51.388906 0
M  V30 60 H 40.172867 28.062039 50.746873 0
M  V30 61 H 41.317972 30.594071 49.482294 0
M  V30 62 H 41.067298 29.075407 48.661402 0
M  V30 63 H 39.704121 30.048526 49.064066 0
M  V30 64 H 42.113542 33.276285 62.697033 0
M  V30 65 H 40.396683 32.880073 62.674453 0
M  V30 66 H 41.362621 32.768681 61.204493 0
M  V30 67 H 39.480351 27.210131 52.940659 0
M  V30 68 H 37.258342 32.396629 56.652444 0
M  V30 END ATOM
M  V30 BEGIN BOND
M  V30 1 1 3 2
M  V30 2 1 10 2
M  V30 3 1 10 6
M  V30 4 1 11 1
M  V30 5 1 12 10
M  V30 6 1 13 8
M  V30 7 1 13 11
M  V30 8 1 15 6
M  V30 9 1 16 2
M  V30 10 1 16 9
M  V30 11 2 17 4
M  V30 12 1 17 5
M  V30 13 1 18 12
M  V30 14 1 18 17
M  V30 15 1 19 1
M  V30 16 1 19 14
M  V30 17 1 20 13
M  V30 18 1 22 20
M  V30 19 1 23 9
M  V30 20 1 23 14
M  V30 21 1 23 21
M  V30 22 1 24 18
M  V30 23 2 25 7
M  V30 24 1 25 11
M  V30 25 1 26 1
M  V30 26 1 27 1
M  V30 27 1 2 28 CFG=3
M  V30 28 1 29 3
M  V30 29 1 30 3
M  V30 30 1 31 3
M  V30 31 1 32 5
M  V30 32 1 33 5
M  V30 33 1 34 5
M  V30 34 1 35 6
M  V30 35 1 36 6
M  V30 36 1 37 7
M  V30 37 1 38 7
M  V30 38 1 39 8
M  V30 39 1 40 8
M  V30 40 1 41 8
M  V30 41 1 42 9
M  V30 42 1 43 9
M  V30 43 1 10 44 CFG=1
M  V30 44 1 11 45 CFG=1
M  V30 45 1 46 12
M  V30 46 1 47 12
M  V30 47 1 13 48 CFG=3
M  V30 48 1 49 14
M  V30 49 1 50 14
M  V30 50 1 51 15
M  V30 51 1 52 15
M  V30 52 1 53 15
M  V30 53 1 54 16
M  V30 54 1 55 16
M  V30 55 1 18 56 CFG=3
M  V30 56 1 57 19
M  V30 57 1 58 19
M  V30 58 1 59 20
M  V30 59 1 60 20
M  V30 60 1 61 22
M  V30 61 1 62 22
M  V30 62 1 63 22
M  V30 63 1 64 24
M  V30 64 1 65 24
M  V30 65 1 66 24
M  V30 66 1 67 25
M  V30 67 1 23 68 CFG=1
M  V30 END BOND
M  V30 END CTAB
M  END
>  <i_epik_Tot_Q>  (1) 
0

>  <i_epik_Tot_abs_Q>  (1) 
2

>  <i_i_glide_confnum>  (1) 
5742

>  <i_i_glide_lignum>  (1) 
79

>  <i_i_glide_posenum>  (1) 
74

>  <i_i_glide_rotatable_bonds>  (1) 
15

>  <i_lp_mmshare_version>  (1) 
72125

>  <i_m_source_file_index>  (1) 
31

>  <i_f3d_flags>  (1) 
0

>  <num_sample>  (1) 
50

>  <b_lp_Chiralities_Consistent>  (1) 
1

>  <r_epik_Charging_Adjusted_Penalty>  (1) 
0.52251968911758562

>  <r_epik_Ionization_Penalty>  (1) 
0.019979657236955634

>  <r_epik_Ionization_Penalty_Charging>  (1) 
0.019979657236557934

>  <r_epik_Ionization_Penalty_Neutral>  (1) 
3.9770064437045143e-13

>  <r_epik_State_Penalty>  (1) 
0.50254003188102769

>  <r_glide_ring_energy>  (1) 
0

>  <r_i_docking_score>  (1) 
-4.8536027120897804

>  <r_i_glide_ecoul>  (1) 
-1.78455963065672

>  <r_i_glide_eff_state_penalty>  (1) 
0.50254003188102769

>  <r_i_glide_einternal>  (1) 
8.5218098294649334

>  <r_i_glide_emodel>  (1) 
-39.572631294223484

>  <r_i_glide_emodel_strain>  (1) 
4.7924058725273184

>  <r_i_glide_energy>  (1) 
-34.970786619363984

>  <r_i_glide_erotb>  (1) 
1.833058027080513

>  <r_i_glide_esite>  (1) 
-0.072675281819315096

>  <r_i_glide_evdw>  (1) 
-33.186226988707261

>  <r_i_glide_gscore>  (1) 
-5.3561427439708078

>  <r_i_glide_gscore_strain>  (1) 
0.19810146813182961

>  <r_i_glide_hbond>  (1) 
-0.16

>  <r_i_glide_ligand_efficiency>  (1) 
-0.1941441084835912

>  <r_i_glide_ligand_efficiency_ln>  (1) 
-1.1504492935014052

>  <r_i_glide_ligand_efficiency_sa>  (1) 
-0.56768081697554373

>  <r_i_glide_lipo>  (1) 
-3.3996774707013162

>  <r_i_glide_metal>  (1) 
-0

>  <r_i_glide_rewards>  (1) 
-1.8279541926286487

>  <r_lp_Energy>  (1) 
19.132985999999999

>  <s_epik_cmdline>  (1) 
J2VwaWtfcHl0aG9uJywgJy1waHQnLCAnMS4wJywgJy1waCcsICc3LjQnLCAnLXRuJywgJzgnLCAnLW1hJywgJzUwMCcsICctaW1hZScsICc8aW5maWxlLm1hZT4nLCAnLW9tYWUnLCAnPG91dGZpbGUubWFlPic=

>  <s_epik_input>  (1) 
W0NIM11bQ0gyXVtDQEhdKFtDSDNdKVtDQEBIXShbQ0hdPVtDSDJdKVtDSDJdW0NIMl1bQ0gyXU4oW09IXSlbQ0gyXVtDSDJdW0NASF0oW0NIM10pW0NASF0oW0NIMl1bQ0gzXSlbQ0gyXVtDQEhdKFtDSDNdKUMoPU8pW0NIM10=

>  <s_glide_docking_method>  (1) 
confgen

>  <s_i_glide_gridfile>  (1) 
gpcr_5ht2c_6bqh_protein_autoprepared_prepared

>  <s_lp_Force_Field>  (1) 
S-OPLS

>  <s_lp_Variant>  (1) 
DiffSBDD_30_num_sample_50-3

>  <s_m_source_file>  (1) 
generated__ligand_DiffSBDD_2026-05-06_prepared.sdf

>  <GenAI_Model>  (1) 
DiffSBDD

>  <Protein>  (1) 
GPCR_5HT2C

$$$$
DiffSBDD_5_num_sample_50
     RDKit          3D

  0  0  0  0  0  0  0  0  0  0999 V3000
M  V30 BEGIN CTAB
M  V30 COUNTS 80 82 0 0 1
M  V30 BEGIN ATOM
M  V30 1 C 36.985421 31.166304 59.519641 0
M  V30 2 C 38.200112 31.307451 57.339336 0 CFG=2
M  V30 3 N 36.784587 37.587635 61.611377 0
M  V30 4 F 40.665854 26.050149 55.376035 0
M  V30 5 C 37.802824 33.158511 62.113666 0
M  V30 6 N 37.527837 31.177731 60.689857 0 CHG=1
M  V30 7 C 39.538529 34.952676 61.759302 0 CFG=1
M  V30 8 C 38.356015 25.779089 55.300041 0 CFG=2
M  V30 9 C 39.327551 31.355221 55.076440 0
M  V30 10 C 36.862732 32.096921 61.614881 0 CFG=2
M  V30 11 N 35.956082 31.943002 59.453117 0
M  V30 12 C 38.136086 31.894008 54.262944 0
M  V30 13 C 39.022578 28.469823 57.654366 0 CFG=2
M  V30 14 C 40.273583 30.602314 54.133701 0
M  V30 15 N 37.744900 26.424756 57.580272 0 CHG=1
M  V30 16 C 37.700751 36.612959 61.053026 0
M  V30 17 C 39.044329 32.410381 58.001135 0
M  V30 18 C 35.653913 32.660613 60.691582 0
M  V30 19 C 37.490313 30.360371 58.359480 0 CFG=1
M  V30 20 C 38.305784 25.328562 56.774915 0
M  V30 21 O 37.867281 39.382454 60.776386 0
M  V30 22 C 39.700432 25.491747 54.654563 0
M  V30 23 C 35.977877 39.796772 62.175622 0
M  V30 24 C 36.956759 38.897058 61.453514 0
M  V30 25 S 38.066929 27.549982 55.222832 0
M  V30 26 C 38.402244 29.210083 58.845876 0
M  V30 27 C 39.778771 29.496148 56.789971 0
M  V30 28 C 41.698081 35.359314 61.090789 0
M  V30 29 O 40.356100 35.376568 60.695297 0
M  V30 30 O 39.475793 37.186246 62.639062 0
M  V30 31 N 38.858484 30.535552 56.246059 0 CFG=1 CHG=1
M  V30 32 C 38.645738 36.137063 62.169796 0 CFG=2
M  V30 33 N 37.999289 27.706947 56.926611 0
M  V30 34 C 38.837462 33.727890 61.167181 0
M  V30 35 H 37.467261 31.890757 56.819795 0
M  V30 36 H 36.022662 37.254887 62.180726 0
M  V30 37 H 38.268756 32.822911 63.045262 0
M  V30 38 H 37.120191 33.984910 62.253317 0
M  V30 39 H 40.095701 34.627509 62.642547 0
M  V30 40 H 37.559349 25.293553 54.735364 0
M  V30 41 H 39.900233 32.208619 55.425849 0
M  V30 42 H 36.446094 31.621281 62.477016 0
M  V30 43 H 35.422018 32.082995 58.584807 0
M  V30 44 H 38.466708 32.402134 53.357944 0
M  V30 45 H 37.466747 31.088188 53.963719 0
M  V30 46 H 37.551784 32.631195 54.811403 0
M  V30 47 H 39.770403 27.766652 58.028175 0
M  V30 48 H 40.500824 31.195254 53.247711 0
M  V30 49 H 41.224238 30.421713 54.634041 0
M  V30 50 H 39.862414 29.650667 53.794049 0
M  V30 51 H 38.151154 26.456048 58.504665 0
M  V30 52 H 38.259148 36.989109 60.195079 0
M  V30 53 H 37.087807 35.795002 60.678273 0
M  V30 54 H 39.467338 32.087140 58.944969 0
M  V30 55 H 39.840535 32.821465 57.386274 0
M  V30 56 H 38.393557 33.254772 58.224133 0
M  V30 57 H 34.671203 32.385129 61.076397 0
M  V30 58 H 35.693166 33.738861 60.533117 0
M  V30 59 H 36.622570 29.922657 57.863485 0
M  V30 60 H 37.723376 24.416239 56.905088 0
M  V30 61 H 39.304302 25.122031 57.163754 0
M  V30 62 H 39.867420 24.421715 54.619245 0
M  V30 63 H 39.775335 25.920497 53.654556 0
M  V30 64 H 34.956694 39.621599 61.853542 0
M  V30 65 H 36.018519 39.641038 63.252030 0
M  V30 66 H 36.264886 40.821459 61.967314 0
M  V30 67 H 39.218808 29.619828 59.441972 0
M  V30 68 H 37.867578 28.530636 59.507205 0
M  V30 69 H 40.484619 29.983232 57.453266 0
M  V30 70 H 40.350480 28.960660 56.035181 0
M  V30 71 H 42.330663 35.621409 60.253541 0
M  V30 72 H 41.867786 36.070957 61.897840 0
M  V30 73 H 41.946882 34.354055 61.437515 0
M  V30 74 H 40.017596 36.868177 63.346475 0
M  V30 75 H 38.051432 35.862093 63.036714 0
M  V30 76 H 38.360510 33.999443 60.229567 0
M  V30 77 H 39.589504 32.970925 60.947143 0
M  V30 78 H 36.739612 26.334471 57.635334 0
M  V30 79 H 38.341161 30.636529 60.949203 0
M  V30 80 H 38.111926 29.984507 55.844351 0
M  V30 END ATOM
M  V30 BEGIN BOND
M  V30 1 2 6 1
M  V30 2 1 10 5
M  V30 3 1 10 6
M  V30 4 1 11 1
M  V30 5 1 12 9
M  V30 6 1 14 9
M  V30 7 1 16 3
M  V30 8 1 17 2
M  V30 9 1 18 10
M  V30 10 1 18 11
M  V30 11 1 19 1
M  V30 12 1 19 2
M  V30 13 1 20 8
M  V30 14 1 20 15
M  V30 15 1 22 4
M  V30 16 1 22 8
M  V30 17 1 24 3
M  V30 18 2 24 21
M  V30 19 1 24 23
M  V30 20 1 25 8
M  V30 21 1 26 13
M  V30 22 1 26 19
M  V30 23 1 27 13
M  V30 24 1 29 7
M  V30 25 1 29 28
M  V30 26 1 31 2
M  V30 27 1 31 9
M  V30 28 1 31 27
M  V30 29 1 32 7
M  V30 30 1 32 16
M  V30 31 1 32 30
M  V30 32 1 33 13
M  V30 33 1 33 15
M  V30 34 1 33 25
M  V30 35 1 34 5
M  V30 36 1 34 7
M  V30 37 1 2 35 CFG=3
M  V30 38 1 36 3
M  V30 39 1 37 5
M  V30 40 1 38 5
M  V30 41 1 7 39 CFG=1
M  V30 42 1 8 40 CFG=3
M  V30 43 1 41 9
M  V30 44 1 10 42 CFG=1
M  V30 45 1 43 11
M  V30 46 1 44 12
M  V30 47 1 45 12
M  V30 48 1 46 12
M  V30 49 1 13 47 CFG=1
M  V30 50 1 48 14
M  V30 51 1 49 14
M  V30 52 1 50 14
M  V30 53 1 51 15
M  V30 54 1 52 16
M  V30 55 1 53 16
M  V30 56 1 54 17
M  V30 57 1 55 17
M  V30 58 1 56 17
M  V30 59 1 57 18
M  V30 60 1 58 18
M  V30 61 1 19 59 CFG=3
M  V30 62 1 60 20
M  V30 63 1 61 20
M  V30 64 1 62 22
M  V30 65 1 63 22
M  V30 66 1 64 23
M  V30 67 1 65 23
M  V30 68 1 66 23
M  V30 69 1 67 26
M  V30 70 1 68 26
M  V30 71 1 69 27
M  V30 72 1 70 27
M  V30 73 1 71 28
M  V30 74 1 72 28
M  V30 75 1 73 28
M  V30 76 1 74 30
M  V30 77 1 32 75 CFG=1
M  V30 78 1 76 34
M  V30 79 1 77 34
M  V30 80 1 78 15
M  V30 81 1 79 6
M  V30 82 1 31 80 CFG=3
M  V30 END BOND
M  V30 END CTAB
M  END
>  <i_epik_Tot_Q>  (1) 
3

>  <i_epik_Tot_abs_Q>  (1) 
3

>  <i_i_glide_confnum>  (1) 
345

>  <i_i_glide_lignum>  (1) 
16

>  <i_i_glide_posenum>  (1) 
297

>  <i_i_glide_rotatable_bonds>  (1) 
13

>  <i_lp_mmshare_version>  (1) 
72125

>  <i_m_source_file_index>  (1) 
6

>  <i_f3d_flags>  (1) 
0

>  <num_sample>  (1) 
50

>  <b_lp_Chiralities_Consistent>  (1) 
1

>  <r_epik_Charging_Adjusted_Penalty>  (1) 
0.16301919670703535

>  <r_epik_Ionization_Penalty>  (1) 
0.082191666583868089

>  <r_epik_Ionization_Penalty_Charging>  (1) 
0.082191230012028396

>  <r_epik_Ionization_Penalty_Neutral>  (1) 
4.3657183969654913e-07

>  <r_epik_State_Penalty>  (1) 
0.080827966695006942

>  <r_glide_ring_energy>  (1) 
0

>  <r_i_docking_score>  (1) 
-4.8454952991368057

>  <r_i_glide_ecoul>  (1) 
-4.9582426258282126

>  <r_i_glide_eff_state_penalty>  (1) 
0.080827966695006942

>  <r_i_glide_einternal>  (1) 
8.712605233566304

>  <r_i_glide_emodel>  (1) 
-34.610976877982964

>  <r_i_glide_emodel_strain>  (1) 
4.1440699836528267

>  <r_i_glide_energy>  (1) 
-26.308488430943264

>  <r_i_glide_erotb>  (1) 
0.63983490757673345

>  <r_i_glide_esite>  (1) 
-0.20884028108718888

>  <r_i_glide_evdw>  (1) 
-21.350245805115051

>  <r_i_glide_gscore>  (1) 
-4.9263232658318126

>  <r_i_glide_gscore_strain>  (1) 
0.036017495913206687

>  <r_i_glide_hbond>  (1) 
-0.19654416202606365

>  <r_i_glide_ligand_efficiency>  (1) 
-0.14251456762167075

>  <r_i_glide_ligand_efficiency_ln>  (1) 
-1.0705058231188305

>  <r_i_glide_ligand_efficiency_sa>  (1) 
-0.46169187512112259

>  <r_i_glide_lipo>  (1) 
-2.7491560289645367

>  <r_i_glide_metal>  (1) 
-0

>  <r_i_glide_rewards>  (1) 
-0.63638651311397931

>  <r_lp_Energy>  (1) 
52.952152999999996

>  <s_epik_Chemistry_Notes>  (1) 
This compound has an imine and may undergo hydrolysis. This compound has a N-S or N-O group and may undergo hydrolysis at high or low pH.

>  <s_epik_cmdline>  (1) 
J2VwaWtfcHl0aG9uJywgJy1waHQnLCAnMS4wJywgJy1waCcsICc3LjQnLCAnLXRuJywgJzgnLCAnLW1hJywgJzUwMCcsICctaW1hZScsICc8aW5maWxlLm1hZT4nLCAnLW9tYWUnLCAnPG91dGZpbGUubWFlPic=

>  <s_epik_input>  (1) 
RltDSDJdW0NASF0xW0NIMl1bTkhdTihTMSlbQ0BASF0oW0NIMl1OMltDSF0oW0NIM10pW0NIM10pW0NIMl1bQ0BASF0oW0NASF0yW0NIM10pQzM9TltDQEhdKFtDSDJdW05IXTMpW0NIMl1bQ0gyXVtDQEBIXShPW0NIM10pW0NAQEhdKFtPSF0pW0NIMl1bTkhdQyg9TylbQ0gzXQ==

>  <s_glide_docking_method>  (1) 
confgen

>  <s_i_glide_gridfile>  (1) 
gpcr_5ht2c_6bqh_protein_autoprepared_prepared

>  <s_lp_Force_Field>  (1) 
S-OPLS

>  <s_lp_Variant>  (1) 
DiffSBDD_5_num_sample_50-3

>  <s_m_source_file>  (1) 
generated__ligand_DiffSBDD_2026-05-06_prepared.sdf

>  <GenAI_Model>  (1) 
DiffSBDD

>  <Protein>  (1) 
GPCR_5HT2C

$$$$
DiffSBDD_30_num_sample_50
     RDKit          3D

  0  0  0  0  0  0  0  0  0  0999 V3000
M  V30 BEGIN CTAB
M  V30 COUNTS 68 67 0 0 1
M  V30 BEGIN ATOM
M  V30 1 C 39.017379 26.850045 53.973580 0
M  V30 2 C 39.765221 29.733155 60.115131 0 CFG=2
M  V30 3 C 39.843871 28.929475 61.430119 0
M  V30 4 O 38.101697 33.224269 61.575189 0
M  V30 5 C 35.865146 33.995697 61.150068 0
M  V30 6 C 37.350148 29.485853 59.306631 0
M  V30 7 C 37.639635 30.007370 55.072600 0
M  V30 8 C 38.375624 28.270767 51.283757 0
M  V30 9 C 39.803750 27.424516 58.844568 0
M  V30 10 C 38.380902 30.438909 59.931632 0 CFG=2
M  V30 11 C 39.053542 28.375084 53.741123 0 CFG=1
M  V30 12 C 38.480282 31.775019 59.156095 0
M  V30 13 C 39.449549 28.709732 52.286955 0 CFG=2
M  V30 14 C 39.290646 27.096255 56.508407 0
M  V30 15 C 35.867391 29.820515 59.453517 0
M  V30 16 C 40.262950 28.909073 58.891076 0
M  V30 17 C 37.173294 33.313096 60.772274 0
M  V30 18 C 37.283399 32.743297 59.348192 0 CFG=1
M  V30 19 C 39.779537 26.410482 55.221901 0
M  V30 20 C 39.854522 30.191109 52.173114 0
M  V30 21 O 39.867383 25.349482 57.853505 0
M  V30 22 C 40.293387 30.604348 50.764441 0
M  V30 23 N 40.164295 26.739015 57.612806 0
M  V30 24 C 37.343836 33.877368 58.327968 0
M  V30 25 C 37.737111 29.021884 54.164567 0
M  V30 26 H 39.478602 26.338871 53.129789 0
M  V30 27 H 37.989464 26.483802 54.010175 0
M  V30 28 H 40.494963 30.530226 60.253534 0
M  V30 29 H 39.109722 28.124648 61.468531 0
M  V30 30 H 40.831657 28.485023 61.559140 0
M  V30 31 H 39.664202 29.569316 62.294657 0
M  V30 32 H 35.870561 35.025650 60.794757 0
M  V30 33 H 35.017447 33.477217 60.701980 0
M  V30 34 H 35.736015 34.004327 62.232151 0
M  V30 35 H 37.577700 29.270211 58.262008 0
M  V30 36 H 37.484199 28.572514 59.853485 0
M  V30 37 H 36.679408 30.429024 55.336892 0
M  V30 38 H 38.516810 30.404457 55.562347 0
M  V30 39 H 37.459762 28.821341 51.453481 0
M  V30 40 H 38.687007 28.430167 50.253364 0
M  V30 41 H 38.140970 27.211191 51.376929 0
M  V30 42 H 38.735529 27.294961 58.978365 0
M  V30 43 H 40.267378 26.903273 59.675940 0
M  V30 44 H 38.035773 30.671036 60.938367 0
M  V30 45 H 39.835152 28.802190 54.371995 0
M  V30 46 H 39.382699 32.310471 59.455173 0
M  V30 47 H 38.609577 31.558222 58.094784 0
M  V30 48 H 40.337515 28.133174 52.032001 0
M  V30 49 H 38.253900 26.828606 56.721043 0
M  V30 50 H 39.315337 28.175069 56.386977 0
M  V30 51 H 35.281951 28.899614 59.435645 0
M  V30 52 H 35.664398 30.362377 60.378206 0
M  V30 53 H 35.500853 30.421458 58.631028 0
M  V30 54 H 41.353534 28.906214 58.905309 0
M  V30 55 H 39.996046 29.440133 57.978817 0
M  V30 56 H 36.351635 32.228982 59.148241 0
M  V30 57 H 40.837311 26.623087 55.082427 0
M  V30 58 H 39.699105 25.326438 55.306225 0
M  V30 59 H 39.067657 30.841626 52.544860 0
M  V30 60 H 40.667390 30.384280 52.865409 0
M  V30 61 H 40.553734 24.928547 57.357312 0
M  V30 62 H 40.667410 31.621438 50.773169 0
M  V30 63 H 41.093586 29.964165 50.394146 0
M  V30 64 H 39.469263 30.574014 50.051575 0
M  V30 65 H 36.510415 34.571413 58.434707 0
M  V30 66 H 38.267378 34.421427 58.465377 0
M  V30 67 H 37.322916 33.493147 57.307294 0
M  V30 68 H 36.842049 28.646325 53.691745 0
M  V30 END ATOM
M  V30 BEGIN BOND
M  V30 1 1 3 2
M  V30 2 1 10 2
M  V30 3 1 10 6
M  V30 4 1 11 1
M  V30 5 1 12 10
M  V30 6 1 13 8
M  V30 7 1 13 11
M  V30 8 1 15 6
M  V30 9 1 16 2
M  V30 10 1 16 9
M  V30 11 2 17 4
M  V30 12 1 17 5
M  V30 13 1 18 12
M  V30 14 1 18 17
M  V30 15 1 19 1
M  V30 16 1 19 14
M  V30 17 1 20 13
M  V30 18 1 22 20
M  V30 19 1 23 9
M  V30 20 1 23 14
M  V30 21 1 23 21
M  V30 22 1 24 18
M  V30 23 2 25 7
M  V30 24 1 25 11
M  V30 25 1 26 1
M  V30 26 1 27 1
M  V30 27 1 2 28 CFG=1
M  V30 28 1 29 3
M  V30 29 1 30 3
M  V30 30 1 31 3
M  V30 31 1 32 5
M  V30 32 1 33 5
M  V30 33 1 34 5
M  V30 34 1 35 6
M  V30 35 1 36 6
M  V30 36 1 37 7
M  V30 37 1 38 7
M  V30 38 1 39 8
M  V30 39 1 40 8
M  V30 40 1 41 8
M  V30 41 1 42 9
M  V30 42 1 43 9
M  V30 43 1 10 44 CFG=1
M  V30 44 1 11 45 CFG=1
M  V30 45 1 46 12
M  V30 46 1 47 12
M  V30 47 1 13 48 CFG=3
M  V30 48 1 49 14
M  V30 49 1 50 14
M  V30 50 1 51 15
M  V30 51 1 52 15
M  V30 52 1 53 15
M  V30 53 1 54 16
M  V30 54 1 55 16
M  V30 55 1 18 56 CFG=3
M  V30 56 1 57 19
M  V30 57 1 58 19
M  V30 58 1 59 20
M  V30 59 1 60 20
M  V30 60 1 61 21
M  V30 61 1 62 22
M  V30 62 1 63 22
M  V30 63 1 64 22
M  V30 64 1 65 24
M  V30 65 1 66 24
M  V30 66 1 67 24
M  V30 67 1 68 25
M  V30 END BOND
M  V30 END CTAB
M  END
>  <i_epik_Tot_Q>  (1) 
0

>  <i_epik_Tot_abs_Q>  (1) 
0

>  <i_i_glide_confnum>  (1) 
5224

>  <i_i_glide_lignum>  (1) 
77

>  <i_i_glide_posenum>  (1) 
45

>  <i_i_glide_rotatable_bonds>  (1) 
16

>  <i_lp_mmshare_version>  (1) 
72125

>  <i_m_source_file_index>  (1) 
31

>  <i_f3d_flags>  (1) 
0

>  <num_sample>  (1) 
50

>  <b_lp_Chiralities_Consistent>  (1) 
1

>  <r_epik_Charging_Adjusted_Penalty>  (1) 
0.34658394344942783

>  <r_epik_Ionization_Penalty>  (1) 
0.015417953954219563

>  <r_epik_Ionization_Penalty_Charging>  (1) 
0

>  <r_epik_Ionization_Penalty_Neutral>  (1) 
0.015417953954219563

>  <r_epik_State_Penalty>  (1) 
0.34658394344942783

>  <r_glide_ring_energy>  (1) 
0

>  <r_i_docking_score>  (1) 
-4.8325945420361123

>  <r_i_glide_ecoul>  (1) 
-0.57919846749935244

>  <r_i_glide_eff_state_penalty>  (1) 
0.34658394344942783

>  <r_i_glide_einternal>  (1) 
6.7595508947845691

>  <r_i_glide_emodel>  (1) 
-39.032535647249688

>  <r_i_glide_emodel_strain>  (1) 
0.99181825150770209

>  <r_i_glide_energy>  (1) 
-31.391332997410533

>  <r_i_glide_erotb>  (1) 
1.833058027080513

>  <r_i_glide_esite>  (1) 
0

>  <r_i_glide_evdw>  (1) 
-30.81213452991118

>  <r_i_glide_gscore>  (1) 
-5.1791784854855401

>  <r_i_glide_gscore_strain>  (1) 
0

>  <r_i_glide_hbond>  (1) 
-0.18219508130977297

>  <r_i_glide_ligand_efficiency>  (1) 
-0.19330378168144449

>  <r_i_glide_ligand_efficiency_ln>  (1) 
-1.1454697276346322

>  <r_i_glide_ligand_efficiency_sa>  (1) 
-0.56522368650017096

>  <r_i_glide_lipo>  (1) 
-3.6306813349340898

>  <r_i_glide_metal>  (1) 
-0

>  <r_i_glide_rewards>  (1) 
-1.5718735997017279

>  <r_lp_Energy>  (1) 
13.945687

>  <r_lp_tautomer_probability>  (1) 
0.9999999700000004

>  <s_epik_Chemistry_Notes>  (1) 
This compound has a N-S or N-O group and may undergo hydrolysis at high or low pH.

>  <s_epik_cmdline>  (1) 
J2VwaWtfcHl0aG9uJywgJy1waHQnLCAnMS4wJywgJy1waCcsICc3LjQnLCAnLXRuJywgJzgnLCAnLW1hJywgJzUwMCcsICctaW1hZScsICc8aW5maWxlLm1hZT4nLCAnLW9tYWUnLCAnPG91dGZpbGUubWFlPic=

>  <s_epik_input>  (1) 
W0NIM11bQ0gyXVtDQEhdKFtDSDNdKVtDQEBIXShbQ0hdPVtDSDJdKVtDSDJdW0NIMl1bQ0gyXU4oW09IXSlbQ0gyXVtDSDJdW0NASF0oW0NIM10pW0NASF0oW0NIMl1bQ0gzXSlbQ0gyXVtDQEhdKFtDSDNdKUMoPU8pW0NIM10=

>  <s_glide_docking_method>  (1) 
confgen

>  <s_i_glide_gridfile>  (1) 
gpcr_5ht2c_6bqh_protein_autoprepared_prepared

>  <s_lp_Force_Field>  (1) 
S-OPLS

>  <s_lp_Variant>  (1) 
DiffSBDD_30_num_sample_50-1

>  <s_m_source_file>  (1) 
generated__ligand_DiffSBDD_2026-05-06_prepared.sdf

>  <GenAI_Model>  (1) 
DiffSBDD

>  <Protein>  (1) 
GPCR_5HT2C

$$$$
DiffSBDD_30_num_sample_50
     RDKit          3D

  0  0  0  0  0  0  0  0  0  0999 V3000
M  V30 BEGIN CTAB
M  V30 COUNTS 68 67 0 0 1
M  V30 BEGIN ATOM
M  V30 1 C 39.330983 27.240482 53.953667 0
M  V30 2 C 37.397517 31.178305 59.791071 0 CFG=2
M  V30 3 C 35.934605 30.694854 59.874477 0
M  V30 4 O 42.266275 32.421473 61.754449 0
M  V30 5 C 41.088991 34.428652 62.362999 0
M  V30 6 C 36.805588 33.647417 59.299542 0
M  V30 7 C 37.541569 30.291349 54.253524 0
M  V30 8 C 38.920223 27.824237 50.910487 0
M  V30 9 C 37.892487 29.410487 57.968457 0
M  V30 10 C 37.531523 32.662664 60.254282 0 CFG=2
M  V30 11 C 39.233864 28.654674 53.325219 0 CFG=1
M  V30 12 C 38.988623 33.137346 60.525968 0
M  V30 13 C 39.768551 28.686641 51.856482 0 CFG=2
M  V30 14 C 38.639962 27.701936 56.430618 0
M  V30 15 C 36.547880 35.039697 59.893082 0
M  V30 16 C 38.022758 30.887004 58.405873 0
M  V30 17 C 41.182873 32.990579 61.853467 0
M  V30 18 C 39.869951 32.279979 61.478779 0 CFG=1
M  V30 19 C 39.728728 27.219344 55.445371 0
M  V30 20 C 39.974106 30.116763 51.306935 0
M  V30 21 O 40.136477 28.822478 57.830887 0
M  V30 22 C 41.073138 30.255212 50.248393 0
M  V30 23 N 38.936991 29.003246 57.031000 0
M  V30 24 C 39.194580 31.854798 62.788143 0
M  V30 25 C 37.833087 29.222671 53.491338 0
M  V30 26 H 40.094886 26.670015 53.423911 0
M  V30 27 H 38.403224 26.687656 53.796878 0
M  V30 28 H 37.943496 30.566009 60.507691 0
M  V30 29 H 35.326304 31.096909 59.064791 0
M  V30 30 H 35.870175 29.610020 59.807739 0
M  V30 31 H 35.469545 30.980699 60.817711 0
M  V30 32 H 41.228118 35.132424 61.542110 0
M  V30 33 H 40.122044 34.620629 62.826819 0
M  V30 34 H 41.864179 34.614560 63.106793 0
M  V30 35 H 37.360659 33.749418 58.366803 0
M  V30 36 H 35.833191 33.246651 59.020171 0
M  V30 37 H 36.527576 30.654362 54.340879 0
M  V30 38 H 38.313070 30.814895 54.799480 0
M  V30 39 H 37.867537 28.077399 50.994530 0
M  V30 40 H 39.210999 27.959360 49.869544 0
M  V30 41 H 39.017590 26.765238 51.143782 0
M  V30 42 H 36.916172 29.283798 57.496561 0
M  V30 43 H 37.908219 28.747228 58.834638 0
M  V30 44 H 37.004885 32.729437 61.207650 0
M  V30 45 H 39.867248 29.316677 53.909855 0
M  V30 46 H 39.510588 33.246180 59.573498 0
M  V30 47 H 38.923309 34.145971 60.928858 0
M  V30 48 H 40.761248 28.240602 51.853459 0
M  V30 49 H 38.514402 26.961062 57.221947 0
M  V30 50 H 37.680448 27.755400 55.916091 0
M  V30 51 H 35.936264 35.636056 59.214800 0
M  V30 52 H 36.015560 34.964370 60.841382 0
M  V30 53 H 37.471295 35.591281 60.063048 0
M  V30 54 H 39.067189 31.179352 58.435828 0
M  V30 55 H 37.566966 31.514123 57.639361 0
M  V30 56 H 40.138671 31.372388 60.936707 0
M  V30 57 H 40.667726 27.754210 55.586243 0
M  V30 58 H 39.960620 26.185576 55.703191 0
M  V30 59 H 39.067437 30.450815 50.825895 0
M  V30 60 H 40.186774 30.813881 52.118439 0
M  V30 61 H 39.878153 28.141712 58.433053 0
M  V30 62 H 41.113891 31.276807 49.878118 0
M  V30 63 H 42.056330 30.021508 50.653670 0
M  V30 64 H 40.884925 29.620407 49.384571 0
M  V30 65 H 39.809579 31.124878 63.317787 0
M  V30 66 H 39.067344 32.710624 63.449736 0
M  V30 67 H 38.222284 31.390507 62.637050 0
M  V30 68 H 37.041207 28.719631 52.958163 0
M  V30 END ATOM
M  V30 BEGIN BOND
M  V30 1 1 3 2
M  V30 2 1 10 2
M  V30 3 1 10 6
M  V30 4 1 11 1
M  V30 5 1 12 10
M  V30 6 1 13 8
M  V30 7 1 13 11
M  V30 8 1 15 6
M  V30 9 1 16 2
M  V30 10 1 16 9
M  V30 11 2 17 4
M  V30 12 1 17 5
M  V30 13 1 18 12
M  V30 14 1 18 17
M  V30 15 1 19 1
M  V30 16 1 19 14
M  V30 17 1 20 13
M  V30 18 1 22 20
M  V30 19 1 23 9
M  V30 20 1 23 14
M  V30 21 1 23 21
M  V30 22 1 24 18
M  V30 23 2 25 7
M  V30 24 1 25 11
M  V30 25 1 26 1
M  V30 26 1 27 1
M  V30 27 1 2 28 CFG=1
M  V30 28 1 29 3
M  V30 29 1 30 3
M  V30 30 1 31 3
M  V30 31 1 32 5
M  V30 32 1 33 5
M  V30 33 1 34 5
M  V30 34 1 35 6
M  V30 35 1 36 6
M  V30 36 1 37 7
M  V30 37 1 38 7
M  V30 38 1 39 8
M  V30 39 1 40 8
M  V30 40 1 41 8
M  V30 41 1 42 9
M  V30 42 1 43 9
M  V30 43 1 10 44 CFG=1
M  V30 44 1 11 45 CFG=1
M  V30 45 1 46 12
M  V30 46 1 47 12
M  V30 47 1 13 48 CFG=1
M  V30 48 1 49 14
M  V30 49 1 50 14
M  V30 50 1 51 15
M  V30 51 1 52 15
M  V30 52 1 53 15
M  V30 53 1 54 16
M  V30 54 1 55 16
M  V30 55 1 18 56 CFG=3
M  V30 56 1 57 19
M  V30 57 1 58 19
M  V30 58 1 59 20
M  V30 59 1 60 20
M  V30 60 1 61 21
M  V30 61 1 62 22
M  V30 62 1 63 22
M  V30 63 1 64 22
M  V30 64 1 65 24
M  V30 65 1 66 24
M  V30 66 1 67 24
M  V30 67 1 68 25
M  V30 END BOND
M  V30 END CTAB
M  END
>  <i_epik_Tot_Q>  (1) 
0

>  <i_epik_Tot_abs_Q>  (1) 
0

>  <i_i_glide_confnum>  (1) 
1547

>  <i_i_glide_lignum>  (1) 
77

>  <i_i_glide_posenum>  (1) 
231

>  <i_i_glide_rotatable_bonds>  (1) 
16

>  <i_lp_mmshare_version>  (1) 
72125

>  <i_m_source_file_index>  (1) 
31

>  <i_f3d_flags>  (1) 
0

>  <num_sample>  (1) 
50

>  <b_lp_Chiralities_Consistent>  (1) 
1

>  <r_epik_Charging_Adjusted_Penalty>  (1) 
0.34658394344942783

>  <r_epik_Ionization_Penalty>  (1) 
0.015417953954219563

>  <r_epik_Ionization_Penalty_Charging>  (1) 
0

>  <r_epik_Ionization_Penalty_Neutral>  (1) 
0.015417953954219563

>  <r_epik_State_Penalty>  (1) 
0.34658394344942783

>  <r_glide_ring_energy>  (1) 
0

>  <r_i_docking_score>  (1) 
-4.8237920956146789

>  <r_i_glide_ecoul>  (1) 
-1.4375067410917621

>  <r_i_glide_eff_state_penalty>  (1) 
0.34658394344942783

>  <r_i_glide_einternal>  (1) 
13.58904810928648

>  <r_i_glide_emodel>  (1) 
-41.43704318939492

>  <r_i_glide_emodel_strain>  (1) 
1.7075604648186058

>  <r_i_glide_energy>  (1) 
-37.946748110868292

>  <r_i_glide_erotb>  (1) 
1.833058027080513

>  <r_i_glide_esite>  (1) 
0

>  <r_i_glide_evdw>  (1) 
-36.509241369776532

>  <r_i_glide_gscore>  (1) 
-5.1703760390641067

>  <r_i_glide_gscore_strain>  (1) 
0

>  <r_i_glide_hbond>  (1) 
0

>  <r_i_glide_ligand_efficiency>  (1) 
-0.19295168382458716

>  <r_i_glide_ligand_efficiency_ln>  (1) 
-1.1433832840447196

>  <r_i_glide_ligand_efficiency_sa>  (1) 
-0.56419414612113339

>  <r_i_glide_lipo>  (1) 
-3.0144808419146747

>  <r_i_glide_metal>  (1) 
-0

>  <r_i_glide_rewards>  (1) 
-1.9478651445773536

>  <r_lp_Energy>  (1) 
13.945687

>  <r_lp_tautomer_probability>  (1) 
0.9999999700000004

>  <s_epik_Chemistry_Notes>  (1) 
This compound has a N-S or N-O group and may undergo hydrolysis at high or low pH.

>  <s_epik_cmdline>  (1) 
J2VwaWtfcHl0aG9uJywgJy1waHQnLCAnMS4wJywgJy1waCcsICc3LjQnLCAnLXRuJywgJzgnLCAnLW1hJywgJzUwMCcsICctaW1hZScsICc8aW5maWxlLm1hZT4nLCAnLW9tYWUnLCAnPG91dGZpbGUubWFlPic=

>  <s_epik_input>  (1) 
W0NIM11bQ0gyXVtDQEhdKFtDSDNdKVtDQEBIXShbQ0hdPVtDSDJdKVtDSDJdW0NIMl1bQ0gyXU4oW09IXSlbQ0gyXVtDSDJdW0NASF0oW0NIM10pW0NASF0oW0NIMl1bQ0gzXSlbQ0gyXVtDQEhdKFtDSDNdKUMoPU8pW0NIM10=

>  <s_glide_docking_method>  (1) 
confgen

>  <s_i_glide_gridfile>  (1) 
gpcr_5ht2c_6bqh_protein_autoprepared_prepared

>  <s_lp_Force_Field>  (1) 
S-OPLS

>  <s_lp_Variant>  (1) 
DiffSBDD_30_num_sample_50-1

>  <s_m_source_file>  (1) 
generated__ligand_DiffSBDD_2026-05-06_prepared.sdf

>  <GenAI_Model>  (1) 
DiffSBDD

>  <Protein>  (1) 
GPCR_5HT2C

$$$$
DiffSBDD_30_num_sample_50
     RDKit          3D

  0  0  0  0  0  0  0  0  0  0999 V3000
M  V30 BEGIN CTAB
M  V30 COUNTS 68 67 0 0 1
M  V30 BEGIN ATOM
M  V30 1 C 39.233457 29.945330 53.559894 0
M  V30 2 C 37.890828 32.061917 59.220506 0 CFG=2
M  V30 3 C 37.094398 30.779038 58.886549 0
M  V30 4 O 40.667365 30.116695 61.157186 0
M  V30 5 C 39.737398 30.846263 63.251489 0
M  V30 6 C 36.420718 33.314601 61.023005 0
M  V30 7 C 37.571765 26.805526 53.582027 0
M  V30 8 C 39.648813 27.221561 50.707494 0
M  V30 9 C 38.465860 33.293676 56.926947 0
M  V30 10 C 37.690231 32.467553 60.721494 0 CFG=2
M  V30 11 C 38.881210 28.750664 52.630479 0 CFG=1
M  V30 12 C 38.913536 33.209737 61.329241 0
M  V30 13 C 39.892376 28.543912 51.453476 0 CFG=2
M  V30 14 C 39.009645 31.091921 55.861906 0
M  V30 15 C 35.070956 32.650390 60.738405 0
M  V30 16 C 37.633806 33.228727 58.231154 0
M  V30 17 C 40.266800 31.059101 61.836878 0
M  V30 18 C 40.286008 32.495877 61.295356 0 CFG=2
M  V30 19 C 38.479407 29.997442 54.912783 0
M  V30 20 C 39.930043 29.703202 50.431942 0
M  V30 21 O 37.966602 32.820147 54.653504 0 CHG=-1
M  V30 22 C 41.066878 30.699160 50.656615 0
M  V30 23 N 38.061384 32.268893 55.882294 0 CFG=2 CHG=1
M  V30 24 C 41.382563 33.328023 61.980617 0
M  V30 25 C 38.728578 27.471306 53.443353 0
M  V30 26 H 40.295849 29.929784 53.775378 0
M  V30 27 H 39.067467 30.884334 53.032836 0
M  V30 28 H 38.932121 31.775916 59.093323 0
M  V30 29 H 36.026906 30.884620 59.053444 0
M  V30 30 H 37.194780 30.475269 57.848357 0
M  V30 31 H 37.433539 29.942977 59.498702 0
M  V30 32 H 38.678192 30.591467 63.224099 0
M  V30 33 H 40.270902 30.027074 63.733739 0
M  V30 34 H 39.867332 31.742811 63.856623 0
M  V30 35 H 36.420048 33.564932 62.083242 0
M  V30 36 H 36.459567 34.276359 60.512069 0
M  V30 37 H 36.667070 27.157515 53.108680 0
M  V30 38 H 37.516892 25.901335 54.169803 0
M  V30 39 H 38.667432 27.194040 50.253476 0
M  V30 40 H 40.390192 27.074690 49.924587 0
M  V30 41 H 39.726902 26.357601 51.363689 0
M  V30 42 H 39.540025 33.220574 57.092215 0
M  V30 43 H 38.267472 34.262519 56.464676 0
M  V30 44 H 37.575143 31.544486 61.290569 0
M  V30 45 H 37.901989 28.953368 52.193945 0
M  V30 46 H 39.020114 34.171722 60.826639 0
M  V30 47 H 38.693098 33.455726 62.368576 0
M  V30 48 H 40.898593 28.447041 51.853470 0
M  V30 49 H 39.104386 30.727469 56.882226 0
M  V30 50 H 39.984083 31.472477 55.551856 0
M  V30 51 H 34.267348 33.221530 61.202172 0
M  V30 52 H 34.854589 32.616788 59.670640 0
M  V30 53 H 35.039484 31.636041 61.137138 0
M  V30 54 H 37.872738 34.155697 58.749545 0
M  V30 55 H 36.575299 33.319075 58.010773 0
M  V30 56 H 40.582076 32.421498 60.253510 0
M  V30 57 H 37.405794 30.105848 54.749528 0
M  V30 58 H 38.602452 29.053560 55.442117 0
M  V30 59 H 40.042229 29.311256 49.420374 0
M  V30 60 H 38.990276 30.241857 50.422633 0
M  V30 61 H 41.067057 31.440687 49.859463 0
M  V30 62 H 40.956425 31.221477 51.605157 0
M  V30 63 H 42.039776 30.209549 50.652998 0
M  V30 64 H 42.347973 32.820924 61.947586 0
M  V30 65 H 41.505437 34.288498 61.478984 0
M  V30 66 H 41.145473 33.531433 63.025858 0
M  V30 67 H 39.618874 27.097449 53.927398 0
M  V30 68 H 37.132222 31.909002 56.205778 0
M  V30 END ATOM
M  V30 BEGIN BOND
M  V30 1 1 3 2
M  V30 2 1 10 2
M  V30 3 1 10 6
M  V30 4 1 11 1
M  V30 5 1 12 10
M  V30 6 1 13 8
M  V30 7 1 13 11
M  V30 8 1 15 6
M  V30 9 1 16 2
M  V30 10 1 16 9
M  V30 11 2 17 4
M  V30 12 1 17 5
M  V30 13 1 18 12
M  V30 14 1 18 17
M  V30 15 1 19 1
M  V30 16 1 19 14
M  V30 17 1 20 13
M  V30 18 1 22 20
M  V30 19 1 23 9
M  V30 20 1 23 14
M  V30 21 1 23 21
M  V30 22 1 24 18
M  V30 23 2 25 7
M  V30 24 1 25 11
M  V30 25 1 26 1
M  V30 26 1 27 1
M  V30 27 1 2 28 CFG=1
M  V30 28 1 29 3
M  V30 29 1 30 3
M  V30 30 1 31 3
M  V30 31 1 32 5
M  V30 32 1 33 5
M  V30 33 1 34 5
M  V30 34 1 35 6
M  V30 35 1 36 6
M  V30 36 1 37 7
M  V30 37 1 38 7
M  V30 38 1 39 8
M  V30 39 1 40 8
M  V30 40 1 41 8
M  V30 41 1 42 9
M  V30 42 1 43 9
M  V30 43 1 10 44 CFG=1
M  V30 44 1 11 45 CFG=3
M  V30 45 1 46 12
M  V30 46 1 47 12
M  V30 47 1 13 48 CFG=1
M  V30 48 1 49 14
M  V30 49 1 50 14
M  V30 50 1 51 15
M  V30 51 1 52 15
M  V30 52 1 53 15
M  V30 53 1 54 16
M  V30 54 1 55 16
M  V30 55 1 18 56 CFG=3
M  V30 56 1 57 19
M  V30 57 1 58 19
M  V30 58 1 59 20
M  V30 59 1 60 20
M  V30 60 1 61 22
M  V30 61 1 62 22
M  V30 62 1 63 22
M  V30 63 1 64 24
M  V30 64 1 65 24
M  V30 65 1 66 24
M  V30 66 1 67 25
M  V30 67 1 23 68 CFG=1
M  V30 END BOND
M  V30 END CTAB
M  END
>  <i_epik_Tot_Q>  (1) 
0

>  <i_epik_Tot_abs_Q>  (1) 
2

>  <i_i_glide_confnum>  (1) 
1648

>  <i_i_glide_lignum>  (1) 
81

>  <i_i_glide_posenum>  (1) 
99

>  <i_i_glide_rotatable_bonds>  (1) 
15

>  <i_lp_mmshare_version>  (1) 
72125

>  <i_m_source_file_index>  (1) 
31

>  <i_f3d_flags>  (1) 
0

>  <num_sample>  (1) 
50

>  <b_lp_Chiralities_Consistent>  (1) 
1

>  <r_epik_Charging_Adjusted_Penalty>  (1) 
0.52251968911758562

>  <r_epik_Ionization_Penalty>  (1) 
0.019979657236955634

>  <r_epik_Ionization_Penalty_Charging>  (1) 
0.019979657236557934

>  <r_epik_Ionization_Penalty_Neutral>  (1) 
3.9770064437045143e-13

>  <r_epik_State_Penalty>  (1) 
0.50254003188102769

>  <r_glide_ring_energy>  (1) 
0

>  <r_i_docking_score>  (1) 
-4.8010368849411105

>  <r_i_glide_ecoul>  (1) 
-2.9887475096630416

>  <r_i_glide_eff_state_penalty>  (1) 
0.50254003188102769

>  <r_i_glide_einternal>  (1) 
7.5306269154803775

>  <r_i_glide_emodel>  (1) 
-43.809440741856271

>  <r_i_glide_emodel_strain>  (1) 
6.0806203202787046

>  <r_i_glide_energy>  (1) 
-39.817576573114742

>  <r_i_glide_erotb>  (1) 
1.833058027080513

>  <r_i_glide_esite>  (1) 
-0.10000000000000001

>  <r_i_glide_evdw>  (1) 
-36.8288290634517

>  <r_i_glide_gscore>  (1) 
-5.3035769168221378

>  <r_i_glide_gscore_strain>  (1) 
0.52015508006967615

>  <r_i_glide_hbond>  (1) 
-0.45599999999999996

>  <r_i_glide_ligand_efficiency>  (1) 
-0.19204147539764441

>  <r_i_glide_ligand_efficiency_ln>  (1) 
-1.1379896171964474

>  <r_i_glide_ligand_efficiency_sa>  (1) 
-0.56153268053528205

>  <r_i_glide_lipo>  (1) 
-3.0894683890257357

>  <r_i_glide_metal>  (1) 
-0

>  <r_i_glide_rewards>  (1) 
-1.7215680553245494

>  <r_lp_Energy>  (1) 
18.093928999999999

>  <s_epik_cmdline>  (1) 
J2VwaWtfcHl0aG9uJywgJy1waHQnLCAnMS4wJywgJy1waCcsICc3LjQnLCAnLXRuJywgJzgnLCAnLW1hJywgJzUwMCcsICctaW1hZScsICc8aW5maWxlLm1hZT4nLCAnLW9tYWUnLCAnPG91dGZpbGUubWFlPic=

>  <s_epik_input>  (1) 
W0NIM11bQ0gyXVtDQEhdKFtDSDNdKVtDQEBIXShbQ0hdPVtDSDJdKVtDSDJdW0NIMl1bQ0gyXU4oW09IXSlbQ0gyXVtDSDJdW0NASF0oW0NIM10pW0NASF0oW0NIMl1bQ0gzXSlbQ0gyXVtDQEhdKFtDSDNdKUMoPU8pW0NIM10=

>  <s_glide_docking_method>  (1) 
confgen

>  <s_i_glide_gridfile>  (1) 
gpcr_5ht2c_6bqh_protein_autoprepared_prepared

>  <s_lp_Force_Field>  (1) 
S-OPLS

>  <s_lp_Variant>  (1) 
DiffSBDD_30_num_sample_50-5

>  <s_m_source_file>  (1) 
generated__ligand_DiffSBDD_2026-05-06_prepared.sdf

>  <GenAI_Model>  (1) 
DiffSBDD

>  <Protein>  (1) 
GPCR_5HT2C

$$$$
DiffSBDD_2_num_sample_50
     RDKit          3D

  0  0  0  0  0  0  0  0  0  0999 V3000
M  V30 BEGIN CTAB
M  V30 COUNTS 69 73 0 0 1
M  V30 BEGIN ATOM
M  V30 1 C 39.953776 32.460739 62.546930 0
M  V30 2 C 38.227579 31.490947 55.978090 0
M  V30 3 C 40.359928 28.030465 61.926380 0
M  V30 4 C 35.971279 30.709479 60.546635 0
M  V30 5 F 37.619776 33.636615 56.491114 0
M  V30 6 C 38.305411 32.925750 55.611148 0
M  V30 7 C 39.966564 31.151576 62.444714 0
M  V30 8 C 41.561444 31.637655 63.604938 0
M  V30 9 C 37.999958 32.806885 60.047103 0
M  V30 10 C 39.343174 28.895147 61.198862 0 CFG=1
M  V30 11 C 41.295978 34.144854 64.168163 0
M  V30 12 C 44.097014 29.544072 64.554522 0 CFG=2
M  V30 13 C 37.867640 26.298968 56.134673 0
M  V30 14 C 38.285297 29.851952 57.733549 0
M  V30 15 C 40.658059 35.481258 63.841225 0
M  V30 16 C 40.882116 29.492052 59.400695 0
M  V30 17 C 38.396879 29.571044 59.212900 0 CFG=2
M  V30 18 C 42.003828 33.936315 65.291247 0
M  V30 19 O 44.048180 28.135167 64.571181 0
M  V30 20 O 37.061831 33.295371 59.098153 0
M  V30 21 C 37.871285 29.151285 55.421537 0
M  V30 22 F 39.568773 33.221772 55.834080 0
M  V30 23 O 44.180352 30.168242 65.836510 0
M  V30 24 C 37.961687 30.497223 55.018519 0
M  V30 25 C 42.890914 30.182119 65.198646 0 CFG=1
M  V30 26 C 38.411481 31.155354 57.298727 0
M  V30 27 P 37.818403 30.938429 60.394236 0 CFG=2 CHG=1
M  V30 28 C 42.608100 32.642240 65.593524 0
M  V30 29 C 38.832145 30.257614 61.853870 0 CFG=2
M  V30 30 C 37.884179 27.359254 57.252905 0
M  V30 31 C 41.161350 33.066669 63.119498 0 CFG=2
M  V30 32 N 41.110572 30.591208 62.981958 0
M  V30 33 N 39.589803 28.934270 59.751812 0
M  V30 34 C 38.020986 28.815835 56.792893 0
M  V30 35 F 37.865672 33.211304 54.400630 0
M  V30 36 C 42.416111 31.541683 64.821813 0
M  V30 37 H 39.150518 33.081429 62.228325 0
M  V30 38 H 40.112024 27.850227 62.972971 0
M  V30 39 H 40.272853 27.113778 61.382243 0
M  V30 40 H 41.395628 28.357102 61.853220 0
M  V30 41 H 35.633221 29.903189 59.894023 0
M  V30 42 H 35.646862 30.514307 61.551231 0
M  V30 43 H 35.431616 31.601116 60.227398 0
M  V30 44 H 39.015815 33.096845 59.775050 0
M  V30 45 H 37.707129 33.378027 60.922788 0
M  V30 46 H 38.538794 28.180593 61.132555 0
M  V30 47 H 44.657523 30.019356 63.752115 0
M  V30 48 H 37.825369 25.292246 56.550939 0
M  V30 49 H 36.997043 26.401957 55.483181 0
M  V30 50 H 38.770051 26.362865 55.522374 0
M  V30 51 H 39.623919 35.345893 63.524968 0
M  V30 52 H 40.667942 36.156500 64.698664 0
M  V30 53 H 41.200848 35.962913 63.025758 0
M  V30 54 H 41.663334 28.776577 59.656225 0
M  V30 55 H 40.954454 29.620205 58.320360 0
M  V30 56 H 41.099705 30.414617 59.939406 0
M  V30 57 H 37.611710 28.831598 59.356150 0
M  V30 58 H 42.112960 34.743762 66.002347 0
M  V30 59 H 44.925962 27.807582 64.700224 0
M  V30 60 H 36.808480 32.634079 58.460397 0
M  V30 61 H 37.666106 28.386309 54.688768 0
M  V30 62 H 37.823111 30.764638 53.981413 0
M  V30 63 H 42.141067 29.560406 65.686935 0
M  V30 64 H 38.638299 31.925845 57.986800 0
M  V30 65 H 43.185365 32.542442 66.501723 0
M  V30 66 H 38.141787 30.023687 62.666433 0
M  V30 67 H 38.712698 27.123865 57.920459 0
M  V30 68 H 36.976732 27.266009 57.848272 0
M  V30 69 H 41.813150 33.350076 62.293199 0
M  V30 END ATOM
M  V30 BEGIN BOND
M  V30 1 1 6 2
M  V30 2 1 6 5
M  V30 3 2 7 1
M  V30 4 1 10 3
M  V30 5 1 15 11
M  V30 6 1 17 14
M  V30 7 2 18 11
M  V30 8 1 19 12
M  V30 9 1 20 9
M  V30 10 1 22 6
M  V30 11 1 23 12
M  V30 12 1 24 2
M  V30 13 2 24 21
M  V30 14 1 25 12
M  V30 15 1 25 23
M  V30 16 2 26 2
M  V30 17 1 26 14
M  V30 18 1 27 4 CFG=1
M  V30 19 1 27 9
M  V30 20 1 27 17
M  V30 21 1 28 18
M  V30 22 1 29 7
M  V30 23 1 29 10
M  V30 24 1 29 27
M  V30 25 1 30 13
M  V30 26 1 31 1
M  V30 27 1 31 8
M  V30 28 1 31 11
M  V30 29 1 32 7
M  V30 30 2 32 8
M  V30 31 1 33 10
M  V30 32 1 33 16
M  V30 33 1 33 17
M  V30 34 2 34 14
M  V30 35 1 34 21
M  V30 36 1 34 30
M  V30 37 1 35 6
M  V30 38 1 36 8
M  V30 39 1 36 25
M  V30 40 2 36 28
M  V30 41 1 37 1
M  V30 42 1 38 3
M  V30 43 1 39 3
M  V30 44 1 40 3
M  V30 45 1 41 4
M  V30 46 1 42 4
M  V30 47 1 43 4
M  V30 48 1 44 9
M  V30 49 1 45 9
M  V30 50 1 10 46 CFG=3
M  V30 51 1 12 47 CFG=3
M  V30 52 1 48 13
M  V30 53 1 49 13
M  V30 54 1 50 13
M  V30 55 1 51 15
M  V30 56 1 52 15
M  V30 57 1 53 15
M  V30 58 1 54 16
M  V30 59 1 55 16
M  V30 60 1 56 16
M  V30 61 1 17 57 CFG=3
M  V30 62 1 58 18
M  V30 63 1 59 19
M  V30 64 1 60 20
M  V30 65 1 61 21
M  V30 66 1 62 24
M  V30 67 1 25 63 CFG=1
M  V30 68 1 64 26
M  V30 69 1 65 28
M  V30 70 1 29 66 CFG=1
M  V30 71 1 67 30
M  V30 72 1 68 30
M  V30 73 1 31 69 CFG=3
M  V30 END BOND
M  V30 END CTAB
M  END
>  <i_epik_Tot_Q>  (1) 
1

>  <i_epik_Tot_abs_Q>  (1) 
1

>  <i_i_glide_confnum>  (1) 
34

>  <i_i_glide_lignum>  (1) 
8

>  <i_i_glide_posenum>  (1) 
122

>  <i_i_glide_rotatable_bonds>  (1) 
8

>  <i_lp_mmshare_version>  (1) 
72125

>  <i_m_source_file_index>  (1) 
3

>  <i_f3d_flags>  (1) 
0

>  <num_sample>  (1) 
50

>  <b_lp_Chiralities_Consistent>  (1) 
1

>  <r_epik_Charging_Adjusted_Penalty>  (1) 
0.0033292626678827373

>  <r_epik_Ionization_Penalty>  (1) 
0.0034349233012131116

>  <r_epik_Ionization_Penalty_Charging>  (1) 
0

>  <r_epik_Ionization_Penalty_Neutral>  (1) 
0.0034349233012131116

>  <r_epik_State_Penalty>  (1) 
0.0033292626678827373

>  <r_glide_ring_energy>  (1) 
0

>  <r_i_docking_score>  (1) 
-4.7647217168140745

>  <r_i_glide_ecoul>  (1) 
0.20137189739962702

>  <r_i_glide_eff_state_penalty>  (1) 
0.0033292626678827373

>  <r_i_glide_einternal>  (1) 
19.637105363096882

>  <r_i_glide_emodel>  (1) 
-21.816807527975001

>  <r_i_glide_emodel_strain>  (1) 
1.5748473940467704

>  <r_i_glide_energy>  (1) 
-28.950669464290584

>  <r_i_glide_erotb>  (1) 
0.30231676593683265

>  <r_i_glide_esite>  (1) 
-0.13379805889427085

>  <r_i_glide_evdw>  (1) 
-29.152041361690213

>  <r_i_glide_gscore>  (1) 
-4.7680509794819574

>  <r_i_glide_gscore_strain>  (1) 
0

>  <r_i_glide_hbond>  (1) 
-0.064892361243736527

>  <r_i_glide_ligand_efficiency>  (1) 
-0.13235338102261318

>  <r_i_glide_ligand_efficiency_ln>  (1) 
-1.0395335507043852

>  <r_i_glide_ligand_efficiency_sa>  (1) 
-0.43702123528189951

>  <r_i_glide_lipo>  (1) 
-2.403462337499175

>  <r_i_glide_metal>  (1) 
-0

>  <r_i_glide_rewards>  (1) 
-1.04081870430704

>  <r_lp_Energy>  (1) 
42.025849000000001

>  <s_epik_Chemistry_Notes>  (1) 
This compound has an imine and may undergo hydrolysis. This compound contains an acetal/aminal-like group ( X-CH(R)-Y where X, Y are N, S, or O) that may be acid/base labile, releasing an aldehyde.

>  <s_epik_cmdline>  (1) 
J2VwaWtfcHl0aG9uJywgJy1waHQnLCAnMS4wJywgJy1waCcsICc3LjQnLCAnLXRuJywgJzgnLCAnLW1hJywgJzUwMCcsICctaW1hZScsICc8aW5maWxlLm1hZT4nLCAnLW9tYWUnLCAnPG91dGZpbGUubWFlPic=

>  <s_epik_input>  (1) 
W09IXVtDSF0xT1tDQEhdMUMyPVtDSF1bQ0hdPUMoW0NIM10pW0NAQEhdKEMyPTMpW0NIXT1DKE4zKVtDQEBIXTRbQ0BIXShbQ0gzXSlOKFtDSDNdKVtDQEBIXShbUEArXTQoW0NIM10pW0NIMl1bT0hdKWMoW2NIXTUpYyhbQ0gyXVtDSDNdKVtjSF1bY0hdYzVDKEYpKEYpRg==

>  <s_glide_docking_method>  (1) 
confgen

>  <s_i_glide_gridfile>  (1) 
gpcr_5ht2c_6bqh_protein_autoprepared_prepared

>  <s_lp_Force_Field>  (1) 
S-OPLS

>  <s_lp_Variant>  (1) 
DiffSBDD_2_num_sample_50-1

>  <s_m_source_file>  (1) 
generated__ligand_DiffSBDD_2026-05-06_prepared.sdf

>  <GenAI_Model>  (1) 
DiffSBDD

>  <Protein>  (1) 
GPCR_5HT2C

$$$$
DiffSBDD_0_num_sample_50
     RDKit          3D

  0  0  0  0  0  0  0  0  0  0999 V3000
M  V30 BEGIN CTAB
M  V30 COUNTS 65 69 0 0 1
M  V30 BEGIN ATOM
M  V30 1 C 39.920323 28.042692 50.713327 0
M  V30 2 C 39.159863 27.220923 51.554740 0
M  V30 3 C 37.694197 26.864283 53.610166 0
M  V30 4 S 39.338392 32.203187 60.654078 0
M  V30 5 O 36.303158 29.969965 59.449711 0
M  V30 6 C 40.445548 26.078557 56.308440 0
M  V30 7 C 37.304521 30.421564 56.047639 0
M  V30 8 C 38.680157 29.131829 52.971876 0
M  V30 9 C 39.876329 26.609726 54.994425 0
M  V30 10 C 38.870564 35.191269 61.854585 0
M  V30 11 C 37.280370 33.803651 61.143117 0
M  V30 12 F 40.830809 30.189535 50.197935 0
M  V30 13 C 39.467593 29.948481 52.139763 0
M  V30 14 C 36.803911 35.029776 61.123068 0
M  V30 15 C 38.722232 33.622073 61.755595 0 CFG=1
M  V30 16 C 40.241757 28.684467 59.792264 0
M  V30 17 C 39.067351 30.948748 57.768369 0
M  V30 18 O 41.286724 28.821465 59.119810 0
M  V30 19 C 37.381924 30.561082 59.495716 0
M  V30 20 C 38.916107 32.303045 55.639982 0
M  V30 21 C 38.918306 28.687422 59.020333 0 CFG=2
M  V30 22 C 38.388141 26.286634 54.888003 0 CFG=1
M  V30 23 C 38.125649 31.515505 56.698178 0
M  V30 24 N 38.324982 26.740310 57.454909 0 CFG=2 CHG=1
M  V30 25 C 36.708702 32.705783 60.522673 0
M  V30 26 C 39.141748 27.942231 57.673632 0 CFG=2
M  V30 27 C 37.617352 31.822241 60.222616 0
M  V30 28 N 38.484863 30.105006 58.854718 0
M  V30 29 C 39.754996 26.564062 57.567582 0 CFG=2
M  V30 30 C 38.533815 27.759850 52.689686 0
M  V30 31 O 40.185085 28.527970 61.030219 0 CHG=-1
M  V30 32 C 37.633072 26.765932 56.141041 0
M  V30 33 C 40.082221 29.404301 51.007091 0
M  V30 34 C 37.777171 35.886343 61.561209 0
M  V30 35 H 40.396552 27.621274 49.853523 0
M  V30 36 H 39.067417 26.176244 51.325988 0
M  V30 37 H 37.301641 26.021690 53.052538 0
M  V30 38 H 36.797471 27.429547 53.870112 0
M  V30 39 H 41.468160 26.421483 56.380944 0
M  V30 40 H 40.437670 24.988212 56.300162 0
M  V30 41 H 38.019854 29.703580 55.706505 0
M  V30 42 H 36.635708 29.936799 56.752859 0
M  V30 43 H 36.712917 30.787125 55.207872 0
M  V30 44 H 38.196550 29.556366 53.813287 0
M  V30 45 H 40.041116 27.683571 54.942884 0
M  V30 46 H 40.419579 26.169735 54.156290 0
M  V30 47 H 39.792104 35.638267 62.197190 0
M  V30 48 H 39.585458 30.997746 52.366791 0
M  V30 49 H 35.867478 35.324196 60.683702 0
M  V30 50 H 38.661781 33.222819 62.767670 0
M  V30 51 H 39.467359 31.870706 58.155962 0
M  V30 52 H 39.917622 30.454642 57.308599 0
M  V30 53 H 39.647707 31.672060 55.134621 0
M  V30 54 H 38.250967 32.711489 54.879006 0
M  V30 55 H 39.450726 33.141619 56.088317 0
M  V30 56 H 38.212723 28.132282 59.636369 0
M  V30 57 H 38.302792 25.198981 54.857578 0
M  V30 58 H 37.467418 32.232645 57.179619 0
M  V30 59 H 35.662680 32.622239 60.258864 0
M  V30 60 H 39.350075 28.538086 56.799566 0
M  V30 61 H 39.986897 26.025174 58.483572 0
M  V30 62 H 37.467365 27.808310 55.964205 0
M  V30 63 H 36.668186 26.266947 56.218866 0
M  V30 64 H 37.690932 36.962342 61.599693 0
M  V30 65 H 37.771034 26.545306 58.277091 0
M  V30 END ATOM
M  V30 BEGIN BOND
M  V30 1 2 2 1
M  V30 2 1 9 6
M  V30 3 1 13 8
M  V30 4 2 14 11
M  V30 5 1 15 4
M  V30 6 1 15 10
M  V30 7 1 15 11
M  V30 8 2 18 16
M  V30 9 2 19 5
M  V30 10 1 21 16
M  V30 11 1 22 3
M  V30 12 1 22 9
M  V30 13 1 23 7
M  V30 14 1 23 17
M  V30 15 1 23 20
M  V30 16 1 25 11
M  V30 17 1 26 21
M  V30 18 1 26 24
M  V30 19 1 27 4
M  V30 20 1 27 19
M  V30 21 2 27 25
M  V30 22 1 28 17
M  V30 23 1 28 19
M  V30 24 1 28 21
M  V30 25 1 29 6
M  V30 26 1 29 24
M  V30 27 1 29 26
M  V30 28 1 30 2
M  V30 29 1 30 3
M  V30 30 2 30 8
M  V30 31 1 31 16
M  V30 32 1 32 22
M  V30 33 1 32 24
M  V30 34 1 33 1
M  V30 35 1 33 12
M  V30 36 2 33 13
M  V30 37 2 34 10
M  V30 38 1 34 14
M  V30 39 1 35 1
M  V30 40 1 36 2
M  V30 41 1 37 3
M  V30 42 1 38 3
M  V30 43 1 39 6
M  V30 44 1 40 6
M  V30 45 1 41 7
M  V30 46 1 42 7
M  V30 47 1 43 7
M  V30 48 1 44 8
M  V30 49 1 45 9
M  V30 50 1 46 9
M  V30 51 1 47 10
M  V30 52 1 48 13
M  V30 53 1 49 14
M  V30 54 1 15 50 CFG=1
M  V30 55 1 51 17
M  V30 56 1 52 17
M  V30 57 1 53 20
M  V30 58 1 54 20
M  V30 59 1 55 20
M  V30 60 1 21 56 CFG=1
M  V30 61 1 22 57 CFG=3
M  V30 62 1 58 23
M  V30 63 1 59 25
M  V30 64 1 26 60 CFG=3
M  V30 65 1 29 61 CFG=1
M  V30 66 1 62 32
M  V30 67 1 63 32
M  V30 68 1 64 34
M  V30 69 1 24 65 CFG=1
M  V30 END BOND
M  V30 END CTAB
M  END
>  <i_epik_Tot_Q>  (1) 
0

>  <i_epik_Tot_abs_Q>  (1) 
2

>  <i_i_glide_confnum>  (1) 
151

>  <i_i_glide_lignum>  (1) 
4

>  <i_i_glide_posenum>  (1) 
333

>  <i_i_glide_rotatable_bonds>  (1) 
9

>  <i_lp_mmshare_version>  (1) 
72125

>  <i_m_source_file_index>  (1) 
1

>  <i_f3d_flags>  (1) 
0

>  <num_sample>  (1) 
50

>  <b_lp_Chiralities_Consistent>  (1) 
1

>  <r_epik_Charging_Adjusted_Penalty>  (1) 
0.0020295482604282666

>  <r_epik_Ionization_Penalty>  (1) 
0.0020295482639142975

>  <r_epik_Ionization_Penalty_Charging>  (1) 
0.0020295482604282666

>  <r_epik_Ionization_Penalty_Neutral>  (1) 
3.4860309872641501e-12

>  <r_epik_State_Penalty>  (1) 
-0

>  <r_glide_ring_energy>  (1) 
0

>  <r_i_docking_score>  (1) 
-4.7193538718882664

>  <r_i_glide_ecoul>  (1) 
0.5171648362859127

>  <r_i_glide_eff_state_penalty>  (1) 
-0

>  <r_i_glide_einternal>  (1) 
16.772477017535085

>  <r_i_glide_emodel>  (1) 
-46.193023510460698

>  <r_i_glide_emodel_strain>  (1) 
4.2587737845973663

>  <r_i_glide_energy>  (1) 
-40.594569216816808

>  <r_i_glide_erotb>  (1) 
0.52278502944784222

>  <r_i_glide_esite>  (1) 
-0.04789644221093449

>  <r_i_glide_evdw>  (1) 
-41.111734053102722

>  <r_i_glide_gscore>  (1) 
-4.7193538718882664

>  <r_i_glide_gscore_strain>  (1) 
0.064693446149341582

>  <r_i_glide_hbond>  (1) 
0

>  <r_i_glide_ligand_efficiency>  (1) 
-0.13880452564377255

>  <r_i_glide_ligand_efficiency_ln>  (1) 
-1.0426376436924389

>  <r_i_glide_ligand_efficiency_sa>  (1) 
-0.44967277934628863

>  <r_i_glide_lipo>  (1) 
-4.599215769171586

>  <r_i_glide_metal>  (1) 
-0

>  <r_i_glide_rewards>  (1) 
1.3182918411093203

>  <r_lp_Energy>  (1) 
54.523967999999996

>  <r_lp_tautomer_probability>  (1) 
1

>  <s_epik_cmdline>  (1) 
J2VwaWtfcHl0aG9uJywgJy1waHQnLCAnMS4wJywgJy1waCcsICc3LjQnLCAnLXRuJywgJzgnLCAnLW1hJywgJzUwMCcsICctaW1hZScsICc8aW5maWxlLm1hZT4nLCAnLW9tYWUnLCAnPG91dGZpbGUubWFlPic=

>  <s_epik_input>  (1) 
W2NIXTFbY0hdYyhGKVtjSF1bY0hdYzFbQ0gyXVtDQEhdKFtDSDJdMilbQ0gyXVtDSDJdW0NIXShOMjMpW0NAQEhdM1tDQEBIXShDKD1PKVtPSF0pTihbQ0gyXVtDSF0oW0NIM10pW0NIM10pQyg9TylDKD1bQ0hdNClTW0NASF0oQzQ9NSlbQ0hdPVtDSF1bQ0hdNQ==

>  <s_glide_docking_method>  (1) 
confgen

>  <s_i_glide_gridfile>  (1) 
gpcr_5ht2c_6bqh_protein_autoprepared_prepared

>  <s_lp_Force_Field>  (1) 
S-OPLS

>  <s_lp_Variant>  (1) 
DiffSBDD_0_num_sample_50-4

>  <s_m_source_file>  (1) 
generated__ligand_DiffSBDD_2026-05-06_prepared.sdf

>  <GenAI_Model>  (1) 
DiffSBDD

>  <Protein>  (1) 
GPCR_5HT2C

$$$$
DiffSBDD_5_num_sample_50
     RDKit          3D

  0  0  0  0  0  0  0  0  0  0999 V3000
M  V30 BEGIN CTAB
M  V30 COUNTS 80 82 0 0 1
M  V30 BEGIN ATOM
M  V30 1 C 37.518822 31.041228 59.684209 0
M  V30 2 C 37.882967 30.964834 57.316976 0 CFG=2
M  V30 3 N 40.012395 35.956310 63.167504 0
M  V30 4 F 37.067392 23.516640 54.823327 0
M  V30 5 C 36.378018 33.892080 61.238760 0
M  V30 6 N 37.853973 31.980005 60.513142 0 CHG=1
M  V30 7 C 37.222307 36.302844 61.627203 0 CFG=1
M  V30 8 C 38.197747 24.858506 56.397022 0 CFG=2
M  V30 9 C 39.387788 31.072180 55.240108 0
M  V30 10 C 36.750771 32.409935 61.403485 0 CFG=2
M  V30 11 N 36.276499 30.681783 59.831804 0
M  V30 12 C 38.643518 31.649821 54.028583 0
M  V30 13 C 39.222574 28.357247 57.444721 0 CFG=2
M  V30 14 C 40.559956 30.251294 54.702488 0
M  V30 15 N 40.148265 26.321433 56.450718 0 CHG=1
M  V30 16 C 39.458734 37.236809 62.710145 0
M  V30 17 C 37.867362 32.512439 57.293247 0
M  V30 18 C 35.557846 31.441657 60.874230 0
M  V30 19 C 38.456066 30.453497 58.648117 0 CFG=2
M  V30 20 C 39.303376 25.505392 55.552137 0
M  V30 21 O 41.318523 34.135277 62.883783 0
M  V30 22 C 36.917456 24.578961 55.604656 0
M  V30 23 C 41.322102 35.711599 61.086022 0
M  V30 24 C 40.883811 35.203042 62.461145 0
M  V30 25 S 37.869307 25.989031 57.755946 0
M  V30 26 C 38.494138 28.918214 58.693316 0
M  V30 27 C 38.488921 28.837759 56.165778 0
M  V30 28 C 35.937727 37.660666 63.128953 0
M  V30 29 O 36.591665 36.421447 62.896169 0
M  V30 30 O 38.136707 38.480456 61.053477 0
M  V30 31 N 38.396867 30.322201 56.074266 0 CFG=1 CHG=1
M  V30 32 C 38.485929 37.182903 61.498966 0 CFG=2
M  V30 33 N 39.304837 26.891315 57.519637 0
M  V30 34 C 37.579671 34.818143 61.421046 0
M  V30 35 H 36.879269 30.556939 57.337848 0
M  V30 36 H 39.720895 35.626744 64.076435 0
M  V30 37 H 35.610824 34.138818 61.973841 0
M  V30 38 H 35.926641 34.071197 60.262221 0
M  V30 39 H 36.519318 36.575349 60.838032 0
M  V30 40 H 38.570092 23.940807 56.853062 0
M  V30 41 H 39.843499 31.877269 55.814737 0
M  V30 42 H 37.032971 32.184592 62.431729 0
M  V30 43 H 35.817078 29.986934 59.259258 0
M  V30 44 H 39.335526 32.021420 53.277324 0
M  V30 45 H 38.052086 30.877019 53.538007 0
M  V30 46 H 37.970481 32.464636 54.289826 0
M  V30 47 H 40.242404 28.743573 57.443753 0
M  V30 48 H 41.326205 30.921222 54.312285 0
M  V30 49 H 41.029493 29.621425 55.453491 0
M  V30 50 H 40.241240 29.621427 53.873332 0
M  V30 51 H 40.607197 27.078592 55.965415 0
M  V30 52 H 40.266896 37.945871 62.538071 0
M  V30 53 H 38.917270 37.621412 63.571412 0
M  V30 54 H 37.219470 32.902189 58.077949 0
M  V30 55 H 38.854060 32.947926 57.454656 0
M  V30 56 H 37.467428 32.908596 56.362997 0
M  V30 57 H 35.131962 30.821122 61.655904 0
M  V30 58 H 34.746313 32.009556 60.419372 0
M  V30 59 H 39.467404 30.822903 58.802794 0
M  V30 60 H 39.867434 24.759484 55.001182 0
M  V30 61 H 38.863023 26.168134 54.807806 0
M  V30 62 H 36.066923 24.372778 56.253497 0
M  V30 63 H 36.667419 25.422300 54.963788 0
M  V30 64 H 41.467379 36.789995 61.053497 0
M  V30 65 H 42.267378 35.255642 60.804190 0
M  V30 66 H 40.609415 35.409466 60.322298 0
M  V30 67 H 38.986298 28.589124 59.608711 0
M  V30 68 H 37.471945 28.545643 58.733776 0
M  V30 69 H 38.903461 28.415828 55.254059 0
M  V30 70 H 37.467405 28.464043 56.192339 0
M  V30 71 H 35.265314 37.570094 63.981912 0
M  V30 72 H 36.667412 38.421442 63.375611 0
M  V30 73 H 35.361567 38.021413 62.274833 0
M  V30 74 H 38.880159 38.858101 60.608551 0
M  V30 75 H 39.020757 36.786227 60.653486 0
M  V30 76 H 38.210889 34.717524 60.538077 0
M  V30 77 H 38.176950 34.457904 62.253495 0
M  V30 78 H 40.840032 25.738096 56.907298 0
M  V30 79 H 38.774060 32.394359 60.557092 0
M  V30 80 H 37.584982 30.437002 55.481569 0
M  V30 END ATOM
M  V30 BEGIN BOND
M  V30 1 2 6 1
M  V30 2 1 10 5
M  V30 3 1 10 6
M  V30 4 1 11 1
M  V30 5 1 12 9
M  V30 6 1 14 9
M  V30 7 1 16 3
M  V30 8 1 17 2
M  V30 9 1 18 10
M  V30 10 1 18 11
M  V30 11 1 19 1
M  V30 12 1 19 2
M  V30 13 1 20 8
M  V30 14 1 20 15
M  V30 15 1 22 4
M  V30 16 1 22 8
M  V30 17 1 24 3
M  V30 18 2 24 21
M  V30 19 1 24 23
M  V30 20 1 25 8
M  V30 21 1 26 13
M  V30 22 1 26 19
M  V30 23 1 27 13
M  V30 24 1 29 7
M  V30 25 1 29 28
M  V30 26 1 31 2
M  V30 27 1 31 9
M  V30 28 1 31 27
M  V30 29 1 32 7
M  V30 30 1 32 16
M  V30 31 1 32 30
M  V30 32 1 33 13
M  V30 33 1 33 15
M  V30 34 1 33 25
M  V30 35 1 34 5
M  V30 36 1 34 7
M  V30 37 1 2 35 CFG=1
M  V30 38 1 36 3
M  V30 39 1 37 5
M  V30 40 1 38 5
M  V30 41 1 7 39 CFG=3
M  V30 42 1 8 40 CFG=1
M  V30 43 1 41 9
M  V30 44 1 10 42 CFG=1
M  V30 45 1 43 11
M  V30 46 1 44 12
M  V30 47 1 45 12
M  V30 48 1 46 12
M  V30 49 1 13 47 CFG=3
M  V30 50 1 48 14
M  V30 51 1 49 14
M  V30 52 1 50 14
M  V30 53 1 51 15
M  V30 54 1 52 16
M  V30 55 1 53 16
M  V30 56 1 54 17
M  V30 57 1 55 17
M  V30 58 1 56 17
M  V30 59 1 57 18
M  V30 60 1 58 18
M  V30 61 1 19 59 CFG=1
M  V30 62 1 60 20
M  V30 63 1 61 20
M  V30 64 1 62 22
M  V30 65 1 63 22
M  V30 66 1 64 23
M  V30 67 1 65 23
M  V30 68 1 66 23
M  V30 69 1 67 26
M  V30 70 1 68 26
M  V30 71 1 69 27
M  V30 72 1 70 27
M  V30 73 1 71 28
M  V30 74 1 72 28
M  V30 75 1 73 28
M  V30 76 1 74 30
M  V30 77 1 32 75 CFG=3
M  V30 78 1 76 34
M  V30 79 1 77 34
M  V30 80 1 78 15
M  V30 81 1 79 6
M  V30 82 1 31 80 CFG=3
M  V30 END BOND
M  V30 END CTAB
M  END
>  <i_epik_Tot_Q>  (1) 
3

>  <i_epik_Tot_abs_Q>  (1) 
3

>  <i_i_glide_confnum>  (1) 
999

>  <i_i_glide_lignum>  (1) 
14

>  <i_i_glide_posenum>  (1) 
215

>  <i_i_glide_rotatable_bonds>  (1) 
13

>  <i_lp_mmshare_version>  (1) 
72125

>  <i_m_source_file_index>  (1) 
6

>  <i_f3d_flags>  (1) 
0

>  <num_sample>  (1) 
50

>  <b_lp_Chiralities_Consistent>  (1) 
1

>  <r_epik_Charging_Adjusted_Penalty>  (1) 
0.16301919670703535

>  <r_epik_Ionization_Penalty>  (1) 
0.082191666583868089

>  <r_epik_Ionization_Penalty_Charging>  (1) 
0.082191230012028396

>  <r_epik_Ionization_Penalty_Neutral>  (1) 
4.3657183969654913e-07

>  <r_epik_State_Penalty>  (1) 
0.080827966695006942

>  <r_glide_ring_energy>  (1) 
0

>  <r_i_docking_score>  (1) 
-4.6703490424617096

>  <r_i_glide_ecoul>  (1) 
-0.91904620510340074

>  <r_i_glide_eff_state_penalty>  (1) 
0.080827966695006942

>  <r_i_glide_einternal>  (1) 
9.4444451623569243

>  <r_i_glide_emodel>  (1) 
-47.151793413606953

>  <r_i_glide_emodel_strain>  (1) 
3.3358393610157435

>  <r_i_glide_energy>  (1) 
-39.377693015902345

>  <r_i_glide_erotb>  (1) 
0.63983490757673345

>  <r_i_glide_esite>  (1) 
-0.15241220162596042

>  <r_i_glide_evdw>  (1) 
-38.458646810798946

>  <r_i_glide_gscore>  (1) 
-4.7511770091567165

>  <r_i_glide_gscore_strain>  (1) 
0

>  <r_i_glide_hbond>  (1) 
0

>  <r_i_glide_ligand_efficiency>  (1) 
-0.13736320713122674

>  <r_i_glide_ligand_efficiency_ln>  (1) 
-1.0318111023332059

>  <r_i_glide_ligand_efficiency_sa>  (1) 
-0.44500346688364562

>  <r_i_glide_lipo>  (1) 
-3.1496593221402942

>  <r_i_glide_metal>  (1) 
-0

>  <r_i_glide_rewards>  (1) 
-0.028151121661737166

>  <r_lp_Energy>  (1) 
47.464686

>  <s_epik_Chemistry_Notes>  (1) 
This compound has an imine and may undergo hydrolysis. This compound has a N-S or N-O group and may undergo hydrolysis at high or low pH.

>  <s_epik_cmdline>  (1) 
J2VwaWtfcHl0aG9uJywgJy1waHQnLCAnMS4wJywgJy1waCcsICc3LjQnLCAnLXRuJywgJzgnLCAnLW1hJywgJzUwMCcsICctaW1hZScsICc8aW5maWxlLm1hZT4nLCAnLW9tYWUnLCAnPG91dGZpbGUubWFlPic=

>  <s_epik_input>  (1) 
RltDSDJdW0NASF0xW0NIMl1bTkhdTihTMSlbQ0BASF0oW0NIMl1OMltDSF0oW0NIM10pW0NIM10pW0NIMl1bQ0BASF0oW0NASF0yW0NIM10pQzM9TltDQEhdKFtDSDJdW05IXTMpW0NIMl1bQ0gyXVtDQEBIXShPW0NIM10pW0NAQEhdKFtPSF0pW0NIMl1bTkhdQyg9TylbQ0gzXQ==

>  <s_glide_docking_method>  (1) 
confgen

>  <s_i_glide_gridfile>  (1) 
gpcr_5ht2c_6bqh_protein_autoprepared_prepared

>  <s_lp_Force_Field>  (1) 
S-OPLS

>  <s_lp_Variant>  (1) 
DiffSBDD_5_num_sample_50-1

>  <s_m_source_file>  (1) 
generated__ligand_DiffSBDD_2026-05-06_prepared.sdf

>  <GenAI_Model>  (1) 
DiffSBDD

>  <Protein>  (1) 
GPCR_5HT2C

$$$$
DiffSBDD_0_num_sample_50
     RDKit          3D

  0  0  0  0  0  0  0  0  0  0999 V3000
M  V30 BEGIN CTAB
M  V30 COUNTS 65 69 0 0 1
M  V30 BEGIN ATOM
M  V30 1 C 40.819755 34.094982 62.030890 0
M  V30 2 C 39.549023 34.342153 61.478260 0
M  V30 3 C 37.159221 33.636280 61.016033 0
M  V30 4 S 38.267681 27.647433 51.975991 0
M  V30 5 O 37.466398 26.952508 54.751613 0
M  V30 6 C 37.777653 33.590789 57.127589 0
M  V30 7 C 41.305431 28.192386 57.129162 0
M  V30 8 C 38.777587 32.179049 62.304065 0
M  V30 9 C 37.064794 34.036276 58.462104 0
M  V30 10 C 39.875021 29.552492 49.851222 0
M  V30 11 C 39.868960 29.753362 52.049087 0
M  V30 12 F 42.280874 32.654329 63.255310 0
M  V30 13 C 40.045703 31.933299 62.855160 0
M  V30 14 C 40.267246 30.885230 51.532246 0
M  V30 15 C 39.657729 28.563665 51.053462 0 CFG=1
M  V30 16 C 37.369950 30.820696 55.050712 0
M  V30 17 C 38.791974 27.800057 57.009282 0
M  V30 18 O 38.023386 31.778235 54.582327 0
M  V30 19 C 38.165194 27.964010 54.700525 0
M  V30 20 C 40.454875 26.232242 55.809489 0
M  V30 21 C 37.971420 29.996093 56.183820 0 CFG=2
M  V30 22 C 36.990232 32.982206 59.623049 0 CFG=1
M  V30 23 C 40.191572 27.149260 57.012029 0
M  V30 24 N 37.867018 31.550781 57.946887 0 CFG=2 CHG=1
M  V30 25 C 39.508255 29.551288 53.356494 0
M  V30 26 C 38.812737 30.877290 57.156755 0 CFG=2
M  V30 27 C 38.736389 28.510453 53.470386 0
M  V30 28 N 38.541306 28.659225 55.824915 0
M  V30 29 C 38.777740 32.457959 57.314270 0 CFG=1
M  V30 30 C 38.525751 33.383846 61.616878 0
M  V30 31 O 36.267441 30.421378 54.653462 0 CHG=-1
M  V30 32 C 37.872282 31.722095 59.386247 0
M  V30 33 C 41.065674 32.890416 62.721814 0
M  V30 34 C 40.267358 30.770298 50.180011 0
M  V30 35 H 41.604928 34.828094 61.924946 0
M  V30 36 H 39.360742 35.265147 60.948235 0
M  V30 37 H 36.948736 34.706682 60.990723 0
M  V30 38 H 36.417550 33.218877 61.698978 0
M  V30 39 H 38.268032 34.441499 56.664733 0
M  V30 40 H 37.067431 33.286613 56.377427 0
M  V30 41 H 41.315027 28.821362 56.240425 0
M  V30 42 H 41.176740 28.823725 58.007845 0
M  V30 43 H 42.284775 27.720751 57.212975 0
M  V30 44 H 37.995542 31.443238 62.409827 0
M  V30 45 H 37.478488 34.975766 58.819521 0
M  V30 46 H 36.037144 34.318772 58.233051 0
M  V30 47 H 39.764501 29.221420 48.833853 0
M  V30 48 H 40.236795 31.008605 63.382581 0
M  V30 49 H 40.414283 31.797549 52.079041 0
M  V30 50 H 40.544565 27.941888 51.097226 0
M  V30 51 H 38.669766 28.353775 57.938916 0
M  V30 52 H 38.034178 27.019048 57.101930 0
M  V30 53 H 40.420473 26.737993 54.849475 0
M  V30 54 H 41.467325 25.884147 55.853459 0
M  V30 55 H 39.782781 25.373802 55.785586 0
M  V30 56 H 37.084188 29.685816 56.744185 0
M  V30 57 H 35.958443 32.624088 59.577595 0
M  V30 58 H 40.250989 26.523321 57.903813 0
M  V30 59 H 39.827381 30.177636 54.175942 0
M  V30 60 H 39.520368 30.359275 57.793590 0
M  V30 61 H 39.585454 32.821490 57.941144 0
M  V30 62 H 38.906202 31.806389 59.718222 0
M  V30 63 H 37.445081 30.846814 59.878369 0
M  V30 64 H 40.486173 31.566420 49.483585 0
M  V30 65 H 36.942118 31.621957 57.507423 0
M  V30 END ATOM
M  V30 BEGIN BOND
M  V30 1 2 2 1
M  V30 2 1 9 6
M  V30 3 1 13 8
M  V30 4 2 14 11
M  V30 5 1 15 4
M  V30 6 1 15 10
M  V30 7 1 15 11
M  V30 8 2 18 16
M  V30 9 2 19 5
M  V30 10 1 21 16
M  V30 11 1 22 3
M  V30 12 1 22 9
M  V30 13 1 23 7
M  V30 14 1 23 17
M  V30 15 1 23 20
M  V30 16 1 25 11
M  V30 17 1 26 21
M  V30 18 1 26 24
M  V30 19 1 27 4
M  V30 20 1 27 19
M  V30 21 2 27 25
M  V30 22 1 28 17
M  V30 23 1 28 19
M  V30 24 1 28 21
M  V30 25 1 29 6
M  V30 26 1 29 24
M  V30 27 1 29 26
M  V30 28 1 30 2
M  V30 29 1 30 3
M  V30 30 2 30 8
M  V30 31 1 31 16
M  V30 32 1 32 22
M  V30 33 1 32 24
M  V30 34 1 33 1
M  V30 35 1 33 12
M  V30 36 2 33 13
M  V30 37 2 34 10
M  V30 38 1 34 14
M  V30 39 1 35 1
M  V30 40 1 36 2
M  V30 41 1 37 3
M  V30 42 1 38 3
M  V30 43 1 39 6
M  V30 44 1 40 6
M  V30 45 1 41 7
M  V30 46 1 42 7
M  V30 47 1 43 7
M  V30 48 1 44 8
M  V30 49 1 45 9
M  V30 50 1 46 9
M  V30 51 1 47 10
M  V30 52 1 48 13
M  V30 53 1 49 14
M  V30 54 1 15 50 CFG=1
M  V30 55 1 51 17
M  V30 56 1 52 17
M  V30 57 1 53 20
M  V30 58 1 54 20
M  V30 59 1 55 20
M  V30 60 1 21 56 CFG=1
M  V30 61 1 22 57 CFG=1
M  V30 62 1 58 23
M  V30 63 1 59 25
M  V30 64 1 26 60 CFG=1
M  V30 65 1 29 61 CFG=1
M  V30 66 1 62 32
M  V30 67 1 63 32
M  V30 68 1 64 34
M  V30 69 1 24 65 CFG=3
M  V30 END BOND
M  V30 END CTAB
M  END
>  <i_epik_Tot_Q>  (1) 
0

>  <i_epik_Tot_abs_Q>  (1) 
2

>  <i_i_glide_confnum>  (1) 
29

>  <i_i_glide_lignum>  (1) 
2

>  <i_i_glide_posenum>  (1) 
308

>  <i_i_glide_rotatable_bonds>  (1) 
9

>  <i_lp_mmshare_version>  (1) 
72125

>  <i_m_source_file_index>  (1) 
1

>  <i_f3d_flags>  (1) 
0

>  <num_sample>  (1) 
50

>  <b_lp_Chiralities_Consistent>  (1) 
1

>  <r_epik_Charging_Adjusted_Penalty>  (1) 
0.0020295482604282666

>  <r_epik_Ionization_Penalty>  (1) 
0.0020295482639142975

>  <r_epik_Ionization_Penalty_Charging>  (1) 
0.0020295482604282666

>  <r_epik_Ionization_Penalty_Neutral>  (1) 
3.4860309872641501e-12

>  <r_epik_State_Penalty>  (1) 
-0

>  <r_glide_ring_energy>  (1) 
0

>  <r_i_docking_score>  (1) 
-4.6576265265896009

>  <r_i_glide_ecoul>  (1) 
-5.2509249312804318

>  <r_i_glide_eff_state_penalty>  (1) 
-0

>  <r_i_glide_einternal>  (1) 
19.386525812834421

>  <r_i_glide_emodel>  (1) 
-41.686809571431645

>  <r_i_glide_emodel_strain>  (1) 
5.9783906919029448

>  <r_i_glide_energy>  (1) 
-40.421513954251679

>  <r_i_glide_erotb>  (1) 
0.52278502944784222

>  <r_i_glide_esite>  (1) 
-0.18615802124691816

>  <r_i_glide_evdw>  (1) 
-35.170589022971249

>  <r_i_glide_gscore>  (1) 
-4.6576265265896009

>  <r_i_glide_gscore_strain>  (1) 
0.4945976729757362

>  <r_i_glide_hbond>  (1) 
-0.20000000000000001

>  <r_i_glide_ligand_efficiency>  (1) 
-0.13698901548792944

>  <r_i_glide_ligand_efficiency_ln>  (1) 
-1.0290003417225744

>  <r_i_glide_ligand_efficiency_sa>  (1) 
-0.44379123122008018

>  <r_i_glide_lipo>  (1) 
-4.1484649035499581

>  <r_i_glide_metal>  (1) 
-0

>  <r_i_glide_rewards>  (1) 
1.4057818866243244

>  <r_lp_Energy>  (1) 
65.474028000000004

>  <r_lp_tautomer_probability>  (1) 
1

>  <s_epik_cmdline>  (1) 
J2VwaWtfcHl0aG9uJywgJy1waHQnLCAnMS4wJywgJy1waCcsICc3LjQnLCAnLXRuJywgJzgnLCAnLW1hJywgJzUwMCcsICctaW1hZScsICc8aW5maWxlLm1hZT4nLCAnLW9tYWUnLCAnPG91dGZpbGUubWFlPic=

>  <s_epik_input>  (1) 
W2NIXTFbY0hdYyhGKVtjSF1bY0hdYzFbQ0gyXVtDQEhdKFtDSDJdMilbQ0gyXVtDSDJdW0NIXShOMjMpW0NAQEhdM1tDQEBIXShDKD1PKVtPSF0pTihbQ0gyXVtDSF0oW0NIM10pW0NIM10pQyg9TylDKD1bQ0hdNClTW0NASF0oQzQ9NSlbQ0hdPVtDSF1bQ0hdNQ==

>  <s_glide_docking_method>  (1) 
confgen

>  <s_i_glide_gridfile>  (1) 
gpcr_5ht2c_6bqh_protein_autoprepared_prepared

>  <s_lp_Force_Field>  (1) 
S-OPLS

>  <s_lp_Variant>  (1) 
DiffSBDD_0_num_sample_50-2

>  <s_m_source_file>  (1) 
generated__ligand_DiffSBDD_2026-05-06_prepared.sdf

>  <GenAI_Model>  (1) 
DiffSBDD

>  <Protein>  (1) 
GPCR_5HT2C

$$$$
DiffSBDD_30_num_sample_50
     RDKit          3D

  0  0  0  0  0  0  0  0  0  0999 V3000
M  V30 BEGIN CTAB
M  V30 COUNTS 68 67 0 0 1
M  V30 BEGIN ATOM
M  V30 1 C 38.289003 28.937340 54.938923 0
M  V30 2 C 37.479702 33.184976 60.264833 0 CFG=2
M  V30 3 C 37.761054 34.704738 60.283481 0
M  V30 4 O 42.205634 32.479183 61.853474 0
M  V30 5 C 41.384556 34.689823 62.331737 0
M  V30 6 C 38.169441 30.817088 61.024693 0
M  V30 7 C 37.918881 26.004054 54.716777 0
M  V30 8 C 38.667702 27.721129 51.172239 0
M  V30 9 C 38.456418 32.933630 57.891501 0
M  V30 10 C 38.557962 32.323249 61.006983 0 CFG=2
M  V30 11 C 37.960114 28.274564 53.574197 0 CFG=1
M  V30 12 C 38.791552 32.815855 62.456981 0
M  V30 13 C 39.122566 28.276520 52.534297 0 CFG=2
M  V30 14 C 38.260909 30.956076 56.466628 0
M  V30 15 C 39.016524 29.940155 60.094693 0
M  V30 16 C 37.236763 32.733633 58.806899 0
M  V30 17 C 41.335022 33.164764 62.386899 0
M  V30 18 C 40.155953 32.524405 63.137724 0 CFG=2
M  V30 19 C 37.999292 30.446046 55.038083 0
M  V30 20 C 39.806140 29.654692 52.349491 0
M  V30 21 O 39.467256 32.821425 55.853490 0
M  V30 22 C 40.789914 29.748019 51.177518 0
M  V30 23 N 38.273056 32.413824 56.544582 0
M  V30 24 C 40.402683 31.040296 63.473419 0
M  V30 25 C 37.461114 26.845036 53.772599 0
M  V30 26 H 39.324345 28.732518 55.213465 0
M  V30 27 H 37.682713 28.474521 55.718351 0
M  V30 28 H 36.533594 33.044081 60.789956 0
M  V30 29 H 38.807188 34.918295 60.062616 0
M  V30 30 H 37.152208 35.231063 59.547164 0
M  V30 31 H 37.518600 35.155951 61.244633 0
M  V30 32 H 40.389815 35.130469 62.359888 0
M  V30 33 H 41.948229 35.077700 63.180082 0
M  V30 34 H 41.867257 35.020361 61.412403 0
M  V30 35 H 37.113338 30.687483 60.787218 0
M  V30 36 H 38.256258 30.402845 62.027356 0
M  V30 37 H 37.524791 25.002719 54.806542 0
M  V30 38 H 38.691179 26.305712 55.408047 0
M  V30 39 H 38.055612 28.446980 50.653788 0
M  V30 40 H 39.511467 27.469180 50.529725 0
M  V30 41 H 38.074199 26.821438 51.256577 0
M  V30 42 H 39.348181 32.491396 58.328324 0
M  V30 43 H 38.643488 34.003511 57.809850 0
M  V30 44 H 39.499420 32.439094 60.472925 0
M  V30 45 H 37.114288 28.816479 53.147923 0
M  V30 46 H 38.667483 33.890152 62.520785 0
M  V30 47 H 37.977941 32.422808 63.053414 0
M  V30 48 H 39.867403 27.578434 52.909845 0
M  V30 49 H 39.210045 30.564025 56.836030 0
M  V30 50 H 37.479923 30.554934 57.110952 0
M  V30 51 H 38.723991 28.893156 60.180088 0
M  V30 52 H 38.892705 30.229911 59.055706 0
M  V30 53 H 40.077031 30.011151 60.335973 0
M  V30 54 H 36.400680 33.297792 58.392763 0
M  V30 55 H 36.904230 31.699325 58.796585 0
M  V30 56 H 40.126826 33.037513 64.098398 0
M  V30 57 H 36.961145 30.651834 54.772375 0
M  V30 58 H 38.606199 30.997322 54.324871 0
M  V30 59 H 39.067389 30.421423 52.193138 0
M  V30 60 H 40.314622 29.946745 53.266685 0
M  V30 61 H 40.146394 32.398012 56.355972 0
M  V30 62 H 41.264352 30.728747 51.135389 0
M  V30 63 H 41.561819 28.994093 51.293883 0
M  V30 64 H 40.304952 29.601268 50.211939 0
M  V30 65 H 41.299276 30.922883 64.082737 0
M  V30 66 H 39.573027 30.618681 64.041731 0
M  V30 67 H 40.539182 30.432253 62.580626 0
M  V30 68 H 36.689485 26.509989 53.096336 0
M  V30 END ATOM
M  V30 BEGIN BOND
M  V30 1 1 3 2
M  V30 2 1 10 2
M  V30 3 1 10 6
M  V30 4 1 11 1
M  V30 5 1 12 10
M  V30 6 1 13 8
M  V30 7 1 13 11
M  V30 8 1 15 6
M  V30 9 1 16 2
M  V30 10 1 16 9
M  V30 11 2 17 4
M  V30 12 1 17 5
M  V30 13 1 18 12
M  V30 14 1 18 17
M  V30 15 1 19 1
M  V30 16 1 19 14
M  V30 17 1 20 13
M  V30 18 1 22 20
M  V30 19 1 23 9
M  V30 20 1 23 14
M  V30 21 1 23 21
M  V30 22 1 24 18
M  V30 23 2 25 7
M  V30 24 1 25 11
M  V30 25 1 26 1
M  V30 26 1 27 1
M  V30 27 1 2 28 CFG=1
M  V30 28 1 29 3
M  V30 29 1 30 3
M  V30 30 1 31 3
M  V30 31 1 32 5
M  V30 32 1 33 5
M  V30 33 1 34 5
M  V30 34 1 35 6
M  V30 35 1 36 6
M  V30 36 1 37 7
M  V30 37 1 38 7
M  V30 38 1 39 8
M  V30 39 1 40 8
M  V30 40 1 41 8
M  V30 41 1 42 9
M  V30 42 1 43 9
M  V30 43 1 10 44 CFG=3
M  V30 44 1 11 45 CFG=3
M  V30 45 1 46 12
M  V30 46 1 47 12
M  V30 47 1 13 48 CFG=1
M  V30 48 1 49 14
M  V30 49 1 50 14
M  V30 50 1 51 15
M  V30 51 1 52 15
M  V30 52 1 53 15
M  V30 53 1 54 16
M  V30 54 1 55 16
M  V30 55 1 18 56 CFG=1
M  V30 56 1 57 19
M  V30 57 1 58 19
M  V30 58 1 59 20
M  V30 59 1 60 20
M  V30 60 1 61 21
M  V30 61 1 62 22
M  V30 62 1 63 22
M  V30 63 1 64 22
M  V30 64 1 65 24
M  V30 65 1 66 24
M  V30 66 1 67 24
M  V30 67 1 68 25
M  V30 END BOND
M  V30 END CTAB
M  END
>  <i_epik_Tot_Q>  (1) 
0

>  <i_epik_Tot_abs_Q>  (1) 
0

>  <i_i_glide_confnum>  (1) 
3592

>  <i_i_glide_lignum>  (1) 
78

>  <i_i_glide_posenum>  (1) 
298

>  <i_i_glide_rotatable_bonds>  (1) 
16

>  <i_lp_mmshare_version>  (1) 
72125

>  <i_m_source_file_index>  (1) 
31

>  <i_f3d_flags>  (1) 
0

>  <num_sample>  (1) 
50

>  <b_lp_Chiralities_Consistent>  (1) 
1

>  <r_epik_Charging_Adjusted_Penalty>  (1) 
0.34658394344942783

>  <r_epik_Ionization_Penalty>  (1) 
0.015417953954219563

>  <r_epik_Ionization_Penalty_Charging>  (1) 
0

>  <r_epik_Ionization_Penalty_Neutral>  (1) 
0.015417953954219563

>  <r_epik_State_Penalty>  (1) 
0.34658394344942783

>  <r_glide_ring_energy>  (1) 
0

>  <r_i_docking_score>  (1) 
-4.6567226312971144

>  <r_i_glide_ecoul>  (1) 
-1.4306542285750328

>  <r_i_glide_eff_state_penalty>  (1) 
0.34658394344942783

>  <r_i_glide_einternal>  (1) 
7.328702482153572

>  <r_i_glide_emodel>  (1) 
-41.658121148504989

>  <r_i_glide_emodel_strain>  (1) 
0

>  <r_i_glide_energy>  (1) 
-33.682690568267972

>  <r_i_glide_erotb>  (1) 
1.833058027080513

>  <r_i_glide_esite>  (1) 
-0.087204651963127044

>  <r_i_glide_evdw>  (1) 
-32.252036339692943

>  <r_i_glide_gscore>  (1) 
-5.0033065747465422

>  <r_i_glide_gscore_strain>  (1) 
0

>  <r_i_glide_hbond>  (1) 
0

>  <r_i_glide_ligand_efficiency>  (1) 
-0.18626890525188458

>  <r_i_glide_ligand_efficiency_ln>  (1) 
-1.1037828143336246

>  <r_i_glide_ligand_efficiency_sa>  (1) 
-0.54465358303400224

>  <r_i_glide_lipo>  (1) 
-3.2521188931876588

>  <r_i_glide_metal>  (1) 
-0

>  <r_i_glide_rewards>  (1) 
-1.6698411054053683

>  <r_lp_Energy>  (1) 
19.892499999999998

>  <r_lp_tautomer_probability>  (1) 
0.9999999700000004

>  <s_epik_Chemistry_Notes>  (1) 
This compound has a N-S or N-O group and may undergo hydrolysis at high or low pH.

>  <s_epik_cmdline>  (1) 
J2VwaWtfcHl0aG9uJywgJy1waHQnLCAnMS4wJywgJy1waCcsICc3LjQnLCAnLXRuJywgJzgnLCAnLW1hJywgJzUwMCcsICctaW1hZScsICc8aW5maWxlLm1hZT4nLCAnLW9tYWUnLCAnPG91dGZpbGUubWFlPic=

>  <s_epik_input>  (1) 
W0NIM11bQ0gyXVtDQEhdKFtDSDNdKVtDQEBIXShbQ0hdPVtDSDJdKVtDSDJdW0NIMl1bQ0gyXU4oW09IXSlbQ0gyXVtDSDJdW0NASF0oW0NIM10pW0NASF0oW0NIMl1bQ0gzXSlbQ0gyXVtDQEhdKFtDSDNdKUMoPU8pW0NIM10=

>  <s_glide_docking_method>  (1) 
confgen

>  <s_i_glide_gridfile>  (1) 
gpcr_5ht2c_6bqh_protein_autoprepared_prepared

>  <s_lp_Force_Field>  (1) 
S-OPLS

>  <s_lp_Variant>  (1) 
DiffSBDD_30_num_sample_50-2

>  <s_m_source_file>  (1) 
generated__ligand_DiffSBDD_2026-05-06_prepared.sdf

>  <GenAI_Model>  (1) 
DiffSBDD

>  <Protein>  (1) 
GPCR_5HT2C

$$$$
DiffSBDD_5_num_sample_50
     RDKit          3D

  0  0  0  0  0  0  0  0  0  0999 V3000
M  V30 BEGIN CTAB
M  V30 COUNTS 80 82 0 0 1
M  V30 BEGIN ATOM
M  V30 1 C 39.615190 28.748032 59.610562 0
M  V30 2 C 38.603040 30.045293 57.642321 0 CFG=2
M  V30 3 N 41.068022 35.126782 65.142337 0
M  V30 4 F 38.611980 28.342474 51.393187 0
M  V30 5 C 41.297087 29.877360 62.475500 0
M  V30 6 N 40.784540 28.766183 60.189839 0 CHG=1
M  V30 7 C 41.609927 32.479439 62.540012 0 CFG=1
M  V30 8 C 39.327093 26.742036 52.975337 0 CFG=2
M  V30 9 C 37.868023 31.355128 55.578638 0
M  V30 10 C 40.707435 28.691952 61.678463 0 CFG=2
M  V30 11 N 38.667410 28.688390 60.452549 0
M  V30 12 C 36.748826 30.816279 54.678910 0
M  V30 13 C 40.365860 28.438218 55.885061 0 CFG=2
M  V30 14 C 38.721060 32.388434 54.826914 0
M  V30 15 N 40.267041 26.130229 55.163832 0 CHG=1
M  V30 16 C 41.924760 34.165101 64.459993 0
M  V30 17 C 38.855714 31.349976 58.415679 0
M  V30 18 C 39.105312 28.624293 61.852192 0
M  V30 19 C 39.382473 28.778004 58.134022 0 CFG=1
M  V30 20 C 40.499076 26.021534 53.705309 0
M  V30 21 O 40.289980 36.104890 63.254726 0
M  V30 22 C 39.662285 27.599842 51.736685 0
M  V30 23 C 39.466342 36.958119 65.329857 0
M  V30 24 C 40.314085 36.021447 64.481196 0
M  V30 25 S 38.350120 27.618311 54.205916 0
M  V30 26 C 40.631786 28.363933 57.381651 0
M  V30 27 C 39.872921 29.843500 55.464948 0
M  V30 28 C 40.228940 33.938363 61.138018 0
M  V30 29 O 41.516176 33.581842 61.639670 0
M  V30 30 O 41.342999 31.890742 64.874243 0
M  V30 31 N 38.603412 30.191716 56.148755 0 CFG=1 CHG=1
M  V30 32 C 41.131944 32.934155 63.943876 0 CFG=2
M  V30 33 N 39.488451 27.339653 55.444994 0
M  V30 34 C 40.901253 31.256577 61.916658 0
M  V30 35 H 37.561752 29.818888 57.876658 0
M  V30 36 H 41.042764 35.108258 66.151105 0
M  V30 37 H 42.368463 29.774513 62.644195 0
M  V30 38 H 40.888226 29.802758 63.482822 0
M  V30 39 H 42.672191 32.252393 62.605707 0
M  V30 40 H 38.600725 26.021474 52.653835 0
M  V30 41 H 37.465518 31.925824 56.402734 0
M  V30 42 H 41.146546 27.757747 62.022643 0
M  V30 43 H 37.690406 28.665016 60.196945 0
M  V30 44 H 36.154917 31.619972 54.253533 0
M  V30 45 H 37.152865 30.233563 53.854230 0
M  V30 46 H 36.075776 30.173128 55.245610 0
M  V30 47 H 41.337038 28.287832 55.453592 0
M  V30 48 H 38.088483 33.224722 54.536028 0
M  V30 49 H 39.512565 32.792381 55.456211 0
M  V30 50 H 39.160654 31.994402 53.912370 0
M  V30 51 H 41.132469 26.167407 55.686522 0
M  V30 52 H 42.730431 33.868688 65.133095 0
M  V30 53 H 42.427876 34.677108 63.640987 0
M  V30 54 H 39.303098 31.164785 59.391815 0
M  V30 55 H 39.466050 32.051694 57.850728 0
M  V30 56 H 37.914048 31.865654 58.608214 0
M  V30 57 H 38.791295 27.664572 62.253490 0
M  V30 58 H 38.690575 29.444995 62.438210 0
M  V30 59 H 38.695587 27.950433 57.950032 0
M  V30 60 H 40.667399 24.989381 53.420168 0
M  V30 61 H 41.467082 26.421460 53.453579 0
M  V30 62 H 40.497567 28.284950 51.869221 0
M  V30 63 H 39.867156 26.972074 50.868922 0
M  V30 64 H 38.684328 36.421476 65.864898 0
M  V30 65 H 40.083178 37.489958 66.054587 0
M  V30 66 H 38.988182 37.691759 64.684638 0
M  V30 67 H 41.466872 28.983305 57.683589 0
M  V30 68 H 40.922595 27.352502 57.670753 0
M  V30 69 H 40.616143 30.610702 55.656962 0
M  V30 70 H 39.742497 29.880512 54.383331 0
M  V30 71 H 40.293499 34.916378 60.662498 0
M  V30 72 H 39.885880 33.240360 60.375520 0
M  V30 73 H 39.470519 33.997452 61.917729 0
M  V30 74 H 42.272580 31.744819 64.963857 0
M  V30 75 H 40.061777 33.140628 63.910828 0
M  V30 76 H 39.820124 31.384055 61.980221 0
M  V30 77 H 41.141029 31.264432 60.854628 0
M  V30 78 H 39.703552 25.355837 55.489231 0
M  V30 79 H 41.665545 28.788508 59.692798 0
M  V30 80 H 38.006265 29.426351 55.871585 0
M  V30 END ATOM
M  V30 BEGIN BOND
M  V30 1 2 6 1
M  V30 2 1 10 5
M  V30 3 1 10 6
M  V30 4 1 11 1
M  V30 5 1 12 9
M  V30 6 1 14 9
M  V30 7 1 16 3
M  V30 8 1 17 2
M  V30 9 1 18 10
M  V30 10 1 18 11
M  V30 11 1 19 1
M  V30 12 1 19 2
M  V30 13 1 20 8
M  V30 14 1 20 15
M  V30 15 1 22 4
M  V30 16 1 22 8
M  V30 17 1 24 3
M  V30 18 2 24 21
M  V30 19 1 24 23
M  V30 20 1 25 8
M  V30 21 1 26 13
M  V30 22 1 26 19
M  V30 23 1 27 13
M  V30 24 1 29 7
M  V30 25 1 29 28
M  V30 26 1 31 2
M  V30 27 1 31 9
M  V30 28 1 31 27
M  V30 29 1 32 7
M  V30 30 1 32 16
M  V30 31 1 32 30
M  V30 32 1 33 13
M  V30 33 1 33 15
M  V30 34 1 33 25
M  V30 35 1 34 5
M  V30 36 1 34 7
M  V30 37 1 2 35 CFG=1
M  V30 38 1 36 3
M  V30 39 1 37 5
M  V30 40 1 38 5
M  V30 41 1 7 39 CFG=1
M  V30 42 1 8 40 CFG=3
M  V30 43 1 41 9
M  V30 44 1 10 42 CFG=1
M  V30 45 1 43 11
M  V30 46 1 44 12
M  V30 47 1 45 12
M  V30 48 1 46 12
M  V30 49 1 13 47 CFG=3
M  V30 50 1 48 14
M  V30 51 1 49 14
M  V30 52 1 50 14
M  V30 53 1 51 15
M  V30 54 1 52 16
M  V30 55 1 53 16
M  V30 56 1 54 17
M  V30 57 1 55 17
M  V30 58 1 56 17
M  V30 59 1 57 18
M  V30 60 1 58 18
M  V30 61 1 19 59 CFG=1
M  V30 62 1 60 20
M  V30 63 1 61 20
M  V30 64 1 62 22
M  V30 65 1 63 22
M  V30 66 1 64 23
M  V30 67 1 65 23
M  V30 68 1 66 23
M  V30 69 1 67 26
M  V30 70 1 68 26
M  V30 71 1 69 27
M  V30 72 1 70 27
M  V30 73 1 71 28
M  V30 74 1 72 28
M  V30 75 1 73 28
M  V30 76 1 74 30
M  V30 77 1 32 75 CFG=3
M  V30 78 1 76 34
M  V30 79 1 77 34
M  V30 80 1 78 15
M  V30 81 1 79 6
M  V30 82 1 31 80 CFG=3
M  V30 END BOND
M  V30 END CTAB
M  END
>  <i_epik_Tot_Q>  (1) 
3

>  <i_epik_Tot_abs_Q>  (1) 
3

>  <i_i_glide_confnum>  (1) 
616

>  <i_i_glide_lignum>  (1) 
16

>  <i_i_glide_posenum>  (1) 
389

>  <i_i_glide_rotatable_bonds>  (1) 
13

>  <i_lp_mmshare_version>  (1) 
72125

>  <i_m_source_file_index>  (1) 
6

>  <i_f3d_flags>  (1) 
0

>  <num_sample>  (1) 
50

>  <b_lp_Chiralities_Consistent>  (1) 
1

>  <r_epik_Charging_Adjusted_Penalty>  (1) 
0.16301919670703535

>  <r_epik_Ionization_Penalty>  (1) 
0.082191666583868089

>  <r_epik_Ionization_Penalty_Charging>  (1) 
0.082191230012028396

>  <r_epik_Ionization_Penalty_Neutral>  (1) 
4.3657183969654913e-07

>  <r_epik_State_Penalty>  (1) 
0.080827966695006942

>  <r_glide_ring_energy>  (1) 
0

>  <r_i_docking_score>  (1) 
-4.6338562690251726

>  <r_i_glide_ecoul>  (1) 
-3.5023740534663448

>  <r_i_glide_eff_state_penalty>  (1) 
0.080827966695006942

>  <r_i_glide_einternal>  (1) 
6.3153156677007694

>  <r_i_glide_emodel>  (1) 
-35.338103413270559

>  <r_i_glide_emodel_strain>  (1) 
5.7727876418123998

>  <r_i_glide_energy>  (1) 
-28.187553018242369

>  <r_i_glide_erotb>  (1) 
0.63983490757673345

>  <r_i_glide_esite>  (1) 
-0.041298828291004466

>  <r_i_glide_evdw>  (1) 
-24.685178964776025

>  <r_i_glide_gscore>  (1) 
-4.7146842357201795

>  <r_i_glide_gscore_strain>  (1) 
0.44319691045309995

>  <r_i_glide_hbond>  (1) 
0

>  <r_i_glide_ligand_efficiency>  (1) 
-0.13628989026544625

>  <r_i_glide_ligand_efficiency_ln>  (1) 
-1.0237488250934512

>  <r_i_glide_ligand_efficiency_sa>  (1) 
-0.44152633689875292

>  <r_i_glide_lipo>  (1) 
-2.5254506111655157

>  <r_i_glide_metal>  (1) 
-0

>  <r_i_glide_rewards>  (1) 
-1.4713515580347396

>  <r_lp_Energy>  (1) 
52.952152999999996

>  <s_epik_Chemistry_Notes>  (1) 
This compound has an imine and may undergo hydrolysis. This compound has a N-S or N-O group and may undergo hydrolysis at high or low pH.

>  <s_epik_cmdline>  (1) 
J2VwaWtfcHl0aG9uJywgJy1waHQnLCAnMS4wJywgJy1waCcsICc3LjQnLCAnLXRuJywgJzgnLCAnLW1hJywgJzUwMCcsICctaW1hZScsICc8aW5maWxlLm1hZT4nLCAnLW9tYWUnLCAnPG91dGZpbGUubWFlPic=

>  <s_epik_input>  (1) 
RltDSDJdW0NASF0xW0NIMl1bTkhdTihTMSlbQ0BASF0oW0NIMl1OMltDSF0oW0NIM10pW0NIM10pW0NIMl1bQ0BASF0oW0NASF0yW0NIM10pQzM9TltDQEhdKFtDSDJdW05IXTMpW0NIMl1bQ0gyXVtDQEBIXShPW0NIM10pW0NAQEhdKFtPSF0pW0NIMl1bTkhdQyg9TylbQ0gzXQ==

>  <s_glide_docking_method>  (1) 
confgen

>  <s_i_glide_gridfile>  (1) 
gpcr_5ht2c_6bqh_protein_autoprepared_prepared

>  <s_lp_Force_Field>  (1) 
S-OPLS

>  <s_lp_Variant>  (1) 
DiffSBDD_5_num_sample_50-3

>  <s_m_source_file>  (1) 
generated__ligand_DiffSBDD_2026-05-06_prepared.sdf

>  <GenAI_Model>  (1) 
DiffSBDD

>  <Protein>  (1) 
GPCR_5HT2C

$$$$
DiffSBDD_30_num_sample_50
     RDKit          3D

  0  0  0  0  0  0  0  0  0  0999 V3000
M  V30 BEGIN CTAB
M  V30 COUNTS 68 67 0 0 1
M  V30 BEGIN ATOM
M  V30 1 C 39.467327 27.599135 54.171682 0
M  V30 2 C 37.658661 32.029855 59.142245 0 CFG=2
M  V30 3 C 37.864165 33.403828 58.466141 0
M  V30 4 O 41.067469 30.567625 61.853608 0
M  V30 5 C 39.868231 30.484186 63.935500 0
M  V30 6 C 36.817198 32.331851 61.573575 0
M  V30 7 C 38.174529 30.938861 53.888209 0
M  V30 8 C 38.753905 27.330326 51.295151 0
M  V30 9 C 37.891753 29.505296 58.513908 0
M  V30 10 C 38.024743 32.006517 60.656931 0 CFG=2
M  V30 11 C 39.458548 28.861615 53.249441 0 CFG=1
M  V30 12 C 39.306537 32.816767 60.996592 0
M  V30 13 C 39.694076 28.453129 51.761103 0 CFG=2
M  V30 14 C 38.628044 28.592436 56.382598 0
M  V30 15 C 36.223094 33.744903 61.453600 0
M  V30 16 C 38.396607 30.949173 58.324371 0
M  V30 17 C 40.345487 31.157324 62.656358 0
M  V30 18 C 39.890625 32.602189 62.413609 0 CFG=1
M  V30 19 C 39.748868 27.826068 55.668365 0
M  V30 20 C 39.664542 29.599254 50.727926 0
M  V30 21 O 38.395832 27.248250 58.253488 0
M  V30 22 C 40.681798 30.716167 50.965298 0
M  V30 23 N 38.788055 28.575079 57.830348 0
M  V30 24 C 41.056787 33.567672 62.685911 0
M  V30 25 C 38.190713 29.667034 53.453700 0
M  V30 26 H 40.202240 26.870868 53.815519 0
M  V30 27 H 38.511348 27.081217 54.080673 0
M  V30 28 H 36.599513 31.798525 59.054208 0
M  V30 29 H 38.923005 33.619605 58.323558 0
M  V30 30 H 37.396142 33.422948 57.480886 0
M  V30 31 H 37.431073 34.224396 59.033546 0
M  V30 32 H 40.187092 31.051241 64.810185 0
M  V30 33 H 38.780655 30.421335 63.937487 0
M  V30 34 H 40.268862 29.473027 64.010576 0
M  V30 35 H 36.020741 31.612417 61.379455 0
M  V30 36 H 37.104889 32.164093 62.609912 0
M  V30 37 H 37.243748 31.469022 54.023339 0
M  V30 38 H 39.091642 31.463534 54.115130 0
M  V30 39 H 37.709172 27.621349 51.396690 0
M  V30 40 H 38.934477 27.066176 50.253971 0
M  V30 41 H 38.913675 26.421425 51.869558 0
M  V30 42 H 36.866542 29.402857 58.153561 0
M  V30 43 H 37.885021 29.257581 59.575248 0
M  V30 44 H 38.251905 30.967109 60.888410 0
M  V30 45 H 40.255890 29.556861 53.538689 0
M  V30 46 H 40.080260 32.581300 60.265823 0
M  V30 47 H 39.103870 33.879056 60.865162 0
M  V30 48 H 40.698134 28.038519 51.713114 0
M  V30 49 H 37.646748 28.209835 56.101403 0
M  V30 50 H 38.674346 29.617611 56.036488 0
M  V30 51 H 35.449420 33.909372 62.204561 0
M  V30 52 H 36.978064 34.518140 61.590320 0
M  V30 53 H 35.750169 33.896738 60.484023 0
M  V30 54 H 39.458499 30.968017 58.546355 0
M  V30 55 H 38.302817 31.223197 57.274847 0
M  V30 56 H 39.113231 32.822593 63.143668 0
M  V30 57 H 40.695967 28.347376 55.808457 0
M  V30 58 H 39.877173 26.847920 56.133080 0
M  V30 59 H 39.864781 29.183956 49.739703 0
M  V30 60 H 38.667441 30.020969 50.653702 0
M  V30 61 H 37.503634 27.196616 57.946449 0
M  V30 62 H 40.624365 31.451104 50.162633 0
M  V30 63 H 40.501840 31.236632 51.904708 0
M  V30 64 H 41.697540 30.324743 50.976982 0
M  V30 65 H 41.473278 33.418305 63.683129 0
M  V30 66 H 41.864839 33.432990 61.965398 0
M  V30 67 H 40.727680 34.605243 62.624027 0
M  V30 68 H 37.259443 29.167004 53.233404 0
M  V30 END ATOM
M  V30 BEGIN BOND
M  V30 1 1 3 2
M  V30 2 1 10 2
M  V30 3 1 10 6
M  V30 4 1 11 1
M  V30 5 1 12 10
M  V30 6 1 13 8
M  V30 7 1 13 11
M  V30 8 1 15 6
M  V30 9 1 16 2
M  V30 10 1 16 9
M  V30 11 2 17 4
M  V30 12 1 17 5
M  V30 13 1 18 12
M  V30 14 1 18 17
M  V30 15 1 19 1
M  V30 16 1 19 14
M  V30 17 1 20 13
M  V30 18 1 22 20
M  V30 19 1 23 9
M  V30 20 1 23 14
M  V30 21 1 23 21
M  V30 22 1 24 18
M  V30 23 2 25 7
M  V30 24 1 25 11
M  V30 25 1 26 1
M  V30 26 1 27 1
M  V30 27 1 2 28 CFG=1
M  V30 28 1 29 3
M  V30 29 1 30 3
M  V30 30 1 31 3
M  V30 31 1 32 5
M  V30 32 1 33 5
M  V30 33 1 34 5
M  V30 34 1 35 6
M  V30 35 1 36 6
M  V30 36 1 37 7
M  V30 37 1 38 7
M  V30 38 1 39 8
M  V30 39 1 40 8
M  V30 40 1 41 8
M  V30 41 1 42 9
M  V30 42 1 43 9
M  V30 43 1 10 44 CFG=1
M  V30 44 1 11 45 CFG=1
M  V30 45 1 46 12
M  V30 46 1 47 12
M  V30 47 1 13 48 CFG=1
M  V30 48 1 49 14
M  V30 49 1 50 14
M  V30 50 1 51 15
M  V30 51 1 52 15
M  V30 52 1 53 15
M  V30 53 1 54 16
M  V30 54 1 55 16
M  V30 55 1 18 56 CFG=1
M  V30 56 1 57 19
M  V30 57 1 58 19
M  V30 58 1 59 20
M  V30 59 1 60 20
M  V30 60 1 61 21
M  V30 61 1 62 22
M  V30 62 1 63 22
M  V30 63 1 64 22
M  V30 64 1 65 24
M  V30 65 1 66 24
M  V30 66 1 67 24
M  V30 67 1 68 25
M  V30 END BOND
M  V30 END CTAB
M  END
>  <i_epik_Tot_Q>  (1) 
0

>  <i_epik_Tot_abs_Q>  (1) 
0

>  <i_i_glide_confnum>  (1) 
2192

>  <i_i_glide_lignum>  (1) 
77

>  <i_i_glide_posenum>  (1) 
95

>  <i_i_glide_rotatable_bonds>  (1) 
16

>  <i_lp_mmshare_version>  (1) 
72125

>  <i_m_source_file_index>  (1) 
31

>  <i_f3d_flags>  (1) 
0

>  <num_sample>  (1) 
50

>  <b_lp_Chiralities_Consistent>  (1) 
1

>  <r_epik_Charging_Adjusted_Penalty>  (1) 
0.34658394344942783

>  <r_epik_Ionization_Penalty>  (1) 
0.015417953954219563

>  <r_epik_Ionization_Penalty_Charging>  (1) 
0

>  <r_epik_Ionization_Penalty_Neutral>  (1) 
0.015417953954219563

>  <r_epik_State_Penalty>  (1) 
0.34658394344942783

>  <r_glide_ring_energy>  (1) 
0

>  <r_i_docking_score>  (1) 
-4.611398167673058

>  <r_i_glide_ecoul>  (1) 
-2.7681628268304124

>  <r_i_glide_eff_state_penalty>  (1) 
0.34658394344942783

>  <r_i_glide_einternal>  (1) 
4.0187379351474561

>  <r_i_glide_emodel>  (1) 
-43.340853586456369

>  <r_i_glide_emodel_strain>  (1) 
0

>  <r_i_glide_energy>  (1) 
-33.850478034987404

>  <r_i_glide_erotb>  (1) 
1.833058027080513

>  <r_i_glide_esite>  (1) 
0

>  <r_i_glide_evdw>  (1) 
-31.082315208156995

>  <r_i_glide_gscore>  (1) 
-4.9579821111224858

>  <r_i_glide_gscore_strain>  (1) 
0

>  <r_i_glide_hbond>  (1) 
-0.32000000000000001

>  <r_i_glide_ligand_efficiency>  (1) 
-0.18445592670692232

>  <r_i_glide_ligand_efficiency_ln>  (1) 
-1.0930395581901535

>  <r_i_glide_ligand_efficiency_sa>  (1) 
-0.53935240160953324

>  <r_i_glide_lipo>  (1) 
-2.8441192407372271

>  <r_i_glide_metal>  (1) 
-0

>  <r_i_glide_rewards>  (1) 
-1.6575807130333595

>  <r_lp_Energy>  (1) 
13.945687

>  <r_lp_tautomer_probability>  (1) 
0.9999999700000004

>  <s_epik_Chemistry_Notes>  (1) 
This compound has a N-S or N-O group and may undergo hydrolysis at high or low pH.

>  <s_epik_cmdline>  (1) 
J2VwaWtfcHl0aG9uJywgJy1waHQnLCAnMS4wJywgJy1waCcsICc3LjQnLCAnLXRuJywgJzgnLCAnLW1hJywgJzUwMCcsICctaW1hZScsICc8aW5maWxlLm1hZT4nLCAnLW9tYWUnLCAnPG91dGZpbGUubWFlPic=

>  <s_epik_input>  (1) 
W0NIM11bQ0gyXVtDQEhdKFtDSDNdKVtDQEBIXShbQ0hdPVtDSDJdKVtDSDJdW0NIMl1bQ0gyXU4oW09IXSlbQ0gyXVtDSDJdW0NASF0oW0NIM10pW0NASF0oW0NIMl1bQ0gzXSlbQ0gyXVtDQEhdKFtDSDNdKUMoPU8pW0NIM10=

>  <s_glide_docking_method>  (1) 
confgen

>  <s_i_glide_gridfile>  (1) 
gpcr_5ht2c_6bqh_protein_autoprepared_prepared

>  <s_lp_Force_Field>  (1) 
S-OPLS

>  <s_lp_Variant>  (1) 
DiffSBDD_30_num_sample_50-1

>  <s_m_source_file>  (1) 
generated__ligand_DiffSBDD_2026-05-06_prepared.sdf

>  <GenAI_Model>  (1) 
DiffSBDD

>  <Protein>  (1) 
GPCR_5HT2C

$$$$
DiffSBDD_0_num_sample_50
     RDKit          3D

  0  0  0  0  0  0  0  0  0  0999 V3000
M  V30 BEGIN CTAB
M  V30 COUNTS 65 69 0 0 1
M  V30 BEGIN ATOM
M  V30 1 C 40.086000 30.240981 51.077877 0
M  V30 2 C 39.467414 30.157482 52.324937 0
M  V30 3 C 38.161449 28.873783 54.066368 0
M  V30 4 S 39.905235 32.683901 63.257177 0
M  V30 5 O 38.267420 30.421441 62.307008 0
M  V30 6 C 39.762427 31.068437 55.798483 0
M  V30 7 C 34.227962 33.166516 59.996945 0
M  V30 8 C 38.843342 27.845056 51.878828 0
M  V30 9 C 40.293833 29.742013 55.215056 0
M  V30 10 C 40.999691 35.736782 62.963954 0
M  V30 11 C 39.724938 34.655041 61.515541 0
M  V30 12 F 40.667349 29.221610 49.025395 0
M  V30 13 C 39.467411 27.929960 50.632677 0
M  V30 14 C 40.287567 35.649627 60.901152 0
M  V30 15 C 39.967380 34.565811 63.053473 0 CFG=1
M  V30 16 C 38.989575 29.140118 59.766589 0
M  V30 17 C 36.460148 32.125040 59.880566 0
M  V30 18 O 38.669805 27.937125 59.707235 0
M  V30 19 C 38.267487 31.353317 61.516316 0
M  V30 20 C 35.869648 33.897745 61.666426 0
M  V30 21 C 37.885406 30.165424 59.381821 0 CFG=2
M  V30 22 C 39.195237 28.630741 55.175718 0 CFG=1
M  V30 23 C 35.409968 32.690934 60.855130 0
M  V30 24 N 38.078515 29.916964 56.841768 0 CFG=1 CHG=1
M  V30 25 C 39.016358 33.638261 60.934703 0
M  V30 26 C 38.089515 30.796705 57.977383 0 CFG=2
M  V30 27 C 38.966714 32.608830 61.732209 0
M  V30 28 N 37.628149 31.295068 60.317092 0
M  V30 29 C 39.318878 30.656340 57.156089 0 CFG=2
M  V30 30 C 38.836437 28.958663 52.726874 0
M  V30 31 O 40.140568 29.568231 60.011106 0 CHG=-1
M  V30 32 C 38.512246 28.532589 56.566203 0
M  V30 33 C 40.082767 29.134405 50.229618 0
M  V30 34 C 41.069408 36.324219 61.783553 0
M  V30 35 H 40.558762 31.161329 50.767232 0
M  V30 36 H 39.459078 31.019952 52.973393 0
M  V30 37 H 37.423464 28.069880 54.053212 0
M  V30 38 H 37.601664 29.796737 54.220150 0
M  V30 39 H 38.949700 31.505556 55.213938 0
M  V30 40 H 40.535105 31.831915 55.853411 0
M  V30 41 H 34.540775 33.907879 59.259201 0
M  V30 42 H 33.777127 32.340594 59.452268 0
M  V30 43 H 33.454301 33.621439 60.605471 0
M  V30 44 H 38.364768 26.924935 52.182807 0
M  V30 45 H 40.812206 30.021138 54.305465 0
M  V30 46 H 41.067310 29.272784 55.826011 0
M  V30 47 H 41.550231 36.062330 63.835109 0
M  V30 48 H 39.468170 27.074375 49.976022 0
M  V30 49 H 40.240389 35.832537 59.853507 0
M  V30 50 H 39.067471 35.007509 63.453502 0
M  V30 51 H 36.790118 32.941279 59.241502 0
M  V30 52 H 35.868241 31.492297 59.215939 0
M  V30 53 H 36.151880 34.734159 61.025801 0
M  V30 54 H 35.092612 34.241463 62.349203 0
M  V30 55 H 36.726678 33.630377 62.253503 0
M  V30 56 H 36.960627 29.586054 59.354599 0
M  V30 57 H 39.680407 27.675772 54.965856 0
M  V30 58 H 35.071948 31.899988 61.525857 0
M  V30 59 H 38.558824 33.697514 59.963852 0
M  V30 60 H 37.467389 31.634391 57.687705 0
M  V30 61 H 40.099482 30.081269 57.644974 0
M  V30 62 H 37.654846 27.860693 56.548553 0
M  V30 63 H 39.217604 28.120661 57.284029 0
M  V30 64 H 41.691791 37.164642 61.540927 0
M  V30 65 H 37.572263 30.344025 56.079715 0
M  V30 END ATOM
M  V30 BEGIN BOND
M  V30 1 2 2 1
M  V30 2 1 9 6
M  V30 3 1 13 8
M  V30 4 2 14 11
M  V30 5 1 15 4
M  V30 6 1 15 10
M  V30 7 1 15 11
M  V30 8 2 18 16
M  V30 9 2 19 5
M  V30 10 1 21 16
M  V30 11 1 22 3
M  V30 12 1 22 9
M  V30 13 1 23 7
M  V30 14 1 23 17
M  V30 15 1 23 20
M  V30 16 1 25 11
M  V30 17 1 26 21
M  V30 18 1 26 24
M  V30 19 1 27 4
M  V30 20 1 27 19
M  V30 21 2 27 25
M  V30 22 1 28 17
M  V30 23 1 28 19
M  V30 24 1 28 21
M  V30 25 1 29 6
M  V30 26 1 29 24
M  V30 27 1 29 26
M  V30 28 1 30 2
M  V30 29 1 30 3
M  V30 30 2 30 8
M  V30 31 1 31 16
M  V30 32 1 32 22
M  V30 33 1 32 24
M  V30 34 1 33 1
M  V30 35 1 33 12
M  V30 36 2 33 13
M  V30 37 2 34 10
M  V30 38 1 34 14
M  V30 39 1 35 1
M  V30 40 1 36 2
M  V30 41 1 37 3
M  V30 42 1 38 3
M  V30 43 1 39 6
M  V30 44 1 40 6
M  V30 45 1 41 7
M  V30 46 1 42 7
M  V30 47 1 43 7
M  V30 48 1 44 8
M  V30 49 1 45 9
M  V30 50 1 46 9
M  V30 51 1 47 10
M  V30 52 1 48 13
M  V30 53 1 49 14
M  V30 54 1 15 50 CFG=1
M  V30 55 1 51 17
M  V30 56 1 52 17
M  V30 57 1 53 20
M  V30 58 1 54 20
M  V30 59 1 55 20
M  V30 60 1 21 56 CFG=3
M  V30 61 1 22 57 CFG=3
M  V30 62 1 58 23
M  V30 63 1 59 25
M  V30 64 1 26 60 CFG=3
M  V30 65 1 29 61 CFG=1
M  V30 66 1 62 32
M  V30 67 1 63 32
M  V30 68 1 64 34
M  V30 69 1 24 65 CFG=3
M  V30 END BOND
M  V30 END CTAB
M  END
>  <i_epik_Tot_Q>  (1) 
0

>  <i_epik_Tot_abs_Q>  (1) 
2

>  <i_i_glide_confnum>  (1) 
150

>  <i_i_glide_lignum>  (1) 
3

>  <i_i_glide_posenum>  (1) 
17

>  <i_i_glide_rotatable_bonds>  (1) 
9

>  <i_lp_mmshare_version>  (1) 
72125

>  <i_m_source_file_index>  (1) 
1

>  <i_f3d_flags>  (1) 
0

>  <num_sample>  (1) 
50

>  <b_lp_Chiralities_Consistent>  (1) 
1

>  <r_epik_Charging_Adjusted_Penalty>  (1) 
0.0020295482604282666

>  <r_epik_Ionization_Penalty>  (1) 
0.0020295482639142975

>  <r_epik_Ionization_Penalty_Charging>  (1) 
0.0020295482604282666

>  <r_epik_Ionization_Penalty_Neutral>  (1) 
3.4860309872641501e-12

>  <r_epik_State_Penalty>  (1) 
-0

>  <r_glide_ring_energy>  (1) 
0

>  <r_i_docking_score>  (1) 
-4.6088044098257024

>  <r_i_glide_ecoul>  (1) 
-4.5802813020744804

>  <r_i_glide_eff_state_penalty>  (1) 
-0

>  <r_i_glide_einternal>  (1) 
26.122270239779056

>  <r_i_glide_emodel>  (1) 
-37.724879612984168

>  <r_i_glide_emodel_strain>  (1) 
1.1601855752200834

>  <r_i_glide_energy>  (1) 
-34.363501461811836

>  <r_i_glide_erotb>  (1) 
0.52278502944784222

>  <r_i_glide_esite>  (1) 
-0.06645784315143359

>  <r_i_glide_evdw>  (1) 
-29.783220159737358

>  <r_i_glide_gscore>  (1) 
-4.6088044098257024

>  <r_i_glide_gscore_strain>  (1) 
0

>  <r_i_glide_hbond>  (1) 
-0.070326464689076204

>  <r_i_glide_ligand_efficiency>  (1) 
-0.13555307087722654

>  <r_i_glide_ligand_efficiency_ln>  (1) 
-1.018214166715439

>  <r_i_glide_ligand_efficiency_sa>  (1) 
-0.43913932811326628

>  <r_i_glide_lipo>  (1) 
-4.5866907666396894

>  <r_i_glide_metal>  (1) 
-0

>  <r_i_glide_rewards>  (1) 
1.768088838504696

>  <r_lp_Energy>  (1) 
73.777939000000003

>  <r_lp_tautomer_probability>  (1) 
1

>  <s_epik_cmdline>  (1) 
J2VwaWtfcHl0aG9uJywgJy1waHQnLCAnMS4wJywgJy1waCcsICc3LjQnLCAnLXRuJywgJzgnLCAnLW1hJywgJzUwMCcsICctaW1hZScsICc8aW5maWxlLm1hZT4nLCAnLW9tYWUnLCAnPG91dGZpbGUubWFlPic=

>  <s_epik_input>  (1) 
W2NIXTFbY0hdYyhGKVtjSF1bY0hdYzFbQ0gyXVtDQEhdKFtDSDJdMilbQ0gyXVtDSDJdW0NIXShOMjMpW0NAQEhdM1tDQEBIXShDKD1PKVtPSF0pTihbQ0gyXVtDSF0oW0NIM10pW0NIM10pQyg9TylDKD1bQ0hdNClTW0NASF0oQzQ9NSlbQ0hdPVtDSF1bQ0hdNQ==

>  <s_glide_docking_method>  (1) 
confgen

>  <s_i_glide_gridfile>  (1) 
gpcr_5ht2c_6bqh_protein_autoprepared_prepared

>  <s_lp_Force_Field>  (1) 
S-OPLS

>  <s_lp_Variant>  (1) 
DiffSBDD_0_num_sample_50-3

>  <s_m_source_file>  (1) 
generated__ligand_DiffSBDD_2026-05-06_prepared.sdf

>  <GenAI_Model>  (1) 
DiffSBDD

>  <Protein>  (1) 
GPCR_5HT2C

$$$$
DiffSBDD_30_num_sample_50
     RDKit          3D

  0  0  0  0  0  0  0  0  0  0999 V3000
M  V30 BEGIN CTAB
M  V30 COUNTS 68 67 0 0 1
M  V30 BEGIN ATOM
M  V30 1 C 39.406312 29.038023 56.099857 0
M  V30 2 C 36.777963 33.480769 60.734104 0 CFG=2
M  V30 3 C 35.378561 33.261989 61.340485 0
M  V30 4 O 41.123775 34.146832 61.853498 0
M  V30 5 C 41.368514 36.215857 63.053512 0
M  V30 6 C 36.480612 35.582960 59.282068 0
M  V30 7 C 41.750518 27.484878 57.053512 0
M  V30 8 C 39.308456 26.574300 54.188300 0
M  V30 9 C 38.252017 32.655346 58.735548 0
M  V30 10 C 37.068162 35.008665 60.587001 0 CFG=2
M  V30 11 C 39.249458 27.567574 56.578934 0 CFG=1
M  V30 12 C 38.557812 35.397919 60.794164 0
M  V30 13 C 38.551486 26.646961 55.528549 0 CFG=2
M  V30 14 C 37.867443 30.514815 57.475263 0
M  V30 15 C 36.367574 37.105909 59.246834 0
M  V30 16 C 36.880835 32.646989 59.432882 0
M  V30 17 C 40.568675 35.129652 62.341027 0
M  V30 18 C 39.042369 35.306380 62.256350 0 CFG=1
M  V30 19 C 38.090914 29.837677 56.110128 0
M  V30 20 C 38.254470 25.211600 56.031299 0
M  V30 21 O 39.282739 32.266913 56.652631 0 CHG=-1
M  V30 22 C 37.330606 25.136965 57.256579 0
M  V30 23 N 38.177239 31.996000 57.381335 0 CFG=2 CHG=1
M  V30 24 C 38.496275 36.459935 63.129343 0
M  V30 25 C 40.524682 26.943097 57.148786 0
M  V30 26 H 40.101083 29.574974 56.744557 0
M  V30 27 H 39.866535 29.094185 55.116639 0
M  V30 28 H 37.487210 33.059067 61.445247 0
M  V30 29 H 34.593345 33.569906 60.649450 0
M  V30 30 H 35.208133 32.212784 61.582913 0
M  V30 31 H 35.243307 33.838776 62.253502 0
M  V30 32 H 41.160624 37.191901 62.617111 0
M  V30 33 H 41.114912 36.246621 64.112621 0
M  V30 34 H 42.436118 36.021418 62.979640 0
M  V30 35 H 35.476243 35.185346 59.132166 0
M  V30 36 H 37.067415 35.257874 58.424422 0
M  V30 37 H 41.913168 28.421415 56.548935 0
M  V30 38 H 42.609014 26.989505 57.482787 0
M  V30 39 H 40.279035 26.088370 54.297742 0
M  V30 40 H 38.728181 26.021438 53.453593 0
M  V30 41 H 39.467374 27.551159 53.738437 0
M  V30 42 H 39.029482 32.153953 59.312503 0
M  V30 43 H 38.585076 33.661719 58.506195 0
M  V30 44 H 36.522263 35.506793 61.385905 0
M  V30 45 H 38.591733 27.619960 57.446504 0
M  V30 46 H 39.200825 34.797354 60.157474 0
M  V30 47 H 38.717648 36.421410 60.463979 0
M  V30 48 H 37.582062 27.089316 55.300047 0
M  V30 49 H 36.828721 30.421428 57.789927 0
M  V30 50 H 38.498864 30.094970 58.258971 0
M  V30 51 H 35.778553 37.387876 58.375315 0
M  V30 52 H 35.867406 37.495060 60.134106 0
M  V30 53 H 37.340283 37.589066 59.159709 0
M  V30 54 H 36.124496 32.981212 58.723451 0
M  V30 55 H 36.615425 31.618012 59.674289 0
M  V30 56 H 38.667403 34.367912 62.653520 0
M  V30 57 H 38.097961 30.576776 55.308099 0
M  V30 58 H 37.238349 29.207414 55.877492 0
M  V30 59 H 37.779599 24.652006 55.224262 0
M  V30 60 H 39.182784 24.679391 56.239185 0
M  V30 61 H 37.103059 24.099773 57.501662 0
M  V30 62 H 37.791490 25.582909 58.137564 0
M  V30 63 H 36.384968 25.646804 57.071182 0
M  V30 64 H 38.874191 36.421372 64.151141 0
M  V30 65 H 38.756315 37.433520 62.712398 0
M  V30 66 H 37.410349 36.421460 63.208119 0
M  V30 67 H 40.407130 26.000537 57.662526 0
M  V30 68 H 37.328610 32.405445 56.924233 0
M  V30 END ATOM
M  V30 BEGIN BOND
M  V30 1 1 3 2
M  V30 2 1 10 2
M  V30 3 1 10 6
M  V30 4 1 11 1
M  V30 5 1 12 10
M  V30 6 1 13 8
M  V30 7 1 13 11
M  V30 8 1 15 6
M  V30 9 1 16 2
M  V30 10 1 16 9
M  V30 11 2 17 4
M  V30 12 1 17 5
M  V30 13 1 18 12
M  V30 14 1 18 17
M  V30 15 1 19 1
M  V30 16 1 19 14
M  V30 17 1 20 13
M  V30 18 1 22 20
M  V30 19 1 23 9
M  V30 20 1 23 14
M  V30 21 1 23 21
M  V30 22 1 24 18
M  V30 23 2 25 7
M  V30 24 1 25 11
M  V30 25 1 26 1
M  V30 26 1 27 1
M  V30 27 1 2 28 CFG=1
M  V30 28 1 29 3
M  V30 29 1 30 3
M  V30 30 1 31 3
M  V30 31 1 32 5
M  V30 32 1 33 5
M  V30 33 1 34 5
M  V30 34 1 35 6
M  V30 35 1 36 6
M  V30 36 1 37 7
M  V30 37 1 38 7
M  V30 38 1 39 8
M  V30 39 1 40 8
M  V30 40 1 41 8
M  V30 41 1 42 9
M  V30 42 1 43 9
M  V30 43 1 10 44 CFG=1
M  V30 44 1 11 45 CFG=1
M  V30 45 1 46 12
M  V30 46 1 47 12
M  V30 47 1 13 48 CFG=3
M  V30 48 1 49 14
M  V30 49 1 50 14
M  V30 50 1 51 15
M  V30 51 1 52 15
M  V30 52 1 53 15
M  V30 53 1 54 16
M  V30 54 1 55 16
M  V30 55 1 18 56 CFG=1
M  V30 56 1 57 19
M  V30 57 1 58 19
M  V30 58 1 59 20
M  V30 59 1 60 20
M  V30 60 1 61 22
M  V30 61 1 62 22
M  V30 62 1 63 22
M  V30 63 1 64 24
M  V30 64 1 65 24
M  V30 65 1 66 24
M  V30 66 1 67 25
M  V30 67 1 23 68 CFG=3
M  V30 END BOND
M  V30 END CTAB
M  END
>  <i_epik_Tot_Q>  (1) 
0

>  <i_epik_Tot_abs_Q>  (1) 
2

>  <i_i_glide_confnum>  (1) 
3508

>  <i_i_glide_lignum>  (1) 
79

>  <i_i_glide_posenum>  (1) 
86

>  <i_i_glide_rotatable_bonds>  (1) 
15

>  <i_lp_mmshare_version>  (1) 
72125

>  <i_m_source_file_index>  (1) 
31

>  <i_f3d_flags>  (1) 
0

>  <num_sample>  (1) 
50

>  <b_lp_Chiralities_Consistent>  (1) 
1

>  <r_epik_Charging_Adjusted_Penalty>  (1) 
0.52251968911758562

>  <r_epik_Ionization_Penalty>  (1) 
0.019979657236955634

>  <r_epik_Ionization_Penalty_Charging>  (1) 
0.019979657236557934

>  <r_epik_Ionization_Penalty_Neutral>  (1) 
3.9770064437045143e-13

>  <r_epik_State_Penalty>  (1) 
0.50254003188102769

>  <r_glide_ring_energy>  (1) 
0

>  <r_i_docking_score>  (1) 
-4.6009779719300123

>  <r_i_glide_ecoul>  (1) 
-3.0682729267829858

>  <r_i_glide_eff_state_penalty>  (1) 
0.50254003188102769

>  <r_i_glide_einternal>  (1) 
14.904319499073592

>  <r_i_glide_emodel>  (1) 
-41.896306586256372

>  <r_i_glide_emodel_strain>  (1) 
1.3768399004725893

>  <r_i_glide_energy>  (1) 
-37.714201962726584

>  <r_i_glide_erotb>  (1) 
1.833058027080513

>  <r_i_glide_esite>  (1) 
-0.10000000000000001

>  <r_i_glide_evdw>  (1) 
-34.645929035943595

>  <r_i_glide_gscore>  (1) 
-5.1035180038110397

>  <r_i_glide_gscore_strain>  (1) 
0

>  <r_i_glide_hbond>  (1) 
-0.10045562290294542

>  <r_i_glide_ligand_efficiency>  (1) 
-0.18403911887720048

>  <r_i_glide_ligand_efficiency_ln>  (1) 
-1.0905696595309837

>  <r_i_glide_ligand_efficiency_sa>  (1) 
-0.5381336481220006

>  <r_i_glide_lipo>  (1) 
-2.6860821216457227

>  <r_i_glide_metal>  (1) 
-0

>  <r_i_glide_rewards>  (1) 
-1.857500895528257

>  <r_lp_Energy>  (1) 
19.132985999999999

>  <s_epik_cmdline>  (1) 
J2VwaWtfcHl0aG9uJywgJy1waHQnLCAnMS4wJywgJy1waCcsICc3LjQnLCAnLXRuJywgJzgnLCAnLW1hJywgJzUwMCcsICctaW1hZScsICc8aW5maWxlLm1hZT4nLCAnLW9tYWUnLCAnPG91dGZpbGUubWFlPic=

>  <s_epik_input>  (1) 
W0NIM11bQ0gyXVtDQEhdKFtDSDNdKVtDQEBIXShbQ0hdPVtDSDJdKVtDSDJdW0NIMl1bQ0gyXU4oW09IXSlbQ0gyXVtDSDJdW0NASF0oW0NIM10pW0NASF0oW0NIMl1bQ0gzXSlbQ0gyXVtDQEhdKFtDSDNdKUMoPU8pW0NIM10=

>  <s_glide_docking_method>  (1) 
confgen

>  <s_i_glide_gridfile>  (1) 
gpcr_5ht2c_6bqh_protein_autoprepared_prepared

>  <s_lp_Force_Field>  (1) 
S-OPLS

>  <s_lp_Variant>  (1) 
DiffSBDD_30_num_sample_50-3

>  <s_m_source_file>  (1) 
generated__ligand_DiffSBDD_2026-05-06_prepared.sdf

>  <GenAI_Model>  (1) 
DiffSBDD

>  <Protein>  (1) 
GPCR_5HT2C

$$$$
DiffSBDD_35_num_sample_50
     RDKit          3D

  0  0  0  0  0  0  0  0  0  0999 V3000
M  V30 BEGIN CTAB
M  V30 COUNTS 44 43 0 0 1
M  V30 BEGIN ATOM
M  V30 1 C 36.374811 34.699473 60.413657 0
M  V30 2 C 35.038901 32.562209 60.832944 0
M  V30 3 C 39.332463 28.868998 60.186330 0
M  V30 4 C 35.852556 33.704522 61.452851 0
M  V30 5 C 40.820163 35.884358 64.812258 0
M  V30 6 C 36.818530 31.009502 60.162237 0
M  V30 7 C 38.986940 29.992996 59.195358 0
M  V30 8 C 40.472045 36.286032 63.358901 0 CFG=1
M  V30 9 O 37.243567 30.896528 61.312238 0
M  V30 10 N 42.259119 35.621417 65.023736 0 CHG=1
M  V30 11 N 37.162274 35.715369 61.085054 0
M  V30 12 O 40.728341 28.670422 60.200355 0
M  V30 13 C 40.629786 35.093415 62.395422 0
M  V30 14 S 38.781460 36.970863 63.317646 0
M  V30 15 N 35.773919 31.784276 59.844869 0
M  V30 16 C 37.522148 36.889554 60.461030 0
M  V30 17 S 38.522649 37.957186 61.520976 0
M  V30 18 O 37.226497 37.221554 59.316995 0
M  V30 19 O 40.641404 35.518379 61.053468 0
M  V30 20 C 37.480603 30.249528 59.008531 0
M  V30 21 H 37.008782 34.195624 59.683299 0
M  V30 22 H 35.546151 35.144262 59.857071 0
M  V30 23 H 34.169002 32.982767 60.326922 0
M  V30 24 H 34.669099 31.902008 61.619987 0
M  V30 25 H 38.841501 27.936739 59.907074 0
M  V30 26 H 39.021622 29.110204 61.201801 0
M  V30 27 H 35.224153 34.229367 62.173239 0
M  V30 28 H 36.686742 33.296101 62.023379 0
M  V30 29 H 40.523055 36.676882 65.502516 0
M  V30 30 H 40.267403 34.997909 65.110919 0
M  V30 31 H 39.467319 30.916644 59.513640 0
M  V30 32 H 39.409177 29.746377 58.221010 0
M  V30 33 H 41.139663 37.092029 63.053265 0
M  V30 34 H 42.401664 35.328827 65.979035 0
M  V30 35 H 42.595448 34.906566 64.398777 0
M  V30 36 H 37.476800 35.573471 62.032525 0
M  V30 37 H 40.999077 28.329510 59.361391 0
M  V30 38 H 41.569018 34.569647 62.572266 0
M  V30 39 H 39.828343 34.365683 62.538206 0
M  V30 40 H 35.473498 31.838438 58.871583 0
M  V30 41 H 41.345294 36.136710 60.915460 0
M  V30 42 H 37.347876 30.842662 58.103094 0
M  V30 43 H 36.948350 29.312392 58.837540 0
M  V30 44 H 42.766856 36.490017 64.871355 0
M  V30 END ATOM
M  V30 BEGIN BOND
M  V30 1 1 4 1
M  V30 2 1 4 2
M  V30 3 1 7 3
M  V30 4 1 8 5
M  V30 5 2 9 6
M  V30 6 1 10 5
M  V30 7 1 11 1
M  V30 8 1 12 3
M  V30 9 1 13 8
M  V30 10 1 14 8
M  V30 11 1 15 2
M  V30 12 1 15 6
M  V30 13 1 16 11
M  V30 14 1 17 14
M  V30 15 1 17 16
M  V30 16 2 18 16
M  V30 17 1 19 13
M  V30 18 1 20 6
M  V30 19 1 20 7
M  V30 20 1 21 1
M  V30 21 1 22 1
M  V30 22 1 23 2
M  V30 23 1 24 2
M  V30 24 1 25 3
M  V30 25 1 26 3
M  V30 26 1 27 4
M  V30 27 1 28 4
M  V30 28 1 29 5
M  V30 29 1 30 5
M  V30 30 1 31 7
M  V30 31 1 32 7
M  V30 32 1 8 33 CFG=3
M  V30 33 1 34 10
M  V30 34 1 35 10
M  V30 35 1 36 11
M  V30 36 1 37 12
M  V30 37 1 38 13
M  V30 38 1 39 13
M  V30 39 1 40 15
M  V30 40 1 41 19
M  V30 41 1 42 20
M  V30 42 1 43 20
M  V30 43 1 44 10
M  V30 END BOND
M  V30 END CTAB
M  END
>  <i_epik_Tot_Q>  (1) 
1

>  <i_epik_Tot_abs_Q>  (1) 
1

>  <i_i_glide_confnum>  (1) 
1369

>  <i_i_glide_lignum>  (1) 
89

>  <i_i_glide_posenum>  (1) 
66

>  <i_i_glide_rotatable_bonds>  (1) 
16

>  <i_lp_mmshare_version>  (1) 
72125

>  <i_m_source_file_index>  (1) 
36

>  <i_f3d_flags>  (1) 
0

>  <num_sample>  (1) 
50

>  <b_lp_Chiralities_Consistent>  (1) 
1

>  <r_epik_Charging_Adjusted_Penalty>  (1) 
0.070813283132224986

>  <r_epik_Ionization_Penalty>  (1) 
0.035414902051254887

>  <r_epik_Ionization_Penalty_Charging>  (1) 
0.0354066415661125

>  <r_epik_Ionization_Penalty_Neutral>  (1) 
8.2604851423881855e-06

>  <r_epik_State_Penalty>  (1) 
0.035406641566112479

>  <r_glide_ring_energy>  (1) 
0

>  <r_i_docking_score>  (1) 
-4.5543081091209885

>  <r_i_glide_ecoul>  (1) 
-11.728759798516723

>  <r_i_glide_eff_state_penalty>  (1) 
0.035406641566112479

>  <r_i_glide_einternal>  (1) 
7.1579268151010069

>  <r_i_glide_emodel>  (1) 
-52.111877864419768

>  <r_i_glide_emodel_strain>  (1) 
0

>  <r_i_glide_energy>  (1) 
-41.425483131611486

>  <r_i_glide_erotb>  (1) 
2.287715563984396

>  <r_i_glide_esite>  (1) 
-0.1839041956867225

>  <r_i_glide_evdw>  (1) 
-29.696723333094766

>  <r_i_glide_gscore>  (1) 
-4.5897147506871008

>  <r_i_glide_gscore_strain>  (1) 
0

>  <r_i_glide_hbond>  (1) 
-0.47130821368282982

>  <r_i_glide_ligand_efficiency>  (1) 
-0.22771540545604943

>  <r_i_glide_ligand_efficiency_ln>  (1) 
-1.1397931085783619

>  <r_i_glide_ligand_efficiency_sa>  (1) 
-0.61811470813995251

>  <r_i_glide_lipo>  (1) 
-1.3584799111804056

>  <r_i_glide_metal>  (1) 
-0

>  <r_i_glide_rewards>  (1) 
-1.6195878576892917

>  <r_lp_Energy>  (1) 
-0.712812

>  <s_epik_cmdline>  (1) 
J2VwaWtfcHl0aG9uJywgJy1waHQnLCAnMS4wJywgJy1waCcsICc3LjQnLCAnLXRuJywgJzgnLCAnLW1hJywgJzUwMCcsICctaW1hZScsICc8aW5maWxlLm1hZT4nLCAnLW9tYWUnLCAnPG91dGZpbGUubWFlPic=

>  <s_epik_input>  (1) 
W05IMl1bQ0gyXVtDQEBIXShbQ0gyXVtPSF0pU1NDKD1PKVtOSF1bQ0gyXVtDSDJdW0NIMl1bTkhdQyg9TylbQ0gyXVtDSDJdW0NIMl1bT0hd

>  <s_glide_docking_method>  (1) 
confgen

>  <s_i_glide_gridfile>  (1) 
gpcr_5ht2c_6bqh_protein_autoprepared_prepared

>  <s_lp_Force_Field>  (1) 
S-OPLS

>  <s_lp_Variant>  (1) 
DiffSBDD_35_num_sample_50-1

>  <s_m_source_file>  (1) 
generated__ligand_DiffSBDD_2026-05-06_prepared.sdf

>  <GenAI_Model>  (1) 
DiffSBDD

>  <Protein>  (1) 
GPCR_5HT2C

$$$$
DiffSBDD_5_num_sample_50
     RDKit          3D

  0  0  0  0  0  0  0  0  0  0999 V3000
M  V30 BEGIN CTAB
M  V30 COUNTS 79 81 0 0 1
M  V30 BEGIN ATOM
M  V30 1 C 39.090721 29.471049 57.361178 0
M  V30 2 C 39.380974 26.882850 57.343183 0 CFG=2
M  V30 3 N 36.669957 36.811075 61.971315 0
M  V30 4 F 39.867457 31.221503 49.862108 0
M  V30 5 C 37.953295 31.275998 59.987559 0
M  V30 6 N 38.258728 29.471642 58.354375 0 CHG=1
M  V30 7 C 38.216667 33.296189 61.575918 0 CFG=1
M  V30 8 C 39.291576 29.306830 51.082047 0 CFG=2
M  V30 9 C 37.580496 25.202161 56.952374 0
M  V30 10 C 37.588356 30.770400 58.573902 0 CFG=2
M  V30 11 N 39.125029 30.618554 56.753857 0
M  V30 12 C 38.552835 24.023454 57.050554 0
M  V30 13 C 38.799145 28.122038 54.795424 0 CFG=2
M  V30 14 C 36.477540 24.799711 55.964464 0
M  V30 15 N 38.815648 27.342772 52.428168 0 CHG=1
M  V30 16 C 36.799925 35.405402 61.593577 0
M  V30 17 C 39.232288 26.694333 58.860429 0
M  V30 18 C 38.218952 31.621132 57.327603 0
M  V30 19 C 39.937208 28.280812 56.959258 0 CFG=1
M  V30 20 C 39.456459 27.795364 51.177360 0
M  V30 21 O 37.465802 37.623444 60.018535 0
M  V30 22 C 40.259023 29.974052 50.097581 0
M  V30 23 C 36.667295 39.226330 61.610443 0
M  V30 24 C 36.975105 37.811322 61.131740 0
M  V30 25 S 39.467386 29.910575 52.774099 0
M  V30 26 C 40.162107 28.303428 55.453779 0
M  V30 27 C 38.316673 26.705771 55.134304 0
M  V30 28 C 40.607877 32.895643 61.730505 0
M  V30 29 O 39.305636 32.670682 62.254051 0
M  V30 30 O 39.012179 35.401159 60.667285 0
M  V30 31 N 38.159887 26.519144 56.589269 0
M  V30 32 C 38.233595 34.844089 61.709111 0 CFG=2
M  V30 33 N 38.769502 28.468083 53.371581 0
M  V30 34 C 38.018056 32.802348 60.126321 0
M  V30 35 H 40.165419 26.194238 57.028699 0
M  V30 36 H 36.277001 37.024235 62.876668 0
M  V30 37 H 38.904869 30.851506 60.310128 0
M  V30 38 H 37.208441 30.893502 60.685812 0
M  V30 39 H 37.357231 32.935500 62.141901 0
M  V30 40 H 38.267409 29.493328 50.784326 0
M  V30 41 H 37.121364 25.334579 57.932719 0
M  V30 42 H 36.510247 30.663556 58.463294 0
M  V30 43 H 39.711734 30.817635 55.955456 0
M  V30 44 H 38.111127 23.253520 57.688525 0
M  V30 45 H 38.685331 23.621430 56.053906 0
M  V30 46 H 39.539727 24.235492 57.452471 0
M  V30 47 H 38.096316 28.824080 55.245758 0
M  V30 48 H 35.867511 23.949186 56.253638 0
M  V30 49 H 35.867404 25.676229 55.853552 0
M  V30 50 H 36.866574 24.533374 54.980655 0
M  V30 51 H 39.325938 26.587144 52.862478 0
M  V30 52 H 36.399232 35.256158 60.589607 0
M  V30 53 H 36.129515 34.850892 62.253314 0
M  V30 54 H 40.022815 27.206945 59.411002 0
M  V30 55 H 38.271926 27.039067 59.238537 0
M  V30 56 H 39.310384 25.638977 59.098309 0
M  V30 57 H 37.467402 31.905614 56.593987 0
M  V30 58 H 38.784458 32.507732 57.597313 0
M  V30 59 H 40.907167 28.404159 57.444751 0
M  V30 60 H 39.071418 27.262865 50.306040 0
M  V30 61 H 40.520239 27.621447 51.244711 0
M  V30 62 H 41.279304 30.012178 50.480399 0
M  V30 63 H 40.265734 29.462670 49.134856 0
M  V30 64 H 35.833234 39.644159 61.053569 0
M  V30 65 H 36.363299 39.241713 62.656055 0
M  V30 66 H 37.527197 39.877969 61.453501 0
M  V30 67 H 40.666264 29.224552 55.170165 0
M  V30 68 H 40.794770 27.456832 55.197342 0
M  V30 69 H 37.365956 26.598609 54.617176 0
M  V30 70 H 38.995913 25.945017 54.748081 0
M  V30 71 H 41.331337 32.353705 62.338694 0
M  V30 72 H 40.701068 32.528230 60.709217 0
M  V30 73 H 40.887514 33.948211 61.756492 0
M  V30 74 H 38.641386 36.250571 60.449125 0
M  V30 75 H 38.668304 35.136980 62.663841 0
M  V30 76 H 37.110498 33.237140 59.706180 0
M  V30 77 H 38.843228 33.178713 59.526362 0
M  V30 78 H 37.853083 27.079078 52.251001 0
M  V30 79 H 38.083737 28.669078 58.942550 0
M  V30 END ATOM
M  V30 BEGIN BOND
M  V30 1 2 6 1
M  V30 2 1 10 5
M  V30 3 1 10 6
M  V30 4 1 11 1
M  V30 5 1 12 9
M  V30 6 1 14 9
M  V30 7 1 16 3
M  V30 8 1 17 2
M  V30 9 1 18 10
M  V30 10 1 18 11
M  V30 11 1 19 1
M  V30 12 1 19 2
M  V30 13 1 20 8
M  V30 14 1 20 15
M  V30 15 1 22 4
M  V30 16 1 22 8
M  V30 17 1 24 3
M  V30 18 2 24 21
M  V30 19 1 24 23
M  V30 20 1 25 8
M  V30 21 1 26 13
M  V30 22 1 26 19
M  V30 23 1 27 13
M  V30 24 1 29 7
M  V30 25 1 29 28
M  V30 26 1 31 2
M  V30 27 1 31 9
M  V30 28 1 31 27
M  V30 29 1 32 7
M  V30 30 1 32 16
M  V30 31 1 32 30
M  V30 32 1 33 13
M  V30 33 1 33 15
M  V30 34 1 33 25
M  V30 35 1 34 5
M  V30 36 1 34 7
M  V30 37 1 2 35 CFG=3
M  V30 38 1 36 3
M  V30 39 1 37 5
M  V30 40 1 38 5
M  V30 41 1 7 39 CFG=1
M  V30 42 1 8 40 CFG=3
M  V30 43 1 41 9
M  V30 44 1 10 42 CFG=3
M  V30 45 1 43 11
M  V30 46 1 44 12
M  V30 47 1 45 12
M  V30 48 1 46 12
M  V30 49 1 13 47 CFG=1
M  V30 50 1 48 14
M  V30 51 1 49 14
M  V30 52 1 50 14
M  V30 53 1 51 15
M  V30 54 1 52 16
M  V30 55 1 53 16
M  V30 56 1 54 17
M  V30 57 1 55 17
M  V30 58 1 56 17
M  V30 59 1 57 18
M  V30 60 1 58 18
M  V30 61 1 19 59 CFG=1
M  V30 62 1 60 20
M  V30 63 1 61 20
M  V30 64 1 62 22
M  V30 65 1 63 22
M  V30 66 1 64 23
M  V30 67 1 65 23
M  V30 68 1 66 23
M  V30 69 1 67 26
M  V30 70 1 68 26
M  V30 71 1 69 27
M  V30 72 1 70 27
M  V30 73 1 71 28
M  V30 74 1 72 28
M  V30 75 1 73 28
M  V30 76 1 74 30
M  V30 77 1 32 75 CFG=1
M  V30 78 1 76 34
M  V30 79 1 77 34
M  V30 80 1 78 15
M  V30 81 1 79 6
M  V30 END BOND
M  V30 END CTAB
M  END
>  <i_epik_Tot_Q>  (1) 
2

>  <i_epik_Tot_abs_Q>  (1) 
2

>  <i_i_glide_confnum>  (1) 
1808

>  <i_i_glide_lignum>  (1) 
19

>  <i_i_glide_posenum>  (1) 
167

>  <i_i_glide_rotatable_bonds>  (1) 
13

>  <i_lp_mmshare_version>  (1) 
72125

>  <i_m_source_file_index>  (1) 
6

>  <i_f3d_flags>  (1) 
0

>  <num_sample>  (1) 
50

>  <b_lp_Chiralities_Consistent>  (1) 
1

>  <r_epik_Charging_Adjusted_Penalty>  (1) 
1.2202907703101018

>  <r_epik_Ionization_Penalty>  (1) 
1.220291206888735

>  <r_epik_Ionization_Penalty_Charging>  (1) 
0.00010224848283174563

>  <r_epik_Ionization_Penalty_Neutral>  (1) 
1.2201889584059034

>  <r_epik_State_Penalty>  (1) 
1.2201885218272701

>  <r_glide_ring_energy>  (1) 
0

>  <r_i_docking_score>  (1) 
-4.46704384284231

>  <r_i_glide_ecoul>  (1) 
-3.5837746917422582

>  <r_i_glide_eff_state_penalty>  (1) 
1.2201885218272701

>  <r_i_glide_einternal>  (1) 
14.490152236253049

>  <r_i_glide_emodel>  (1) 
-23.47314368076362

>  <r_i_glide_emodel_strain>  (1) 
8.2110395099786757

>  <r_i_glide_energy>  (1) 
-38.525103619246842

>  <r_i_glide_erotb>  (1) 
0.64218136225351719

>  <r_i_glide_esite>  (1) 
-0.027699495916600175

>  <r_i_glide_evdw>  (1) 
-34.941328927504586

>  <r_i_glide_gscore>  (1) 
-5.6872323646695806

>  <r_i_glide_gscore_strain>  (1) 
1.0527598774946689

>  <r_i_glide_hbond>  (1) 
0

>  <r_i_glide_ligand_efficiency>  (1) 
-0.13138364243653852

>  <r_i_glide_ligand_efficiency_ln>  (1) 
-0.98689528121958836

>  <r_i_glide_ligand_efficiency_sa>  (1) 
-0.42563199853223144

>  <r_i_glide_lipo>  (1) 
-3.8504730790386623

>  <r_i_glide_metal>  (1) 
-0

>  <r_i_glide_rewards>  (1) 
-1.2193683793259353

>  <r_lp_Energy>  (1) 
27.210827999999999

>  <s_epik_Chemistry_Notes>  (1) 
This compound has an imine and may undergo hydrolysis. This compound has a N-S or N-O group and may undergo hydrolysis at high or low pH.

>  <s_epik_cmdline>  (1) 
J2VwaWtfcHl0aG9uJywgJy1waHQnLCAnMS4wJywgJy1waCcsICc3LjQnLCAnLXRuJywgJzgnLCAnLW1hJywgJzUwMCcsICctaW1hZScsICc8aW5maWxlLm1hZT4nLCAnLW9tYWUnLCAnPG91dGZpbGUubWFlPic=

>  <s_epik_input>  (1) 
RltDSDJdW0NASF0xW0NIMl1bTkhdTihTMSlbQ0BASF0oW0NIMl1OMltDSF0oW0NIM10pW0NIM10pW0NIMl1bQ0BASF0oW0NASF0yW0NIM10pQzM9TltDQEhdKFtDSDJdW05IXTMpW0NIMl1bQ0gyXVtDQEBIXShPW0NIM10pW0NAQEhdKFtPSF0pW0NIMl1bTkhdQyg9TylbQ0gzXQ==

>  <s_glide_docking_method>  (1) 
confgen

>  <s_i_glide_gridfile>  (1) 
gpcr_5ht2c_6bqh_protein_autoprepared_prepared

>  <s_lp_Force_Field>  (1) 
S-OPLS

>  <s_lp_Variant>  (1) 
DiffSBDD_5_num_sample_50-6

>  <s_m_source_file>  (1) 
generated__ligand_DiffSBDD_2026-05-06_prepared.sdf

>  <GenAI_Model>  (1) 
DiffSBDD

>  <Protein>  (1) 
GPCR_5HT2C

$$$$
DiffSBDD_39_num_sample_50
     RDKit          3D

  0  0  0  0  0  0  0  0  0  0999 V3000
M  V30 BEGIN CTAB
M  V30 COUNTS 88 94 0 0 1
M  V30 BEGIN ATOM
M  V30 1 C 38.965456 30.906037 56.474278 0 CFG=2
M  V30 2 C 39.691408 30.310827 53.355735 0
M  V30 3 C 40.267392 33.174101 60.483908 0
M  V30 4 C 40.267402 34.669906 60.674545 0
M  V30 5 C 38.267387 32.350212 54.029262 0
M  V30 6 O 42.866481 30.763875 63.819133 0
M  V30 7 N 38.232825 30.244905 55.392990 0
M  V30 8 C 37.813977 24.841953 56.776401 0
M  V30 9 C 39.424446 32.403551 61.490264 0 CFG=2
M  V30 10 C 41.178536 28.584791 62.896426 0
M  V30 11 C 38.494185 30.171324 60.252747 0 CFG=2
M  V30 12 S 39.721694 28.477661 57.853449 0
M  V30 13 C 39.169352 29.316007 50.935741 0
M  V30 14 C 42.739404 30.840285 65.230490 0
M  V30 15 C 42.258767 32.247161 65.615225 0
M  V30 16 O 38.667486 28.754697 60.298035 0
M  V30 17 O 41.083290 28.421454 57.304048 0
M  V30 18 C 37.692569 27.850261 53.593628 0
M  V30 19 O 39.407916 30.188039 62.473774 0
M  V30 20 C 36.826068 30.021478 55.695048 0
M  V30 21 O 37.658722 24.705135 55.486993 0
M  V30 22 C 39.422673 25.767889 54.271444 0
M  V30 23 C 37.836957 32.048781 58.591498 0
M  V30 24 C 39.014159 30.154568 57.756030 0
M  V30 25 C 38.303336 32.239426 57.090414 0
M  V30 26 C 41.667706 31.082271 63.115826 0 CFG=2
M  V30 27 C 39.692093 34.480374 63.053440 0
M  V30 28 C 39.807469 28.244410 59.637629 0
M  V30 29 N 37.867492 24.813838 57.927885 0
M  V30 30 C 40.578791 28.993450 51.319266 0
M  V30 31 O 41.045956 32.536450 64.933182 0
M  V30 32 O 38.686101 27.582134 57.323494 0
M  V30 33 C 39.826537 32.928083 62.910622 0 CFG=2
M  V30 34 C 39.867421 26.821431 53.469757 0
M  V30 35 C 38.502491 30.742180 58.824027 0
M  V30 36 C 41.186313 32.487762 63.514622 0 CFG=2
M  V30 37 C 37.256009 26.804623 54.409125 0
M  V30 38 C 38.111365 25.753727 54.737203 0
M  V30 39 C 39.522119 29.113706 52.394941 0
M  V30 40 C 39.532719 30.853252 61.223579 0 CFG=2
M  V30 41 C 38.402626 30.826300 54.050876 0 CFG=2
M  V30 42 C 40.596612 29.964816 63.240049 0 CFG=2
M  V30 43 C 40.027502 35.249102 61.832210 0
M  V30 44 C 39.014133 27.897906 53.151556 0
M  V30 45 H 39.988918 31.096192 56.149809 0
M  V30 46 H 40.125037 31.129991 52.780736 0
M  V30 47 H 40.445018 30.057767 54.101165 0
M  V30 48 H 40.015827 32.979382 59.453927 0
M  V30 49 H 41.283737 32.821390 60.653557 0
M  V30 50 H 40.498456 35.266406 59.823311 0
M  V30 51 H 38.267417 32.730583 53.012081 0
M  V30 52 H 37.310948 32.675730 54.427328 0
M  V30 53 H 39.066519 32.821400 54.594269 0
M  V30 54 H 38.375805 32.681525 61.372413 0
M  V30 55 H 41.857036 28.251749 63.682376 0
M  V30 56 H 40.390927 27.837121 62.805210 0
M  V30 57 H 41.748157 28.597404 61.969427 0
M  V30 58 H 37.493213 30.342728 60.648935 0
M  V30 59 H 38.632743 28.532061 50.406819 0
M  V30 60 H 39.067385 30.321785 50.536022 0
M  V30 61 H 43.712006 30.634281 65.679247 0
M  V30 62 H 42.055447 30.074451 65.596009 0
M  V30 63 H 43.015801 32.996658 65.378219 0
M  V30 64 H 42.079735 32.295916 66.689767 0
M  V30 65 H 37.015876 28.637620 53.334981 0
M  V30 66 H 36.372154 29.285569 55.053538 0
M  V30 67 H 36.646147 29.726287 56.727734 0
M  V30 68 H 36.267482 30.907485 55.453465 0
M  V30 69 H 40.087606 24.959726 54.514878 0
M  V30 70 H 36.762273 31.867662 58.653525 0
M  V30 71 H 38.022037 32.900272 59.231334 0
M  V30 72 H 37.467509 32.631715 56.522638 0
M  V30 73 H 39.062423 33.021843 57.070707 0
M  V30 74 H 42.010368 31.156342 62.091445 0
M  V30 75 H 40.210170 34.890830 63.922591 0
M  V30 76 H 38.667428 34.782970 63.053501 0
M  V30 77 H 40.739263 28.692201 59.971369 0
M  V30 78 H 39.890735 27.177359 59.815938 0
M  V30 79 H 41.287779 29.803254 51.163556 0
M  V30 80 H 40.943212 28.021433 51.053490 0
M  V30 81 H 39.067417 32.487804 63.526884 0
M  V30 82 H 40.879014 26.820973 53.115716 0
M  V30 83 H 41.954631 33.201798 63.210798 0
M  V30 84 H 36.267402 26.821446 54.791595 0
M  V30 85 H 40.503113 30.645994 60.783410 0
M  V30 86 H 37.566280 30.503772 53.453521 0
M  V30 87 H 40.246129 29.917721 64.270412 0
M  V30 88 H 40.049544 36.326201 61.915476 0
M  V30 END ATOM
M  V30 BEGIN BOND
M  V30 1 1 4 3
M  V30 2 1 7 1
M  V30 3 1 9 3
M  V30 4 1 14 6
M  V30 5 1 15 14
M  V30 6 1 16 11
M  V30 7 2 17 12
M  V30 8 1 20 7
M  V30 9 1 21 8
M  V30 10 1 24 1
M  V30 11 1 24 12
M  V30 12 1 25 1
M  V30 13 1 25 23
M  V30 14 1 26 6
M  V30 15 1 28 12
M  V30 16 1 28 16
M  V30 17 3 29 8
M  V30 18 1 30 13
M  V30 19 1 31 15
M  V30 20 2 32 12
M  V30 21 1 33 9
M  V30 22 1 33 27
M  V30 23 2 34 22
M  V30 24 1 35 11
M  V30 25 1 35 23
M  V30 26 2 35 24
M  V30 27 1 36 26
M  V30 28 1 36 31
M  V30 29 1 36 33
M  V30 30 1 37 18
M  V30 31 1 38 21
M  V30 32 1 38 22
M  V30 33 2 38 37
M  V30 34 1 39 2
M  V30 35 1 39 13
M  V30 36 1 39 30
M  V30 37 1 40 9
M  V30 38 1 40 11
M  V30 39 1 40 19
M  V30 40 1 41 2
M  V30 41 1 41 5
M  V30 42 1 41 7
M  V30 43 1 42 10
M  V30 44 1 42 19
M  V30 45 1 42 26
M  V30 46 2 43 4
M  V30 47 1 43 27
M  V30 48 2 44 18
M  V30 49 1 44 34
M  V30 50 1 44 39
M  V30 51 1 1 45 CFG=3
M  V30 52 1 46 2
M  V30 53 1 47 2
M  V30 54 1 48 3
M  V30 55 1 49 3
M  V30 56 1 50 4
M  V30 57 1 51 5
M  V30 58 1 52 5
M  V30 59 1 53 5
M  V30 60 1 9 54 CFG=3
M  V30 61 1 55 10
M  V30 62 1 56 10
M  V30 63 1 57 10
M  V30 64 1 11 58 CFG=1
M  V30 65 1 59 13
M  V30 66 1 60 13
M  V30 67 1 61 14
M  V30 68 1 62 14
M  V30 69 1 63 15
M  V30 70 1 64 15
M  V30 71 1 65 18
M  V30 72 1 66 20
M  V30 73 1 67 20
M  V30 74 1 68 20
M  V30 75 1 69 22
M  V30 76 1 70 23
M  V30 77 1 71 23
M  V30 78 1 72 25
M  V30 79 1 73 25
M  V30 80 1 26 74 CFG=3
M  V30 81 1 75 27
M  V30 82 1 76 27
M  V30 83 1 77 28
M  V30 84 1 78 28
M  V30 85 1 79 30
M  V30 86 1 80 30
M  V30 87 1 33 81 CFG=1
M  V30 88 1 82 34
M  V30 89 1 36 83 CFG=3
M  V30 90 1 84 37
M  V30 91 1 40 85 CFG=3
M  V30 92 1 41 86 CFG=3
M  V30 93 1 42 87 CFG=1
M  V30 94 1 88 43
M  V30 END BOND
M  V30 END CTAB
M  END
>  <i_epik_Tot_Q>  (1) 
0

>  <i_epik_Tot_abs_Q>  (1) 
0

>  <i_i_glide_confnum>  (1) 
444

>  <i_i_glide_lignum>  (1) 
93

>  <i_i_glide_posenum>  (1) 
288

>  <i_i_glide_rotatable_bonds>  (1) 
7

>  <i_lp_mmshare_version>  (1) 
72125

>  <i_m_source_file_index>  (1) 
40

>  <i_f3d_flags>  (1) 
0

>  <num_sample>  (1) 
50

>  <b_lp_Chiralities_Consistent>  (1) 
1

>  <r_epik_Charging_Adjusted_Penalty>  (1) 
0

>  <r_epik_Ionization_Penalty>  (1) 
0.0018775400200383807

>  <r_epik_Ionization_Penalty_Charging>  (1) 
0

>  <r_epik_Ionization_Penalty_Neutral>  (1) 
0.0018775400200383807

>  <r_epik_State_Penalty>  (1) 
-0

>  <r_glide_ring_energy>  (1) 
0

>  <r_i_docking_score>  (1) 
-4.4593330883771944

>  <r_i_glide_ecoul>  (1) 
1.4750731349253494

>  <r_i_glide_eff_state_penalty>  (1) 
-0

>  <r_i_glide_einternal>  (1) 
7.110058140755406

>  <r_i_glide_emodel>  (1) 
-15.222392263927855

>  <r_i_glide_emodel_strain>  (1) 
1.6142499634640899

>  <r_i_glide_energy>  (1) 
-18.966386976192599

>  <r_i_glide_erotb>  (1) 
0.2436664055198263

>  <r_i_glide_esite>  (1) 
0

>  <r_i_glide_evdw>  (1) 
-20.441460111117948

>  <r_i_glide_gscore>  (1) 
-4.4593330883771944

>  <r_i_glide_gscore_strain>  (1) 
0

>  <r_i_glide_hbond>  (1) 
0

>  <r_i_glide_ligand_efficiency>  (1) 
-0.10134847928129988

>  <r_i_glide_ligand_efficiency_ln>  (1) 
-0.93209789527615172

>  <r_i_glide_ligand_efficiency_sa>  (1) 
-0.35779543511856504

>  <r_i_glide_lipo>  (1) 
-4.4694376899799835

>  <r_i_glide_metal>  (1) 
-0

>  <r_i_glide_rewards>  (1) 
0.5672502314000587

>  <r_lp_Energy>  (1) 
39.908791999999998

>  <r_lp_tautomer_probability>  (1) 
1

>  <s_epik_cmdline>  (1) 
J2VwaWtfcHl0aG9uJywgJy1waHQnLCAnMS4wJywgJy1waCcsICc3LjQnLCAnLXRuJywgJzgnLCAnLW1hJywgJzUwMCcsICctaW1hZScsICc8aW5maWxlLm1hZT4nLCAnLW9tYWUnLCAnPG91dGZpbGUubWFlPic=

>  <s_epik_input>  (1) 
TiNDT2MxW2NIXVtjSF1jKFtjSF1bY0hdMSlDMihbQ0gyXVtDSDJdMilbQ0gyXVtDQEhdKFtDSDNdKU4oW0NIM10pW0NASF0zW0NIMl1bQ0gyXUMoPUMzNClbQ0BASF0oT1tDSDJdUzQoPU8pPU8pW0NAQEhdNU9bQ0BASF0oW0NIM10pW0NASF0oT1tDSDJdW0NIMl1PNilbQ0BIXTZbQ0BIXShbQ0BIXTU3KVtDSDJdW0NIXT1bQ0hdW0NIMl03

>  <s_glide_docking_method>  (1) 
confgen

>  <s_i_glide_gridfile>  (1) 
gpcr_5ht2c_6bqh_protein_autoprepared_prepared

>  <s_lp_Force_Field>  (1) 
S-OPLS

>  <s_lp_Variant>  (1) 
DiffSBDD_39_num_sample_50-1

>  <s_m_source_file>  (1) 
generated__ligand_DiffSBDD_2026-05-06_prepared.sdf

>  <GenAI_Model>  (1) 
DiffSBDD

>  <Protein>  (1) 
GPCR_5HT2C

$$$$
DiffSBDD_17_num_sample_50
     RDKit          3D

  0  0  0  0  0  0  0  0  0  0999 V3000
M  V30 BEGIN CTAB
M  V30 COUNTS 67 69 0 0 1
M  V30 BEGIN ATOM
M  V30 1 C 37.084501 24.312369 56.244391 0
M  V30 2 S 37.354263 35.082967 60.815219 0
M  V30 3 C 39.179770 27.864107 51.053505 0
M  V30 4 O 40.273082 26.540872 58.157466 0
M  V30 5 C 39.520574 27.445827 58.502668 0
M  V30 6 C 39.467397 29.812134 53.068317 0
M  V30 7 N 38.330431 27.638437 57.822284 0
M  V30 8 C 37.275571 29.929296 59.102990 0 CFG=2
M  V30 9 O 35.897271 30.322822 59.083029 0
M  V30 10 C 39.210785 31.715942 60.911361 0
M  V30 11 C 39.226265 32.776738 62.022573 0
M  V30 12 C 38.007826 25.194411 57.100438 0
M  V30 13 C 38.180452 31.124528 58.675800 0
M  V30 14 O 39.467390 38.021381 61.854062 0 CHG=-1
M  V30 15 C 38.652067 27.629923 52.337455 0
M  V30 16 C 37.961444 26.702545 56.717425 0 CFG=2
M  V30 17 C 38.698934 27.029441 55.392807 0
M  V30 18 C 39.850985 29.070819 50.775695 0
M  V30 19 C 35.488162 31.460594 59.843140 0
M  V30 20 N 38.398247 32.152080 59.740100 0 CFG=2 CHG=1
M  V30 21 C 39.733568 34.133266 61.497488 0 CFG=1
M  V30 22 C 38.887366 33.431780 59.176430 0
M  V30 23 C 38.164942 36.034381 62.128359 0 CFG=2
M  V30 24 C 38.321094 37.525374 61.782319 0
M  V30 25 C 38.230884 28.349375 54.738391 0
M  V30 26 C 38.967707 34.528381 60.247697 0 CFG=1
M  V30 27 C 37.303517 28.728965 58.088408 0
M  V30 28 O 37.282586 38.137937 61.453436 0
M  V30 29 C 39.498864 35.295060 62.477219 0
M  V30 30 S 40.048874 28.421921 59.873779 0 CHG=-1
M  V30 31 C 38.797709 28.601654 53.349525 0
M  V30 32 C 39.992343 30.045112 51.781549 0
M  V30 33 H 37.061484 23.293389 56.627943 0
M  V30 34 H 37.414719 24.266708 55.206996 0
M  V30 35 H 36.059445 24.681804 56.253458 0
M  V30 36 H 39.067993 27.117702 50.280561 0
M  V30 37 H 39.579465 30.560776 53.838888 0
M  V30 38 H 37.458072 29.595561 60.119348 0
M  V30 39 H 40.233568 31.498680 60.604505 0
M  V30 40 H 38.802033 30.804132 61.341402 0
M  V30 41 H 38.222406 32.871944 62.436831 0
M  V30 42 H 39.857311 32.439942 62.845678 0
M  V30 43 H 37.714440 25.079130 58.144486 0
M  V30 44 H 39.021244 24.799622 57.022587 0
M  V30 45 H 39.145471 30.780441 58.310745 0
M  V30 46 H 37.709097 31.595127 57.810820 0
M  V30 47 H 38.135004 26.706000 52.545638 0
M  V30 48 H 36.906411 26.821431 56.531264 0
M  V30 49 H 39.778083 27.051048 55.551503 0
M  V30 50 H 38.524262 26.210665 54.697985 0
M  V30 51 H 40.253726 29.250107 49.789723 0
M  V30 52 H 34.412496 31.621431 59.770501 0
M  V30 53 H 35.911654 32.384126 59.453521 0
M  V30 54 H 35.750777 31.354168 60.895792 0
M  V30 55 H 40.797199 34.044555 61.273152 0
M  V30 56 H 39.867354 33.282186 58.728903 0
M  V30 57 H 38.224838 33.760863 58.373832 0
M  V30 58 H 37.505632 36.021436 62.995120 0
M  V30 59 H 37.143735 28.359429 54.653494 0
M  V30 60 H 38.502942 29.186871 55.380631 0
M  V30 61 H 39.483889 35.399493 59.853580 0
M  V30 62 H 37.122777 29.198151 57.122765 0
M  V30 63 H 36.379461 28.179522 58.253448 0
M  V30 64 H 39.470887 34.914848 63.488286 0
M  V30 65 H 40.374092 35.943238 62.452379 0
M  V30 66 H 40.504888 30.972324 51.567265 0
M  V30 67 H 37.479722 32.369007 60.100605 0
M  V30 END ATOM
M  V30 BEGIN BOND
M  V30 1 2 5 4
M  V30 2 1 7 5
M  V30 3 1 9 8
M  V30 4 1 11 10
M  V30 5 1 12 1
M  V30 6 1 13 8
M  V30 7 1 15 3
M  V30 8 1 16 7
M  V30 9 1 16 12
M  V30 10 1 17 16
M  V30 11 2 18 3
M  V30 12 1 19 9
M  V30 13 1 20 10
M  V30 14 1 20 13
M  V30 15 1 21 11
M  V30 16 1 22 20
M  V30 17 1 23 2
M  V30 18 1 24 14
M  V30 19 1 24 23
M  V30 20 1 25 17
M  V30 21 1 26 2
M  V30 22 1 26 21
M  V30 23 1 26 22
M  V30 24 1 27 7
M  V30 25 1 27 8
M  V30 26 2 28 24
M  V30 27 1 29 21
M  V30 28 1 29 23
M  V30 29 1 30 5
M  V30 30 1 31 6
M  V30 31 2 31 15
M  V30 32 1 31 25
M  V30 33 2 32 6
M  V30 34 1 32 18
M  V30 35 1 33 1
M  V30 36 1 34 1
M  V30 37 1 35 1
M  V30 38 1 36 3
M  V30 39 1 37 6
M  V30 40 1 8 38 CFG=1
M  V30 41 1 39 10
M  V30 42 1 40 10
M  V30 43 1 41 11
M  V30 44 1 42 11
M  V30 45 1 43 12
M  V30 46 1 44 12
M  V30 47 1 45 13
M  V30 48 1 46 13
M  V30 49 1 47 15
M  V30 50 1 16 48 CFG=3
M  V30 51 1 49 17
M  V30 52 1 50 17
M  V30 53 1 51 18
M  V30 54 1 52 19
M  V30 55 1 53 19
M  V30 56 1 54 19
M  V30 57 1 21 55 CFG=3
M  V30 58 1 56 22
M  V30 59 1 57 22
M  V30 60 1 23 58 CFG=1
M  V30 61 1 59 25
M  V30 62 1 60 25
M  V30 63 1 26 61 CFG=3
M  V30 64 1 62 27
M  V30 65 1 63 27
M  V30 66 1 64 29
M  V30 67 1 65 29
M  V30 68 1 66 32
M  V30 69 1 20 67 CFG=1
M  V30 END BOND
M  V30 END CTAB
M  END
>  <i_epik_Tot_Q>  (1) 
-1

>  <i_epik_Tot_abs_Q>  (1) 
3

>  <i_i_glide_confnum>  (1) 
311

>  <i_i_glide_lignum>  (1) 
49

>  <i_i_glide_posenum>  (1) 
136

>  <i_i_glide_rotatable_bonds>  (1) 
12

>  <i_lp_mmshare_version>  (1) 
72125

>  <i_m_source_file_index>  (1) 
18

>  <i_f3d_flags>  (1) 
0

>  <num_sample>  (1) 
50

>  <b_lp_Chiralities_Consistent>  (1) 
1

>  <r_epik_Charging_Adjusted_Penalty>  (1) 
0.068943464179595071

>  <r_epik_Ionization_Penalty>  (1) 
0.034590213650767733

>  <r_epik_Ionization_Penalty_Charging>  (1) 
0.034589667735814351

>  <r_epik_Ionization_Penalty_Neutral>  (1) 
5.4591495337813188e-07

>  <r_epik_State_Penalty>  (1) 
0.034353796443780713

>  <r_glide_ring_energy>  (1) 
0

>  <r_i_docking_score>  (1) 
-4.4063103976125655

>  <r_i_glide_ecoul>  (1) 
1.1272380392425949

>  <r_i_glide_eff_state_penalty>  (1) 
0.034353796443780713

>  <r_i_glide_einternal>  (1) 
12.341897994152248

>  <r_i_glide_emodel>  (1) 
-36.098059683251478

>  <r_i_glide_emodel_strain>  (1) 
14.812699451375131

>  <r_i_glide_energy>  (1) 
-42.160946270311946

>  <r_i_glide_erotb>  (1) 
0.61675831554288163

>  <r_i_glide_esite>  (1) 
-0.019718767640159462

>  <r_i_glide_evdw>  (1) 
-43.288184309554538

>  <r_i_glide_gscore>  (1) 
-4.440664194056346

>  <r_i_glide_gscore_strain>  (1) 
2.7031748628437828

>  <r_i_glide_hbond>  (1) 
0

>  <r_i_glide_ligand_efficiency>  (1) 
-0.13769719992539267

>  <r_i_glide_ligand_efficiency_ln>  (1) 
-0.98669300951050298

>  <r_i_glide_ligand_efficiency_sa>  (1) 
-0.43716136002928768

>  <r_i_glide_lipo>  (1) 
-4.4143922995947298

>  <r_i_glide_metal>  (1) 
-0

>  <r_i_glide_rewards>  (1) 
-1.3311627956167849

>  <r_lp_Energy>  (1) 
36.015979000000002

>  <s_epik_cmdline>  (1) 
J2VwaWtfcHl0aG9uJywgJy1waHQnLCAnMS4wJywgJy1waCcsICc3LjQnLCAnLXRuJywgJzgnLCAnLW1hJywgJzUwMCcsICctaW1hZScsICc8aW5maWxlLm1hZT4nLCAnLW9tYWUnLCAnPG91dGZpbGUubWFlPic=

>  <s_epik_input>  (1) 
W2NIXTFbY0hdW2NIXVtjSF1bY0hdYzFbQ0gyXVtDSDJdW0NAQEhdKFtDSDJdW0NIM10pTihDKD1PKVtTSF0pW0NIMl1bQ0hdKE9bQ0gzXSlbQ0gyXU4oW0NIMl1bQ0gyXTIpW0NIMl1bQ0BIXShbQ0BIXTIzKVNbQ0BASF0oW0NIMl0zKUMoPU8pW09IXQ==

>  <s_glide_docking_method>  (1) 
confgen

>  <s_i_glide_gridfile>  (1) 
gpcr_5ht2c_6bqh_protein_autoprepared_prepared

>  <s_lp_Force_Field>  (1) 
S-OPLS

>  <s_lp_Variant>  (1) 
DiffSBDD_17_num_sample_50-2

>  <s_m_source_file>  (1) 
generated__ligand_DiffSBDD_2026-05-06_prepared.sdf

>  <GenAI_Model>  (1) 
DiffSBDD

>  <Protein>  (1) 
GPCR_5HT2C

$$$$
DiffSBDD_0_num_sample_50
     RDKit          3D

  0  0  0  0  0  0  0  0  0  0999 V3000
M  V30 BEGIN CTAB
M  V30 COUNTS 65 69 0 0 1
M  V30 BEGIN ATOM
M  V30 1 C 39.695702 29.874348 52.422844 0
M  V30 2 C 39.067540 30.345556 53.593909 0
M  V30 3 C 37.321398 30.122181 55.430982 0
M  V30 4 S 40.480795 34.868575 61.287320 0
M  V30 5 O 41.737032 32.264761 62.046651 0
M  V30 6 C 39.984767 29.485148 58.183213 0
M  V30 7 C 40.812061 32.447213 65.312712 0
M  V30 8 C 37.579482 28.408799 53.573005 0
M  V30 9 C 39.432147 29.530073 56.755643 0
M  V30 10 C 37.863250 36.695030 60.598143 0
M  V30 11 C 37.844231 34.643801 61.453203 0
M  V30 12 F 39.867137 28.221768 50.700083 0
M  V30 13 C 38.209730 27.940748 52.403068 0
M  V30 14 C 36.667698 34.878208 60.907577 0
M  V30 15 C 38.855248 35.846620 61.483416 0 CFG=1
M  V30 16 C 39.826076 28.909256 61.279886 0
M  V30 17 C 40.404900 30.420069 63.714364 0
M  V30 18 O 41.067418 28.853002 61.335154 0
M  V30 19 C 40.507215 32.242999 62.125756 0
M  V30 20 C 40.987695 30.085458 66.144861 0
M  V30 21 C 39.124986 30.238552 61.553711 0 CFG=2
M  V30 22 C 37.864800 29.505694 56.740072 0 CFG=1
M  V30 23 C 40.282856 31.012876 65.142735 0
M  V30 24 N 37.997304 29.901451 59.213662 0 CFG=2 CHG=1
M  V30 25 C 38.320585 33.408686 61.853372 0
M  V30 26 C 38.544555 30.830707 60.210257 0 CFG=2
M  V30 27 C 39.628890 33.385420 61.827673 0
M  V30 28 N 39.821925 31.143381 62.538837 0
M  V30 29 C 39.234038 30.596612 58.899678 0 CFG=1
M  V30 30 C 38.005846 29.612477 54.170829 0
M  V30 31 O 39.068832 28.021433 60.849483 0 CHG=-1
M  V30 32 C 37.182738 30.165397 58.000856 0
M  V30 33 C 39.265583 28.672923 51.827307 0
M  V30 34 C 36.679286 36.139242 60.376620 0
M  V30 35 H 40.505800 30.435510 51.981318 0
M  V30 36 H 39.397860 31.269510 54.047854 0
M  V30 37 H 36.248770 29.956711 55.354648 0
M  V30 38 H 37.441383 31.206730 55.461845 0
M  V30 39 H 41.062671 29.621423 58.246034 0
M  V30 40 H 39.806216 28.488351 58.585304 0
M  V30 41 H 41.865476 32.508143 65.035542 0
M  V30 42 H 40.266866 33.166250 64.705182 0
M  V30 43 H 40.724415 32.777827 66.347979 0
M  V30 44 H 36.767963 27.845058 54.009651 0
M  V30 45 H 39.792992 30.447177 56.287154 0
M  V30 46 H 39.838702 28.707764 56.165153 0
M  V30 47 H 38.134757 37.681214 60.255862 0
M  V30 48 H 37.879844 27.019907 51.945902 0
M  V30 49 H 35.884457 34.147755 60.762956 0
M  V30 50 H 38.856644 36.281451 62.483026 0
M  V30 51 H 39.942423 29.440008 63.796328 0
M  V30 52 H 41.460385 30.214538 63.519074 0
M  V30 53 H 42.057467 30.022196 65.945862 0
M  V30 54 H 40.856298 30.437530 67.168538 0
M  V30 55 H 40.578327 29.074916 66.097841 0
M  V30 56 H 38.256524 29.960382 62.138641 0
M  V30 57 H 37.593778 28.449591 56.756626 0
M  V30 58 H 39.244224 30.957056 65.452593 0
M  V30 59 H 37.693150 32.568619 62.107305 0
M  V30 60 H 37.770058 31.583774 60.272178 0
M  V30 61 H 39.137340 31.502324 58.297149 0
M  V30 62 H 37.067405 31.238688 57.862058 0
M  V30 63 H 36.177116 29.769114 58.141626 0
M  V30 64 H 35.874044 36.587293 59.812763 0
M  V30 65 H 38.201403 28.930277 59.440273 0
M  V30 END ATOM
M  V30 BEGIN BOND
M  V30 1 2 2 1
M  V30 2 1 9 6
M  V30 3 1 13 8
M  V30 4 2 14 11
M  V30 5 1 15 4
M  V30 6 1 15 10
M  V30 7 1 15 11
M  V30 8 2 18 16
M  V30 9 2 19 5
M  V30 10 1 21 16
M  V30 11 1 22 3
M  V30 12 1 22 9
M  V30 13 1 23 7
M  V30 14 1 23 17
M  V30 15 1 23 20
M  V30 16 1 25 11
M  V30 17 1 26 21
M  V30 18 1 26 24
M  V30 19 1 27 4
M  V30 20 1 27 19
M  V30 21 2 27 25
M  V30 22 1 28 17
M  V30 23 1 28 19
M  V30 24 1 28 21
M  V30 25 1 29 6
M  V30 26 1 29 24
M  V30 27 1 29 26
M  V30 28 1 30 2
M  V30 29 1 30 3
M  V30 30 2 30 8
M  V30 31 1 31 16
M  V30 32 1 32 22
M  V30 33 1 32 24
M  V30 34 1 33 1
M  V30 35 1 33 12
M  V30 36 2 33 13
M  V30 37 2 34 10
M  V30 38 1 34 14
M  V30 39 1 35 1
M  V30 40 1 36 2
M  V30 41 1 37 3
M  V30 42 1 38 3
M  V30 43 1 39 6
M  V30 44 1 40 6
M  V30 45 1 41 7
M  V30 46 1 42 7
M  V30 47 1 43 7
M  V30 48 1 44 8
M  V30 49 1 45 9
M  V30 50 1 46 9
M  V30 51 1 47 10
M  V30 52 1 48 13
M  V30 53 1 49 14
M  V30 54 1 15 50 CFG=1
M  V30 55 1 51 17
M  V30 56 1 52 17
M  V30 57 1 53 20
M  V30 58 1 54 20
M  V30 59 1 55 20
M  V30 60 1 21 56 CFG=1
M  V30 61 1 22 57 CFG=3
M  V30 62 1 58 23
M  V30 63 1 59 25
M  V30 64 1 26 60 CFG=1
M  V30 65 1 29 61 CFG=3
M  V30 66 1 62 32
M  V30 67 1 63 32
M  V30 68 1 64 34
M  V30 69 1 24 65 CFG=1
M  V30 END BOND
M  V30 END CTAB
M  END
>  <i_epik_Tot_Q>  (1) 
0

>  <i_epik_Tot_abs_Q>  (1) 
2

>  <i_i_glide_confnum>  (1) 
11

>  <i_i_glide_lignum>  (1) 
2

>  <i_i_glide_posenum>  (1) 
126

>  <i_i_glide_rotatable_bonds>  (1) 
9

>  <i_lp_mmshare_version>  (1) 
72125

>  <i_m_source_file_index>  (1) 
1

>  <i_f3d_flags>  (1) 
0

>  <num_sample>  (1) 
50

>  <b_lp_Chiralities_Consistent>  (1) 
1

>  <r_epik_Charging_Adjusted_Penalty>  (1) 
0.0020295482604282666

>  <r_epik_Ionization_Penalty>  (1) 
0.0020295482639142975

>  <r_epik_Ionization_Penalty_Charging>  (1) 
0.0020295482604282666

>  <r_epik_Ionization_Penalty_Neutral>  (1) 
3.4860309872641501e-12

>  <r_epik_State_Penalty>  (1) 
-0

>  <r_glide_ring_energy>  (1) 
0

>  <r_i_docking_score>  (1) 
-4.402417270460357

>  <r_i_glide_ecoul>  (1) 
-4.6425173592730662

>  <r_i_glide_eff_state_penalty>  (1) 
-0

>  <r_i_glide_einternal>  (1) 
4.5202495320880338

>  <r_i_glide_emodel>  (1) 
-52.558240974892328

>  <r_i_glide_emodel_strain>  (1) 
4.539167640616256

>  <r_i_glide_energy>  (1) 
-43.348624700369761

>  <r_i_glide_erotb>  (1) 
0.52278502944784222

>  <r_i_glide_esite>  (1) 
-0.0015522049266410911

>  <r_i_glide_evdw>  (1) 
-38.706107341096697

>  <r_i_glide_gscore>  (1) 
-4.402417270460357

>  <r_i_glide_gscore_strain>  (1) 
0.134791910154064

>  <r_i_glide_hbond>  (1) 
-0.14636690012319961

>  <r_i_glide_ligand_efficiency>  (1) 
-0.12948286089589287

>  <r_i_glide_ligand_efficiency_ln>  (1) 
-0.97261745866646032

>  <r_i_glide_ligand_efficiency_sa>  (1) 
-0.41947420422150533

>  <r_i_glide_lipo>  (1) 
-3.8539373539929134

>  <r_i_glide_metal>  (1) 
-0

>  <r_i_glide_rewards>  (1) 
1.5735452199262869

>  <r_lp_Energy>  (1) 
65.474028000000004

>  <r_lp_tautomer_probability>  (1) 
1

>  <s_epik_cmdline>  (1) 
J2VwaWtfcHl0aG9uJywgJy1waHQnLCAnMS4wJywgJy1waCcsICc3LjQnLCAnLXRuJywgJzgnLCAnLW1hJywgJzUwMCcsICctaW1hZScsICc8aW5maWxlLm1hZT4nLCAnLW9tYWUnLCAnPG91dGZpbGUubWFlPic=

>  <s_epik_input>  (1) 
W2NIXTFbY0hdYyhGKVtjSF1bY0hdYzFbQ0gyXVtDQEhdKFtDSDJdMilbQ0gyXVtDSDJdW0NIXShOMjMpW0NAQEhdM1tDQEBIXShDKD1PKVtPSF0pTihbQ0gyXVtDSF0oW0NIM10pW0NIM10pQyg9TylDKD1bQ0hdNClTW0NASF0oQzQ9NSlbQ0hdPVtDSF1bQ0hdNQ==

>  <s_glide_docking_method>  (1) 
confgen

>  <s_i_glide_gridfile>  (1) 
gpcr_5ht2c_6bqh_protein_autoprepared_prepared

>  <s_lp_Force_Field>  (1) 
S-OPLS

>  <s_lp_Variant>  (1) 
DiffSBDD_0_num_sample_50-2

>  <s_m_source_file>  (1) 
generated__ligand_DiffSBDD_2026-05-06_prepared.sdf

>  <GenAI_Model>  (1) 
DiffSBDD

>  <Protein>  (1) 
GPCR_5HT2C

$$$$
DiffSBDD_0_num_sample_50
     RDKit          3D

  0  0  0  0  0  0  0  0  0  0999 V3000
M  V30 BEGIN CTAB
M  V30 COUNTS 65 69 0 0 1
M  V30 BEGIN ATOM
M  V30 1 C 39.867343 30.010140 52.205763 0
M  V30 2 C 39.161808 30.368089 53.370329 0
M  V30 3 C 37.347746 29.938228 55.092954 0
M  V30 4 S 38.068479 32.963394 61.853182 0
M  V30 5 O 41.867436 31.832642 61.862599 0
M  V30 6 C 40.107082 29.223817 57.754546 0
M  V30 7 C 40.634422 32.047507 65.045316 0
M  V30 8 C 37.783433 28.362843 53.152334 0
M  V30 9 C 39.523912 29.319377 56.347197 0
M  V30 10 C 37.327031 36.108475 61.589615 0
M  V30 11 C 39.361588 35.236089 61.447777 0
M  V30 12 F 40.209695 28.486646 50.395150 0
M  V30 13 C 38.493544 28.006562 51.988880 0
M  V30 14 C 39.476760 36.504153 61.771891 0
M  V30 15 C 37.907506 34.719311 61.137982 0 CFG=1
M  V30 16 C 39.857481 28.606765 60.850219 0
M  V30 17 C 40.359097 30.025899 63.391486 0
M  V30 18 O 39.102042 27.814571 60.253694 0
M  V30 19 C 40.644706 31.879689 61.897563 0
M  V30 20 C 40.724974 29.661282 65.864903 0
M  V30 21 C 39.225416 29.972456 61.133699 0 CFG=2
M  V30 22 C 37.948636 29.362919 56.385172 0 CFG=1
M  V30 23 C 40.131463 30.607267 64.808511 0
M  V30 24 N 38.184701 29.778370 58.803284 0 CFG=2 CHG=1
M  V30 25 C 40.362471 34.294716 61.518354 0
M  V30 26 C 38.780622 30.661349 59.788806 0 CFG=2
M  V30 27 C 39.861864 33.103673 61.689647 0
M  V30 28 N 39.887647 30.798352 62.198782 0
M  V30 29 C 39.467409 30.387264 58.475585 0 CFG=1
M  V30 30 C 38.114938 29.545632 53.844371 0
M  V30 31 O 41.066691 28.426228 61.082135 0 CHG=-1
M  V30 32 C 37.326047 30.069287 57.643906 0
M  V30 33 C 39.532602 28.829660 51.515213 0
M  V30 34 C 38.226716 37.041302 61.860144 0
M  V30 35 H 40.662308 30.643591 51.841168 0
M  V30 36 H 39.418974 31.276786 53.896227 0
M  V30 37 H 36.299268 29.653180 55.007725 0
M  V30 38 H 37.345987 31.028091 55.146809 0
M  V30 39 H 41.178327 29.290146 57.854930 0
M  V30 40 H 39.866499 28.232025 58.124866 0
M  V30 41 H 41.695464 32.140066 64.808426 0
M  V30 42 H 40.093579 32.777595 64.445692 0
M  V30 43 H 40.501914 32.345589 66.086339 0
M  V30 44 H 36.984619 27.729870 53.512385 0
M  V30 45 H 39.923984 30.225145 55.890529 0
M  V30 46 H 39.877225 28.483022 55.742621 0
M  V30 47 H 36.269859 36.278368 61.617558 0
M  V30 48 H 38.239149 27.101148 51.457172 0
M  V30 49 H 40.391441 36.995945 62.067799 0
M  V30 50 H 37.775999 34.632591 60.058771 0
M  V30 51 H 39.882021 29.049341 63.402620 0
M  V30 52 H 41.423465 29.802803 63.292472 0
M  V30 53 H 41.810993 29.611814 65.789328 0
M  V30 54 H 40.474911 29.984394 66.875404 0
M  V30 55 H 40.334290 28.648857 65.745006 0
M  V30 56 H 38.293572 29.737811 61.636519 0
M  V30 57 H 37.652367 28.316090 56.443660 0
M  V30 58 H 39.067217 30.556841 64.993034 0
M  V30 59 H 41.422192 34.519384 61.494138 0
M  V30 60 H 38.060074 31.463246 59.831164 0
M  V30 61 H 39.432364 31.286395 57.853448 0
M  V30 62 H 37.194992 31.145089 57.521601 0
M  V30 63 H 36.333107 29.661451 57.841639 0
M  V30 64 H 38.003379 38.039818 62.163648 0
M  V30 65 H 38.324475 28.797449 59.053932 0
M  V30 END ATOM
M  V30 BEGIN BOND
M  V30 1 2 2 1
M  V30 2 1 9 6
M  V30 3 1 13 8
M  V30 4 2 14 11
M  V30 5 1 15 4
M  V30 6 1 15 10
M  V30 7 1 15 11
M  V30 8 2 18 16
M  V30 9 2 19 5
M  V30 10 1 21 16
M  V30 11 1 22 3
M  V30 12 1 22 9
M  V30 13 1 23 7
M  V30 14 1 23 17
M  V30 15 1 23 20
M  V30 16 1 25 11
M  V30 17 1 26 21
M  V30 18 1 26 24
M  V30 19 1 27 4
M  V30 20 1 27 19
M  V30 21 2 27 25
M  V30 22 1 28 17
M  V30 23 1 28 19
M  V30 24 1 28 21
M  V30 25 1 29 6
M  V30 26 1 29 24
M  V30 27 1 29 26
M  V30 28 1 30 2
M  V30 29 1 30 3
M  V30 30 2 30 8
M  V30 31 1 31 16
M  V30 32 1 32 22
M  V30 33 1 32 24
M  V30 34 1 33 1
M  V30 35 1 33 12
M  V30 36 2 33 13
M  V30 37 2 34 10
M  V30 38 1 34 14
M  V30 39 1 35 1
M  V30 40 1 36 2
M  V30 41 1 37 3
M  V30 42 1 38 3
M  V30 43 1 39 6
M  V30 44 1 40 6
M  V30 45 1 41 7
M  V30 46 1 42 7
M  V30 47 1 43 7
M  V30 48 1 44 8
M  V30 49 1 45 9
M  V30 50 1 46 9
M  V30 51 1 47 10
M  V30 52 1 48 13
M  V30 53 1 49 14
M  V30 54 1 15 50 CFG=3
M  V30 55 1 51 17
M  V30 56 1 52 17
M  V30 57 1 53 20
M  V30 58 1 54 20
M  V30 59 1 55 20
M  V30 60 1 21 56 CFG=1
M  V30 61 1 22 57 CFG=1
M  V30 62 1 58 23
M  V30 63 1 59 25
M  V30 64 1 26 60 CFG=1
M  V30 65 1 29 61 CFG=3
M  V30 66 1 62 32
M  V30 67 1 63 32
M  V30 68 1 64 34
M  V30 69 1 24 65 CFG=1
M  V30 END BOND
M  V30 END CTAB
M  END
>  <i_epik_Tot_Q>  (1) 
0

>  <i_epik_Tot_abs_Q>  (1) 
2

>  <i_i_glide_confnum>  (1) 
11

>  <i_i_glide_lignum>  (1) 
2

>  <i_i_glide_posenum>  (1) 
398

>  <i_i_glide_rotatable_bonds>  (1) 
9

>  <i_lp_mmshare_version>  (1) 
72125

>  <i_m_source_file_index>  (1) 
1

>  <i_f3d_flags>  (1) 
0

>  <num_sample>  (1) 
50

>  <b_lp_Chiralities_Consistent>  (1) 
1

>  <r_epik_Charging_Adjusted_Penalty>  (1) 
0.0020295482604282666

>  <r_epik_Ionization_Penalty>  (1) 
0.0020295482639142975

>  <r_epik_Ionization_Penalty_Charging>  (1) 
0.0020295482604282666

>  <r_epik_Ionization_Penalty_Neutral>  (1) 
3.4860309872641501e-12

>  <r_epik_State_Penalty>  (1) 
-0

>  <r_glide_ring_energy>  (1) 
0

>  <r_i_docking_score>  (1) 
-4.2744099980246926

>  <r_i_glide_ecoul>  (1) 
-4.4880576250340933

>  <r_i_glide_eff_state_penalty>  (1) 
-0

>  <r_i_glide_einternal>  (1) 
8.4830848361380724

>  <r_i_glide_emodel>  (1) 
-48.023801625406001

>  <r_i_glide_emodel_strain>  (1) 
3.393969845602868

>  <r_i_glide_energy>  (1) 
-40.115889647250718

>  <r_i_glide_erotb>  (1) 
0.52278502944784222

>  <r_i_glide_esite>  (1) 
-0.0063986764994471345

>  <r_i_glide_evdw>  (1) 
-35.627832022216623

>  <r_i_glide_gscore>  (1) 
-4.2744099980246926

>  <r_i_glide_gscore_strain>  (1) 
0

>  <r_i_glide_hbond>  (1) 
-0.14239649032653501

>  <r_i_glide_ligand_efficiency>  (1) 
-0.12571794111837331

>  <r_i_glide_ligand_efficiency_ln>  (1) 
-0.94433706170304799

>  <r_i_glide_ligand_efficiency_sa>  (1) 
-0.40727732567939001

>  <r_i_glide_lipo>  (1) 
-4.1392781856638905

>  <r_i_glide_metal>  (1) 
-0

>  <r_i_glide_rewards>  (1) 
1.9454785698832837

>  <r_lp_Energy>  (1) 
65.474028000000004

>  <r_lp_tautomer_probability>  (1) 
1

>  <s_epik_cmdline>  (1) 
J2VwaWtfcHl0aG9uJywgJy1waHQnLCAnMS4wJywgJy1waCcsICc3LjQnLCAnLXRuJywgJzgnLCAnLW1hJywgJzUwMCcsICctaW1hZScsICc8aW5maWxlLm1hZT4nLCAnLW9tYWUnLCAnPG91dGZpbGUubWFlPic=

>  <s_epik_input>  (1) 
W2NIXTFbY0hdYyhGKVtjSF1bY0hdYzFbQ0gyXVtDQEhdKFtDSDJdMilbQ0gyXVtDSDJdW0NIXShOMjMpW0NAQEhdM1tDQEBIXShDKD1PKVtPSF0pTihbQ0gyXVtDSF0oW0NIM10pW0NIM10pQyg9TylDKD1bQ0hdNClTW0NASF0oQzQ9NSlbQ0hdPVtDSF1bQ0hdNQ==

>  <s_glide_docking_method>  (1) 
confgen

>  <s_i_glide_gridfile>  (1) 
gpcr_5ht2c_6bqh_protein_autoprepared_prepared

>  <s_lp_Force_Field>  (1) 
S-OPLS

>  <s_lp_Variant>  (1) 
DiffSBDD_0_num_sample_50-2

>  <s_m_source_file>  (1) 
generated__ligand_DiffSBDD_2026-05-06_prepared.sdf

>  <GenAI_Model>  (1) 
DiffSBDD

>  <Protein>  (1) 
GPCR_5HT2C

$$$$
DiffSBDD_0_num_sample_50
     RDKit          3D

  0  0  0  0  0  0  0  0  0  0999 V3000
M  V30 BEGIN CTAB
M  V30 COUNTS 65 69 0 0 1
M  V30 BEGIN ATOM
M  V30 1 C 39.994163 30.049124 51.588608 0
M  V30 2 C 39.467724 29.888221 52.880849 0
M  V30 3 C 38.136903 28.536605 54.595588 0
M  V30 4 S 39.801422 34.508358 60.654166 0
M  V30 5 O 41.334721 32.068260 61.450520 0
M  V30 6 C 38.277862 31.889482 56.725510 0
M  V30 7 C 40.673079 31.740388 64.432051 0
M  V30 8 C 38.556463 27.717752 52.236442 0
M  V30 9 C 37.852873 30.934893 55.564376 0
M  V30 10 C 37.015415 35.973280 59.853784 0
M  V30 11 C 37.204589 33.971087 60.792836 0
M  V30 12 F 40.285038 29.221672 49.375799 0
M  V30 13 C 39.090181 27.881698 50.947932 0
M  V30 14 C 36.027140 34.043108 60.207476 0
M  V30 15 C 38.067829 35.286608 60.803548 0 CFG=1
M  V30 16 C 40.024498 28.809512 59.849699 0
M  V30 17 C 40.161730 29.833892 62.641068 0
M  V30 18 O 41.072711 29.221208 59.326714 0
M  V30 19 C 40.117033 31.883097 61.396154 0
M  V30 20 C 40.696320 29.326587 65.061220 0
M  V30 21 C 39.051351 29.871820 60.361306 0 CFG=2
M  V30 22 C 38.549765 29.533746 55.691125 0 CFG=1
M  V30 23 C 40.062115 30.359270 64.112840 0
M  V30 24 N 37.827544 30.004764 58.012601 0 CFG=1 CHG=1
M  V30 25 C 37.817234 32.809681 61.205514 0
M  V30 26 C 38.285699 30.663460 59.227993 0 CFG=2
M  V30 27 C 39.120333 32.935925 61.171849 0
M  V30 28 N 39.560712 30.655538 61.556352 0
M  V30 29 C 38.829044 31.079541 57.886677 0 CFG=2
M  V30 30 C 38.735840 28.721467 53.207275 0
M  V30 31 O 39.638989 27.622886 59.851312 0 CHG=-1
M  V30 32 C 38.327613 28.927723 57.118824 0
M  V30 33 C 39.798349 29.052745 50.621713 0
M  V30 34 C 35.911982 35.270939 59.623542 0
M  V30 35 H 40.547415 30.944022 51.338204 0
M  V30 36 H 39.628446 30.658221 53.613325 0
M  V30 37 H 38.409234 27.530250 54.915373 0
M  V30 38 H 37.052348 28.535247 54.494269 0
M  V30 39 H 37.467526 32.536838 57.057703 0
M  V30 40 H 39.074624 32.550813 56.379019 0
M  V30 41 H 41.707811 31.806693 64.092466 0
M  V30 42 H 40.107180 32.557600 63.985871 0
M  V30 43 H 40.668097 31.933164 65.505738 0
M  V30 44 H 38.005665 26.822188 52.480502 0
M  V30 45 H 36.775971 30.771585 55.585415 0
M  V30 46 H 38.010967 31.429537 54.609837 0
M  V30 47 H 37.182924 36.969597 59.471970 0
M  V30 48 H 38.949748 27.111141 50.205953 0
M  V30 49 H 35.347157 33.215182 60.055982 0
M  V30 50 H 37.989307 35.748672 61.787253 0
M  V30 51 H 39.687907 28.851744 62.621903 0
M  V30 52 H 41.210941 29.644234 62.403717 0
M  V30 53 H 41.769578 29.246783 64.886839 0
M  V30 54 H 40.549933 29.601421 66.105806 0
M  V30 55 H 40.267404 28.333866 64.928384 0
M  V30 56 H 38.267415 29.269101 60.800264 0
M  V30 57 H 39.629288 29.677196 55.608733 0
M  V30 58 H 39.007089 30.421551 64.366016 0
M  V30 59 H 37.293135 31.894960 61.434780 0
M  V30 60 H 37.337846 31.082624 59.534643 0
M  V30 61 H 39.823619 30.692448 57.668396 0
M  V30 62 H 37.555730 28.158331 57.101337 0
M  V30 63 H 39.239145 28.431803 57.436492 0
M  V30 64 H 35.082629 35.596068 59.015843 0
M  V30 65 H 36.936901 30.379531 57.702678 0
M  V30 END ATOM
M  V30 BEGIN BOND
M  V30 1 2 2 1
M  V30 2 1 9 6
M  V30 3 1 13 8
M  V30 4 2 14 11
M  V30 5 1 15 4
M  V30 6 1 15 10
M  V30 7 1 15 11
M  V30 8 2 18 16
M  V30 9 2 19 5
M  V30 10 1 21 16
M  V30 11 1 22 3
M  V30 12 1 22 9
M  V30 13 1 23 7
M  V30 14 1 23 17
M  V30 15 1 23 20
M  V30 16 1 25 11
M  V30 17 1 26 21
M  V30 18 1 26 24
M  V30 19 1 27 4
M  V30 20 1 27 19
M  V30 21 2 27 25
M  V30 22 1 28 17
M  V30 23 1 28 19
M  V30 24 1 28 21
M  V30 25 1 29 6
M  V30 26 1 29 24
M  V30 27 1 29 26
M  V30 28 1 30 2
M  V30 29 1 30 3
M  V30 30 2 30 8
M  V30 31 1 31 16
M  V30 32 1 32 22
M  V30 33 1 32 24
M  V30 34 1 33 1
M  V30 35 1 33 12
M  V30 36 2 33 13
M  V30 37 2 34 10
M  V30 38 1 34 14
M  V30 39 1 35 1
M  V30 40 1 36 2
M  V30 41 1 37 3
M  V30 42 1 38 3
M  V30 43 1 39 6
M  V30 44 1 40 6
M  V30 45 1 41 7
M  V30 46 1 42 7
M  V30 47 1 43 7
M  V30 48 1 44 8
M  V30 49 1 45 9
M  V30 50 1 46 9
M  V30 51 1 47 10
M  V30 52 1 48 13
M  V30 53 1 49 14
M  V30 54 1 15 50 CFG=1
M  V30 55 1 51 17
M  V30 56 1 52 17
M  V30 57 1 53 20
M  V30 58 1 54 20
M  V30 59 1 55 20
M  V30 60 1 21 56 CFG=1
M  V30 61 1 22 57 CFG=3
M  V30 62 1 58 23
M  V30 63 1 59 25
M  V30 64 1 26 60 CFG=1
M  V30 65 1 29 61 CFG=1
M  V30 66 1 62 32
M  V30 67 1 63 32
M  V30 68 1 64 34
M  V30 69 1 24 65 CFG=3
M  V30 END BOND
M  V30 END CTAB
M  END
>  <i_epik_Tot_Q>  (1) 
0

>  <i_epik_Tot_abs_Q>  (1) 
2

>  <i_i_glide_confnum>  (1) 
173

>  <i_i_glide_lignum>  (1) 
3

>  <i_i_glide_posenum>  (1) 
76

>  <i_i_glide_rotatable_bonds>  (1) 
9

>  <i_lp_mmshare_version>  (1) 
72125

>  <i_m_source_file_index>  (1) 
1

>  <i_f3d_flags>  (1) 
0

>  <num_sample>  (1) 
50

>  <b_lp_Chiralities_Consistent>  (1) 
1

>  <r_epik_Charging_Adjusted_Penalty>  (1) 
0.0020295482604282666

>  <r_epik_Ionization_Penalty>  (1) 
0.0020295482639142975

>  <r_epik_Ionization_Penalty_Charging>  (1) 
0.0020295482604282666

>  <r_epik_Ionization_Penalty_Neutral>  (1) 
3.4860309872641501e-12

>  <r_epik_State_Penalty>  (1) 
-0

>  <r_glide_ring_energy>  (1) 
1.5402731440392987

>  <r_i_docking_score>  (1) 
-4.2679267665261138

>  <r_i_glide_ecoul>  (1) 
-4.7486227219087658

>  <r_i_glide_eff_state_penalty>  (1) 
-0

>  <r_i_glide_einternal>  (1) 
8.0926930785673008

>  <r_i_glide_emodel>  (1) 
-59.464232753121678

>  <r_i_glide_emodel_strain>  (1) 
0.64656254523225698

>  <r_i_glide_energy>  (1) 
-47.874899338079551

>  <r_i_glide_erotb>  (1) 
0.52278502944784222

>  <r_i_glide_esite>  (1) 
-0.055002871555829093

>  <r_i_glide_evdw>  (1) 
-43.126276616170784

>  <r_i_glide_gscore>  (1) 
-4.2679267665261138

>  <r_i_glide_gscore_strain>  (1) 
0

>  <r_i_glide_hbond>  (1) 
-0.067437203692735148

>  <r_i_glide_ligand_efficiency>  (1) 
-0.12552725783900334

>  <r_i_glide_ligand_efficiency_ln>  (1) 
-0.94290473401652797

>  <r_i_glide_ligand_efficiency_sa>  (1) 
-0.40665958587723677

>  <r_i_glide_lipo>  (1) 
-3.5140184221574433

>  <r_i_glide_metal>  (1) 
-0

>  <r_i_glide_rewards>  (1) 
1.714353940526907

>  <r_lp_Energy>  (1) 
73.777939000000003

>  <r_lp_tautomer_probability>  (1) 
1

>  <s_epik_cmdline>  (1) 
J2VwaWtfcHl0aG9uJywgJy1waHQnLCAnMS4wJywgJy1waCcsICc3LjQnLCAnLXRuJywgJzgnLCAnLW1hJywgJzUwMCcsICctaW1hZScsICc8aW5maWxlLm1hZT4nLCAnLW9tYWUnLCAnPG91dGZpbGUubWFlPic=

>  <s_epik_input>  (1) 
W2NIXTFbY0hdYyhGKVtjSF1bY0hdYzFbQ0gyXVtDQEhdKFtDSDJdMilbQ0gyXVtDSDJdW0NIXShOMjMpW0NAQEhdM1tDQEBIXShDKD1PKVtPSF0pTihbQ0gyXVtDSF0oW0NIM10pW0NIM10pQyg9TylDKD1bQ0hdNClTW0NASF0oQzQ9NSlbQ0hdPVtDSF1bQ0hdNQ==

>  <s_glide_docking_method>  (1) 
confgen

>  <s_i_glide_gridfile>  (1) 
gpcr_5ht2c_6bqh_protein_autoprepared_prepared

>  <s_lp_Force_Field>  (1) 
S-OPLS

>  <s_lp_Variant>  (1) 
DiffSBDD_0_num_sample_50-3

>  <s_m_source_file>  (1) 
generated__ligand_DiffSBDD_2026-05-06_prepared.sdf

>  <GenAI_Model>  (1) 
DiffSBDD

>  <Protein>  (1) 
GPCR_5HT2C

$$$$
DiffSBDD_7_num_sample_50
     RDKit          3D

  0  0  0  0  0  0  0  0  0  0999 V3000
M  V30 BEGIN CTAB
M  V30 COUNTS 93 96 0 0 1
M  V30 BEGIN ATOM
M  V30 1 C 38.384792 25.645729 55.115694 0 CFG=1
M  V30 2 O 36.388254 31.368731 61.453520 0
M  V30 3 C 39.466613 29.055629 54.008192 0 CFG=1
M  V30 4 C 39.467687 33.390714 58.972779 0
M  V30 5 O 39.032530 24.422089 57.056492 0 CHG=-1
M  V30 6 N 38.323189 36.757204 62.074298 0
M  V30 7 S 40.923580 32.072844 62.593784 0
M  V30 8 N 43.045138 31.085713 65.758705 0
M  V30 9 N 38.175541 32.702800 58.752127 0 CFG=2 CHG=1
M  V30 10 S 41.784234 33.327910 65.333921 0
M  V30 11 C 39.612868 36.899285 62.418739 0
M  V30 12 C 40.392908 28.554084 51.539175 0
M  V30 13 C 35.067278 31.636418 61.098063 0
M  V30 14 C 37.266368 32.340824 60.955986 0 CFG=1
M  V30 15 C 41.206291 31.854980 64.421602 0 CFG=2
M  V30 16 N 40.739125 36.821334 62.653733 0
M  V30 17 O 39.774170 34.333010 61.178855 0
M  V30 18 C 39.979713 29.989042 55.025925 0
M  V30 19 O 39.720616 29.615246 66.252576 0
M  V30 20 C 37.525290 28.416941 52.283607 0
M  V30 21 C 38.134654 32.804773 62.134215 0 CFG=2
M  V30 22 C 40.880453 28.837460 66.044198 0 CFG=1
M  V30 23 O 36.857359 24.578936 56.609162 0
M  V30 24 C 42.221584 30.693698 64.636947 0 CFG=2
M  V30 25 O 43.626944 32.830792 67.171064 0
M  V30 26 C 38.699921 34.252650 62.075292 0 CFG=2
M  V30 27 C 38.759825 27.090036 55.406682 0
M  V30 28 C 38.063060 24.807085 56.367246 0
M  V30 29 C 38.820601 29.133025 56.987012 0
M  V30 30 C 38.860717 30.272625 55.986621 0 CFG=1
M  V30 31 C 39.139758 31.586973 56.699478 0
M  V30 32 C 37.950695 31.669583 59.771370 0
M  V30 33 C 38.446002 27.728893 56.572878 0
M  V30 34 C 41.621504 29.265596 64.753239 0
M  V30 35 C 37.239512 25.656421 54.118421 0
M  V30 36 C 38.362788 29.387849 53.052586 0 CFG=2
M  V30 37 C 39.429938 34.606016 59.853450 0
M  V30 38 C 37.748840 35.467216 61.854003 0
M  V30 39 C 37.920144 32.201049 57.378146 0
M  V30 40 O 41.467238 30.854407 61.853266 0
M  V30 41 C 39.144848 31.716021 62.563360 0
M  V30 42 C 41.730929 28.780752 67.323271 0
M  V30 43 C 39.789248 29.480531 52.575585 0 CFG=1
M  V30 44 C 42.976579 32.362048 66.242475 0
M  V30 45 O 38.742039 30.598286 62.862996 0
M  V30 46 O 36.586303 35.349932 61.513018 0
M  V30 47 O 39.467473 27.672682 54.361305 0
M  V30 48 H 39.244883 25.162343 54.651353 0
M  V30 49 H 39.890215 33.621313 58.006571 0
M  V30 50 H 40.198072 32.821633 59.512427 0
M  V30 51 H 37.769696 37.595127 61.956203 0
M  V30 52 H 43.687572 30.441684 66.193586 0
M  V30 53 H 40.254947 27.516060 51.825943 0
M  V30 54 H 39.929114 28.715423 50.564540 0
M  V30 55 H 41.461333 28.753862 51.451410 0
M  V30 56 H 34.469769 30.821615 61.480201 0
M  V30 57 H 34.702794 32.557010 61.561566 0
M  V30 58 H 34.924417 31.690574 60.016799 0
M  V30 59 H 36.688681 33.181285 60.573837 0
M  V30 60 H 40.258351 31.612338 64.890497 0
M  V30 61 H 40.309562 30.906893 54.541972 0
M  V30 62 H 40.862077 29.549252 55.480840 0
M  V30 63 H 39.071584 29.337131 65.612297 0
M  V30 64 H 38.049719 27.480714 52.141217 0
M  V30 65 H 36.534990 28.265974 52.714427 0
M  V30 66 H 37.467534 28.820645 51.294932 0
M  V30 67 H 37.426452 32.820188 62.948975 0
M  V30 68 H 40.521657 27.822509 65.872611 0
M  V30 69 H 42.919426 30.685181 63.799757 0
M  V30 70 H 39.153449 34.421500 63.052486 0
M  V30 71 H 39.765125 29.054458 57.527959 0
M  V30 72 H 38.080008 29.380357 57.744312 0
M  V30 73 H 37.898602 30.365465 55.481621 0
M  V30 74 H 39.597399 32.329609 56.044563 0
M  V30 75 H 39.867202 31.325757 57.442318 0
M  V30 76 H 37.262052 30.908260 59.397779 0
M  V30 77 H 38.858397 31.109540 60.006297 0
M  V30 78 H 37.896721 27.179284 57.322120 0
M  V30 79 H 42.430767 28.553508 64.594167 0
M  V30 80 H 40.948271 29.110565 63.908025 0
M  V30 81 H 36.667505 26.545260 54.333552 0
M  V30 82 H 37.599030 25.806322 53.114260 0
M  V30 83 H 36.614026 24.762682 54.116254 0
M  V30 84 H 37.867496 30.316866 53.302998 0
M  V30 85 H 38.504774 35.133134 59.627822 0
M  V30 86 H 40.267958 35.221693 59.558721 0
M  V30 87 H 37.156408 31.431657 57.430528 0
M  V30 88 H 37.513157 33.003502 56.760618 0
M  V30 89 H 42.687348 28.290795 67.137457 0
M  V30 90 H 41.932289 29.767003 67.740302 0
M  V30 91 H 41.220822 28.210018 68.099101 0
M  V30 92 H 40.095112 30.510547 52.401331 0
M  V30 93 H 37.438296 33.386787 58.873019 0
M  V30 END ATOM
M  V30 BEGIN BOND
M  V30 1 1 9 4
M  V30 2 1 11 6
M  V30 3 1 13 2
M  V30 4 1 14 2
M  V30 5 1 15 7
M  V30 6 1 15 10
M  V30 7 3 16 11
M  V30 8 1 18 3
M  V30 9 1 21 14
M  V30 10 1 22 19
M  V30 11 1 24 8
M  V30 12 1 24 15
M  V30 13 1 26 17
M  V30 14 1 26 21
M  V30 15 1 27 1
M  V30 16 1 28 1
M  V30 17 1 28 5
M  V30 18 2 28 23
M  V30 19 1 30 18
M  V30 20 1 30 29
M  V30 21 1 31 30
M  V30 22 1 32 9
M  V30 23 1 32 14
M  V30 24 2 33 27
M  V30 25 1 33 29
M  V30 26 1 34 22
M  V30 27 1 34 24
M  V30 28 1 35 1
M  V30 29 1 36 3
M  V30 30 1 36 20
M  V30 31 1 37 4
M  V30 32 1 37 17
M  V30 33 1 38 6
M  V30 34 1 38 26
M  V30 35 1 39 9
M  V30 36 1 39 31
M  V30 37 2 40 7
M  V30 38 1 7 41 CFG=1
M  V30 39 1 41 21
M  V30 40 1 42 22
M  V30 41 1 43 3
M  V30 42 1 43 12
M  V30 43 1 43 36
M  V30 44 1 44 8
M  V30 45 1 44 10
M  V30 46 2 44 25
M  V30 47 2 45 41
M  V30 48 2 46 38
M  V30 49 1 3 47 CFG=1
M  V30 50 1 47 27
M  V30 51 1 1 48 CFG=3
M  V30 52 1 49 4
M  V30 53 1 50 4
M  V30 54 1 51 6
M  V30 55 1 52 8
M  V30 56 1 53 12
M  V30 57 1 54 12
M  V30 58 1 55 12
M  V30 59 1 56 13
M  V30 60 1 57 13
M  V30 61 1 58 13
M  V30 62 1 14 59 CFG=3
M  V30 63 1 15 60 CFG=1
M  V30 64 1 61 18
M  V30 65 1 62 18
M  V30 66 1 63 19
M  V30 67 1 64 20
M  V30 68 1 65 20
M  V30 69 1 66 20
M  V30 70 1 21 67 CFG=1
M  V30 71 1 22 68 CFG=3
M  V30 72 1 24 69 CFG=3
M  V30 73 1 26 70 CFG=1
M  V30 74 1 71 29
M  V30 75 1 72 29
M  V30 76 1 30 73 CFG=3
M  V30 77 1 74 31
M  V30 78 1 75 31
M  V30 79 1 76 32
M  V30 80 1 77 32
M  V30 81 1 78 33
M  V30 82 1 79 34
M  V30 83 1 80 34
M  V30 84 1 81 35
M  V30 85 1 82 35
M  V30 86 1 83 35
M  V30 87 1 36 84 CFG=1
M  V30 88 1 85 37
M  V30 89 1 86 37
M  V30 90 1 87 39
M  V30 91 1 88 39
M  V30 92 1 89 42
M  V30 93 1 90 42
M  V30 94 1 91 42
M  V30 95 1 43 92 CFG=1
M  V30 96 1 9 93 CFG=1
M  V30 END BOND
M  V30 END CTAB
M  END
>  <i_epik_Tot_Q>  (1) 
0

>  <i_epik_Tot_abs_Q>  (1) 
2

>  <i_i_glide_confnum>  (1) 
844

>  <i_i_glide_lignum>  (1) 
26

>  <i_i_glide_posenum>  (1) 
52

>  <i_i_glide_rotatable_bonds>  (1) 
14

>  <i_lp_mmshare_version>  (1) 
72125

>  <i_m_source_file_index>  (1) 
8

>  <i_f3d_flags>  (1) 
0

>  <num_sample>  (1) 
50

>  <b_lp_Chiralities_Consistent>  (1) 
1

>  <r_epik_Charging_Adjusted_Penalty>  (1) 
2.2678334573304797

>  <r_epik_Ionization_Penalty>  (1) 
1.1498882506810455

>  <r_epik_Ionization_Penalty_Charging>  (1) 
1.1031410554290029

>  <r_epik_Ionization_Penalty_Neutral>  (1) 
0.046747195252042517

>  <r_epik_State_Penalty>  (1) 
1.164692401901477

>  <r_glide_ring_energy>  (1) 
0

>  <r_i_docking_score>  (1) 
-4.2532395326363899

>  <r_i_glide_ecoul>  (1) 
-11.016411387824752

>  <r_i_glide_eff_state_penalty>  (1) 
1.164692401901477

>  <r_i_glide_einternal>  (1) 
59.199410165502599

>  <r_i_glide_emodel>  (1) 
0.26716196289510918

>  <r_i_glide_emodel_strain>  (1) 
12.210719350697431

>  <r_i_glide_energy>  (1) 
-38.034025377779464

>  <r_i_glide_erotb>  (1) 
0.2643022598508753

>  <r_i_glide_esite>  (1) 
-0.040039552989287686

>  <r_i_glide_evdw>  (1) 
-27.017613989954715

>  <r_i_glide_gscore>  (1) 
-5.4179319345378669

>  <r_i_glide_gscore_strain>  (1) 
2.0526798376743578

>  <r_i_glide_hbond>  (1) 
-0.83876467523006104

>  <r_i_glide_ligand_efficiency>  (1) 
-0.090494458141199788

>  <r_i_glide_ligand_efficiency_ln>  (1) 
-0.87692991675898446

>  <r_i_glide_ligand_efficiency_sa>  (1) 
-0.32657876064798125

>  <r_i_glide_lipo>  (1) 
-2.940443560848204

>  <r_i_glide_metal>  (1) 
-0

>  <r_i_glide_rewards>  (1) 
-0.912323835324099

>  <r_lp_Energy>  (1) 
34.071460000000002

>  <s_epik_Chemistry_Notes>  (1) 
This compound contains an acetal/aminal-like group ( X-CH(R)-Y where X, Y are N, S, or O) that may be acid/base labile, releasing an aldehyde.

>  <s_epik_cmdline>  (1) 
J2VwaWtfcHl0aG9uJywgJy1waHQnLCAnMS4wJywgJy1waCcsICc3LjQnLCAnLXRuJywgJzgnLCAnLW1hJywgJzUwMCcsICctaW1hZScsICc8aW5maWxlLm1hZT4nLCAnLW9tYWUnLCAnPG91dGZpbGUubWFlPic=

>  <s_epik_input>  (1) 
W09IXUMoPU8pW0NAQEhdKFtDSDNdKUMoTzEpPVtDSF1bQ0gyXVtDQEhdKFtDSDJdW0NAXTEyW0NASF0oW0NIM10pW0NAQEhdMltDSDNdKVtDSDJdW0NIMl1OM1tDSDJdW0NIMl1PW0NAQEhdKEMoPU8pW05IXUMjTilbQ0BASF0oW0NAQEhdKFtDSDJdMylPW0NIM10pQyg9TylTKD1PKVtDQEBIXTRTQyg9TylbTkhdW0NASF00W0NIMl1bQ0BIXShbT0hdKVtDSDNd

>  <s_glide_docking_method>  (1) 
confgen

>  <s_i_glide_gridfile>  (1) 
gpcr_5ht2c_6bqh_protein_autoprepared_prepared

>  <s_lp_Force_Field>  (1) 
S-OPLS

>  <s_lp_Variant>  (1) 
DiffSBDD_7_num_sample_50-4

>  <s_m_source_file>  (1) 
generated__ligand_DiffSBDD_2026-05-06_prepared.sdf

>  <GenAI_Model>  (1) 
DiffSBDD

>  <Protein>  (1) 
GPCR_5HT2C

$$$$
DiffSBDD_7_num_sample_50
     RDKit          3D

  0  0  0  0  0  0  0  0  0  0999 V3000
M  V30 BEGIN CTAB
M  V30 COUNTS 93 96 0 0 1
M  V30 BEGIN ATOM
M  V30 1 C 37.864685 25.849457 55.914315 0 CFG=1
M  V30 2 O 36.284812 32.058424 61.428668 0
M  V30 3 C 38.906079 29.042252 54.596356 0
M  V30 4 C 39.866257 33.624458 59.450206 0
M  V30 5 O 39.463769 24.431458 56.920386 0 CHG=-1
M  V30 6 N 38.197632 36.840344 63.217466 0
M  V30 7 S 41.045638 32.295807 63.137651 0
M  V30 8 N 42.667424 30.696260 66.338695 0
M  V30 9 N 38.653430 33.018215 58.892496 0 CFG=2 CHG=1
M  V30 10 S 41.068571 32.747300 66.220989 0
M  V30 11 C 39.119211 36.774455 64.201504 0
M  V30 12 C 39.816471 30.353644 52.468153 0
M  V30 13 C 35.141428 32.412278 60.661670 0
M  V30 14 C 37.433442 32.795354 61.037725 0 CFG=1
M  V30 15 C 40.988530 31.553003 64.845319 0 CFG=2
M  V30 16 N 39.863614 36.640983 65.078829 0
M  V30 17 O 40.062200 34.727374 61.573474 0
M  V30 18 C 39.124484 30.258065 55.431165 0
M  V30 19 O 42.339276 26.773477 64.363140 0
M  V30 20 C 37.220610 27.728758 52.966766 0
M  V30 21 C 38.354858 33.054150 62.252797 0 CFG=2
M  V30 22 C 42.859588 28.085530 64.372812 0 CFG=1
M  V30 23 O 39.867403 25.221419 54.873391 0
M  V30 24 C 42.150416 30.516780 64.995348 0 CFG=2
M  V30 25 O 42.619811 32.024520 68.239029 0
M  V30 26 C 38.939176 34.525762 62.382256 0 CFG=2
M  V30 27 C 38.234031 27.296713 56.183564 0
M  V30 28 C 39.172280 25.102475 55.901645 0
M  V30 29 C 38.123504 29.421716 57.541574 0
M  V30 30 C 37.964393 30.416198 56.378374 0 CFG=1
M  V30 31 C 37.867452 31.875590 56.819987 0
M  V30 32 C 38.070521 32.064649 59.866505 0
M  V30 33 C 37.768163 28.009356 57.225084 0
M  V30 34 C 41.718619 29.048766 64.775653 0
M  V30 35 C 36.862044 25.190778 56.897102 0
M  V30 36 C 37.900754 28.959660 53.480642 0 CFG=2
M  V30 37 C 39.789926 34.923092 60.216377 0
M  V30 38 C 38.001753 35.789509 62.253490 0
M  V30 39 C 39.028901 32.320107 57.634871 0
M  V30 40 O 41.867419 31.363506 62.253328 0
M  V30 41 C 39.334638 31.911398 62.628637 0
M  V30 42 C 44.083979 28.080673 65.301815 0
M  V30 43 C 39.366138 29.080793 53.150611 0 CFG=2
M  V30 44 C 42.253765 31.752294 67.098753 0
M  V30 45 O 38.953548 30.743674 62.586086 0
M  V30 46 O 37.130865 35.898432 61.396048 0
M  V30 47 O 39.145036 27.813555 55.267314 0
M  V30 48 H 37.432717 25.771389 54.920506 0
M  V30 49 H 40.267414 34.021302 58.546219 0
M  V30 50 H 40.478986 32.863126 59.944718 0
M  V30 51 H 37.611907 37.660537 63.184204 0
M  V30 52 H 43.344118 30.057078 66.731626 0
M  V30 53 H 39.069184 31.133241 52.605961 0
M  V30 54 H 40.704288 30.737810 52.944131 0
M  V30 55 H 39.996893 30.186207 51.405053 0
M  V30 56 H 34.482230 31.560607 60.653558 0
M  V30 57 H 34.638000 33.276075 61.097982 0
M  V30 58 H 35.357202 32.635049 59.614586 0
M  V30 59 H 37.073384 33.734707 60.640366 0
M  V30 60 H 40.039573 31.032957 64.985289 0
M  V30 61 H 39.186714 31.143349 54.802259 0
M  V30 62 H 40.079289 30.179269 55.949843 0
M  V30 63 H 41.645991 26.725731 63.722664 0
M  V30 64 H 37.836474 26.843028 53.105208 0
M  V30 65 H 36.267437 27.596309 53.472554 0
M  V30 66 H 37.067061 27.858178 51.897254 0
M  V30 67 H 37.667269 32.821423 63.053495 0
M  V30 68 H 43.190537 28.325297 63.361600 0
M  V30 69 H 42.971980 30.764351 64.321334 0
M  V30 70 H 39.392179 34.543084 63.369618 0
M  V30 71 H 39.123165 29.390439 57.972842 0
M  V30 72 H 37.435247 29.693252 58.337172 0
M  V30 73 H 37.027603 30.202713 55.862240 0
M  V30 74 H 37.067409 31.954566 57.505130 0
M  V30 75 H 37.644715 32.557822 55.998719 0
M  V30 76 H 37.273326 31.482484 59.425748 0
M  V30 77 H 38.798405 31.305723 60.147880 0
M  V30 78 H 37.079409 27.541484 57.906621 0
M  V30 79 H 40.966123 29.016353 63.985678 0
M  V30 80 H 41.212941 28.680062 65.670825 0
M  V30 81 H 37.195573 25.260564 57.933961 0
M  V30 82 H 35.868073 25.621222 56.822637 0
M  V30 83 H 36.752774 24.128760 56.670241 0
M  V30 84 H 37.280831 29.843330 53.453638 0
M  V30 85 H 38.924781 35.501031 59.917825 0
M  V30 86 H 40.625559 35.548164 59.929697 0
M  V30 87 H 39.737643 32.826116 56.979463 0
M  V30 88 H 39.467404 31.411475 57.976289 0
M  V30 89 H 44.601160 29.039641 65.289051 0
M  V30 90 H 43.807678 27.855301 66.331830 0
M  V30 91 H 44.809360 27.331377 64.983239 0
M  V30 92 H 39.866820 28.183113 52.789110 0
M  V30 93 H 37.982722 33.736430 58.649737 0
M  V30 END ATOM
M  V30 BEGIN BOND
M  V30 1 1 9 4
M  V30 2 1 11 6
M  V30 3 1 13 2
M  V30 4 1 14 2
M  V30 5 1 15 7
M  V30 6 1 15 10
M  V30 7 3 16 11
M  V30 8 1 18 3
M  V30 9 1 21 14
M  V30 10 1 22 19
M  V30 11 1 24 8
M  V30 12 1 24 15
M  V30 13 1 26 17
M  V30 14 1 26 21
M  V30 15 1 27 1
M  V30 16 1 28 1
M  V30 17 1 28 5
M  V30 18 2 28 23
M  V30 19 1 30 18
M  V30 20 1 30 29
M  V30 21 1 31 30
M  V30 22 1 32 9
M  V30 23 1 32 14
M  V30 24 2 33 27
M  V30 25 1 33 29
M  V30 26 1 34 22
M  V30 27 1 34 24
M  V30 28 1 35 1
M  V30 29 1 36 3
M  V30 30 1 36 20
M  V30 31 1 37 4
M  V30 32 1 37 17
M  V30 33 1 38 6
M  V30 34 1 38 26
M  V30 35 1 39 9
M  V30 36 1 39 31
M  V30 37 2 40 7
M  V30 38 1 7 41 CFG=3
M  V30 39 1 41 21
M  V30 40 1 42 22
M  V30 41 1 43 3
M  V30 42 1 43 12
M  V30 43 1 43 36
M  V30 44 1 44 8
M  V30 45 1 44 10
M  V30 46 2 44 25
M  V30 47 2 45 41
M  V30 48 2 46 38
M  V30 49 1 47 3
M  V30 50 1 47 27
M  V30 51 1 1 48 CFG=3
M  V30 52 1 49 4
M  V30 53 1 50 4
M  V30 54 1 51 6
M  V30 55 1 52 8
M  V30 56 1 53 12
M  V30 57 1 54 12
M  V30 58 1 55 12
M  V30 59 1 56 13
M  V30 60 1 57 13
M  V30 61 1 58 13
M  V30 62 1 14 59 CFG=3
M  V30 63 1 15 60 CFG=3
M  V30 64 1 61 18
M  V30 65 1 62 18
M  V30 66 1 63 19
M  V30 67 1 64 20
M  V30 68 1 65 20
M  V30 69 1 66 20
M  V30 70 1 21 67 CFG=1
M  V30 71 1 22 68 CFG=3
M  V30 72 1 24 69 CFG=3
M  V30 73 1 26 70 CFG=1
M  V30 74 1 71 29
M  V30 75 1 72 29
M  V30 76 1 30 73 CFG=3
M  V30 77 1 74 31
M  V30 78 1 75 31
M  V30 79 1 76 32
M  V30 80 1 77 32
M  V30 81 1 78 33
M  V30 82 1 79 34
M  V30 83 1 80 34
M  V30 84 1 81 35
M  V30 85 1 82 35
M  V30 86 1 83 35
M  V30 87 1 36 84 CFG=1
M  V30 88 1 85 37
M  V30 89 1 86 37
M  V30 90 1 87 39
M  V30 91 1 88 39
M  V30 92 1 89 42
M  V30 93 1 90 42
M  V30 94 1 91 42
M  V30 95 1 43 92 CFG=3
M  V30 96 1 9 93 CFG=3
M  V30 END BOND
M  V30 END CTAB
M  END
>  <i_epik_Tot_Q>  (1) 
0

>  <i_epik_Tot_abs_Q>  (1) 
2

>  <i_i_glide_confnum>  (1) 
2655

>  <i_i_glide_lignum>  (1) 
28

>  <i_i_glide_posenum>  (1) 
297

>  <i_i_glide_rotatable_bonds>  (1) 
14

>  <i_lp_mmshare_version>  (1) 
72125

>  <i_m_source_file_index>  (1) 
8

>  <i_f3d_flags>  (1) 
0

>  <num_sample>  (1) 
50

>  <b_lp_Chiralities_Consistent>  (1) 
1

>  <r_epik_Charging_Adjusted_Penalty>  (1) 
2.2678334573304797

>  <r_epik_Ionization_Penalty>  (1) 
1.1498882506810455

>  <r_epik_Ionization_Penalty_Charging>  (1) 
1.1031410554290029

>  <r_epik_Ionization_Penalty_Neutral>  (1) 
0.046747195252042517

>  <r_epik_State_Penalty>  (1) 
1.164692401901477

>  <r_glide_ring_energy>  (1) 
0

>  <r_i_docking_score>  (1) 
-4.2380197197600191

>  <r_i_glide_ecoul>  (1) 
-4.8869306541230397

>  <r_i_glide_eff_state_penalty>  (1) 
1.164692401901477

>  <r_i_glide_einternal>  (1) 
25.670772866654914

>  <r_i_glide_emodel>  (1) 
-15.714407690914364

>  <r_i_glide_emodel_strain>  (1) 
6.6460158761346122

>  <r_i_glide_energy>  (1) 
-27.625170535200112

>  <r_i_glide_erotb>  (1) 
0.2643022598508753

>  <r_i_glide_esite>  (1) 
0

>  <r_i_glide_evdw>  (1) 
-22.738239881077071

>  <r_i_glide_gscore>  (1) 
-5.4027121216614962

>  <r_i_glide_gscore_strain>  (1) 
0.66150396903365305

>  <r_i_glide_hbond>  (1) 
-0.43109016964398195

>  <r_i_glide_ligand_efficiency>  (1) 
-0.09017063233531955

>  <r_i_glide_ligand_efficiency_ln>  (1) 
-0.87379190651141914

>  <r_i_glide_ligand_efficiency_sa>  (1) 
-0.32541012963429877

>  <r_i_glide_lipo>  (1) 
-3.4399158814786266

>  <r_i_glide_metal>  (1) 
-0

>  <r_i_glide_rewards>  (1) 
-0.58756070725110621

>  <r_lp_Energy>  (1) 
32.034796

>  <s_epik_Chemistry_Notes>  (1) 
This compound contains an acetal/aminal-like group ( X-CH(R)-Y where X, Y are N, S, or O) that may be acid/base labile, releasing an aldehyde.

>  <s_epik_cmdline>  (1) 
J2VwaWtfcHl0aG9uJywgJy1waHQnLCAnMS4wJywgJy1waCcsICc3LjQnLCAnLXRuJywgJzgnLCAnLW1hJywgJzUwMCcsICctaW1hZScsICc8aW5maWxlLm1hZT4nLCAnLW9tYWUnLCAnPG91dGZpbGUubWFlPic=

>  <s_epik_input>  (1) 
W09IXUMoPU8pW0NAQEhdKFtDSDNdKUMoTzEpPVtDSF1bQ0gyXVtDQEhdKFtDSDJdW0NAXTEyW0NASF0oW0NIM10pW0NAQEhdMltDSDNdKVtDSDJdW0NIMl1OM1tDSDJdW0NIMl1PW0NAQEhdKEMoPU8pW05IXUMjTilbQ0BASF0oW0NAQEhdKFtDSDJdMylPW0NIM10pQyg9TylTKD1PKVtDQEBIXTRTQyg9TylbTkhdW0NASF00W0NIMl1bQ0BIXShbT0hdKVtDSDNd

>  <s_glide_docking_method>  (1) 
confgen

>  <s_i_glide_gridfile>  (1) 
gpcr_5ht2c_6bqh_protein_autoprepared_prepared

>  <s_lp_Force_Field>  (1) 
S-OPLS

>  <s_lp_Variant>  (1) 
DiffSBDD_7_num_sample_50-6

>  <s_m_source_file>  (1) 
generated__ligand_DiffSBDD_2026-05-06_prepared.sdf

>  <GenAI_Model>  (1) 
DiffSBDD

>  <Protein>  (1) 
GPCR_5HT2C

$$$$
DiffSBDD_0_num_sample_50
     RDKit          3D

  0  0  0  0  0  0  0  0  0  0999 V3000
M  V30 BEGIN CTAB
M  V30 COUNTS 65 69 0 0 1
M  V30 BEGIN ATOM
M  V30 1 C 38.957231 36.246614 61.732764 0
M  V30 2 C 38.287726 35.260177 60.985697 0
M  V30 3 C 37.894992 32.832216 60.358252 0
M  V30 4 S 38.218989 27.805339 51.924355 0
M  V30 5 O 37.067754 27.445872 54.653547 0
M  V30 6 C 37.514349 29.802387 59.981702 0
M  V30 7 C 39.773897 24.859971 55.834717 0
M  V30 8 C 39.597233 33.530844 62.108880 0
M  V30 9 C 38.873011 30.454242 60.228742 0
M  V30 10 C 39.884384 29.607933 49.831975 0
M  V30 11 C 39.871413 29.834874 52.030858 0
M  V30 12 F 40.586965 36.821111 63.371909 0
M  V30 13 C 40.266847 34.519085 62.849492 0
M  V30 14 C 40.267398 30.959248 51.505342 0
M  V30 15 C 39.654703 28.641941 51.037990 0 CFG=1
M  V30 16 C 38.434029 27.420384 58.038627 0
M  V30 17 C 40.153587 27.374351 55.668719 0
M  V30 18 O 37.468313 26.657903 57.839540 0
M  V30 19 C 38.118612 28.069759 54.628879 0
M  V30 20 C 40.941973 25.843567 53.670969 0
M  V30 21 C 38.583236 28.640359 57.112393 0 CFG=2
M  V30 22 C 38.881081 31.861304 59.659069 0 CFG=1
M  V30 23 C 39.998772 26.020111 54.873014 0
M  V30 24 N 37.467491 30.992054 57.765860 0 CFG=1 CHG=1
M  V30 25 C 39.503774 29.636288 53.341710 0
M  V30 26 C 37.384645 29.621458 57.228980 0 CFG=2
M  V30 27 C 38.701783 28.624081 53.429249 0
M  V30 28 N 38.926786 28.230678 55.722757 0
M  V30 29 C 36.851657 29.995647 58.617162 0 CFG=1
M  V30 30 C 38.608706 33.899970 61.169479 0
M  V30 31 O 39.301628 27.270446 58.927101 0 CHG=-1
M  V30 32 C 38.684414 31.721789 58.136064 0
M  V30 33 C 39.945783 35.875368 62.660771 0
M  V30 34 C 40.273899 30.828140 50.151622 0
M  V30 35 H 38.713180 37.289726 61.591897 0
M  V30 36 H 37.530172 35.548072 60.271734 0
M  V30 37 H 37.253957 33.315347 59.619796 0
M  V30 38 H 37.219410 32.313707 61.038460 0
M  V30 39 H 36.808748 30.171015 60.720224 0
M  V30 40 H 37.626034 28.749589 60.185474 0
M  V30 41 H 40.667059 24.587421 56.380190 0
M  V30 42 H 39.020785 25.117270 56.577387 0
M  V30 43 H 39.350685 24.021434 55.296096 0
M  V30 44 H 39.842196 32.488134 62.255889 0
M  V30 45 H 39.103047 30.455817 61.295702 0
M  V30 46 H 39.658524 29.859131 59.761604 0
M  V30 47 H 39.780231 29.257808 48.818991 0
M  V30 48 H 41.026103 34.239355 63.565374 0
M  V30 49 H 40.416890 31.877287 52.042660 0
M  V30 50 H 40.528272 27.999881 51.094098 0
M  V30 51 H 41.012219 27.991496 55.453408 0
M  V30 52 H 40.492172 27.081097 56.657329 0
M  V30 53 H 41.983906 25.621544 53.853328 0
M  V30 54 H 40.667407 25.008336 53.046611 0
M  V30 55 H 40.859498 26.726329 53.053502 0
M  V30 56 H 39.478782 29.136740 57.478170 0
M  V30 57 H 39.867271 32.268200 59.853503 0
M  V30 58 H 39.063240 25.915211 54.337257 0
M  V30 59 H 39.830161 30.244363 54.173085 0
M  V30 60 H 36.666867 29.621487 56.416418 0
M  V30 61 H 35.776813 30.163515 58.665630 0
M  V30 62 H 38.639121 32.712098 57.679702 0
M  V30 63 H 39.479606 31.214798 57.629524 0
M  V30 64 H 40.498575 31.619140 49.451567 0
M  V30 65 H 36.719759 31.580511 57.381132 0
M  V30 END ATOM
M  V30 BEGIN BOND
M  V30 1 2 2 1
M  V30 2 1 9 6
M  V30 3 1 13 8
M  V30 4 2 14 11
M  V30 5 1 15 4
M  V30 6 1 15 10
M  V30 7 1 15 11
M  V30 8 2 18 16
M  V30 9 2 19 5
M  V30 10 1 21 16
M  V30 11 1 22 3
M  V30 12 1 22 9
M  V30 13 1 23 7
M  V30 14 1 23 17
M  V30 15 1 23 20
M  V30 16 1 25 11
M  V30 17 1 26 21
M  V30 18 1 26 24
M  V30 19 1 27 4
M  V30 20 1 27 19
M  V30 21 2 27 25
M  V30 22 1 28 17
M  V30 23 1 28 19
M  V30 24 1 28 21
M  V30 25 1 29 6
M  V30 26 1 29 24
M  V30 27 1 29 26
M  V30 28 1 30 2
M  V30 29 1 30 3
M  V30 30 2 30 8
M  V30 31 1 31 16
M  V30 32 1 32 22
M  V30 33 1 32 24
M  V30 34 1 33 1
M  V30 35 1 33 12
M  V30 36 2 33 13
M  V30 37 2 34 10
M  V30 38 1 34 14
M  V30 39 1 35 1
M  V30 40 1 36 2
M  V30 41 1 37 3
M  V30 42 1 38 3
M  V30 43 1 39 6
M  V30 44 1 40 6
M  V30 45 1 41 7
M  V30 46 1 42 7
M  V30 47 1 43 7
M  V30 48 1 44 8
M  V30 49 1 45 9
M  V30 50 1 46 9
M  V30 51 1 47 10
M  V30 52 1 48 13
M  V30 53 1 49 14
M  V30 54 1 15 50 CFG=1
M  V30 55 1 51 17
M  V30 56 1 52 17
M  V30 57 1 53 20
M  V30 58 1 54 20
M  V30 59 1 55 20
M  V30 60 1 21 56 CFG=1
M  V30 61 1 22 57 CFG=3
M  V30 62 1 58 23
M  V30 63 1 59 25
M  V30 64 1 26 60 CFG=3
M  V30 65 1 29 61 CFG=1
M  V30 66 1 62 32
M  V30 67 1 63 32
M  V30 68 1 64 34
M  V30 69 1 24 65 CFG=3
M  V30 END BOND
M  V30 END CTAB
M  END
>  <i_epik_Tot_Q>  (1) 
0

>  <i_epik_Tot_abs_Q>  (1) 
2

>  <i_i_glide_confnum>  (1) 
99

>  <i_i_glide_lignum>  (1) 
1

>  <i_i_glide_posenum>  (1) 
5

>  <i_i_glide_rotatable_bonds>  (1) 
9

>  <i_lp_mmshare_version>  (1) 
72125

>  <i_m_source_file_index>  (1) 
1

>  <i_f3d_flags>  (1) 
0

>  <num_sample>  (1) 
50

>  <b_lp_Chiralities_Consistent>  (1) 
1

>  <r_epik_Charging_Adjusted_Penalty>  (1) 
0.0020295482604282666

>  <r_epik_Ionization_Penalty>  (1) 
0.0020295482639142975

>  <r_epik_Ionization_Penalty_Charging>  (1) 
0.0020295482604282666

>  <r_epik_Ionization_Penalty_Neutral>  (1) 
3.4860309872641501e-12

>  <r_epik_State_Penalty>  (1) 
-0

>  <r_glide_ring_energy>  (1) 
1.8755015890792339

>  <r_i_docking_score>  (1) 
-4.1624448946829675

>  <r_i_glide_ecoul>  (1) 
-5.6586371255159866

>  <r_i_glide_eff_state_penalty>  (1) 
-0

>  <r_i_glide_einternal>  (1) 
45.035841929056467

>  <r_i_glide_emodel>  (1) 
-7.9259454476019791

>  <r_i_glide_emodel_strain>  (1) 
3.7270343466914824

>  <r_i_glide_energy>  (1) 
-23.857230106207389

>  <r_i_glide_erotb>  (1) 
0.52278502944784222

>  <r_i_glide_esite>  (1) 
-0.1060421518453748

>  <r_i_glide_evdw>  (1) 
-18.198592980691402

>  <r_i_glide_gscore>  (1) 
-4.1624448946829675

>  <r_i_glide_gscore_strain>  (1) 
0

>  <r_i_glide_hbond>  (1) 
-0.17528969468771177

>  <r_i_glide_ligand_efficiency>  (1) 
-0.12242484984361669

>  <r_i_glide_ligand_efficiency_ln>  (1) 
-0.91960082986008851

>  <r_i_glide_ligand_efficiency_sa>  (1) 
-0.39660898832300456

>  <r_i_glide_lipo>  (1) 
-4.7131487313324882

>  <r_i_glide_metal>  (1) 
-0

>  <r_i_glide_rewards>  (1) 
2.0679758715967331

>  <r_lp_Energy>  (1) 
57.080993999999997

>  <r_lp_tautomer_probability>  (1) 
1

>  <s_epik_cmdline>  (1) 
J2VwaWtfcHl0aG9uJywgJy1waHQnLCAnMS4wJywgJy1waCcsICc3LjQnLCAnLXRuJywgJzgnLCAnLW1hJywgJzUwMCcsICctaW1hZScsICc8aW5maWxlLm1hZT4nLCAnLW9tYWUnLCAnPG91dGZpbGUubWFlPic=

>  <s_epik_input>  (1) 
W2NIXTFbY0hdYyhGKVtjSF1bY0hdYzFbQ0gyXVtDQEhdKFtDSDJdMilbQ0gyXVtDSDJdW0NIXShOMjMpW0NAQEhdM1tDQEBIXShDKD1PKVtPSF0pTihbQ0gyXVtDSF0oW0NIM10pW0NIM10pQyg9TylDKD1bQ0hdNClTW0NASF0oQzQ9NSlbQ0hdPVtDSF1bQ0hdNQ==

>  <s_glide_docking_method>  (1) 
confgen

>  <s_i_glide_gridfile>  (1) 
gpcr_5ht2c_6bqh_protein_autoprepared_prepared

>  <s_lp_Force_Field>  (1) 
S-OPLS

>  <s_lp_Variant>  (1) 
DiffSBDD_0_num_sample_50-1

>  <s_m_source_file>  (1) 
generated__ligand_DiffSBDD_2026-05-06_prepared.sdf

>  <GenAI_Model>  (1) 
DiffSBDD

>  <Protein>  (1) 
GPCR_5HT2C

$$$$
DiffSBDD_1_num_sample_50
     RDKit          3D

  0  0  0  0  0  0  0  0  0  0999 V3000
M  V30 BEGIN CTAB
M  V30 COUNTS 32 31 0 0 1
M  V30 BEGIN ATOM
M  V30 1 C 40.745891 30.172346 50.206087 0
M  V30 2 C 39.841653 29.434225 51.203628 0
M  V30 3 C 38.311050 31.844245 54.660429 0
M  V30 4 C 38.543426 30.331096 54.827199 0
M  V30 5 N 37.067522 31.492581 58.653510 0 CHG=1
M  V30 6 C 38.679356 29.579489 53.493390 0
M  V30 7 C 39.710610 30.194563 52.530414 0
M  V30 8 C 38.753167 32.452467 57.071416 0
M  V30 9 N 37.867400 32.535181 55.889226 0 CHG=1
M  V30 10 C 38.379009 31.296955 58.023339 0
M  V30 11 H 40.829883 29.620961 49.270039 0
M  V30 12 H 41.750481 30.310819 50.607637 0
M  V30 13 H 40.347944 31.159542 49.966062 0
M  V30 14 H 38.856070 29.305576 50.755594 0
M  V30 15 H 40.228660 28.430733 51.385219 0
M  V30 16 H 39.220703 32.325718 54.305656 0
M  V30 17 H 37.548245 32.015612 53.902073 0
M  V30 18 H 37.711534 29.887415 55.376406 0
M  V30 19 H 39.444104 30.162869 55.418796 0
M  V30 20 H 36.830336 30.686993 59.213896 0
M  V30 21 H 37.078017 32.312278 59.242949 0
M  V30 22 H 37.700975 29.530671 53.022837 0
M  V30 23 H 38.954617 28.544362 53.700441 0
M  V30 24 H 40.667373 30.230450 53.036928 0
M  V30 25 H 39.467512 31.232809 52.303683 0
M  V30 26 H 39.789869 32.374978 56.741684 0
M  V30 27 H 38.676904 33.396323 57.612536 0
M  V30 28 H 37.776502 33.511117 55.640246 0
M  V30 29 H 38.401860 30.329230 57.526001 0
M  V30 30 H 39.086240 31.234999 58.844882 0
M  V30 31 H 36.919782 32.235071 56.124274 0
M  V30 32 H 36.327669 31.621326 57.944431 0
M  V30 END ATOM
M  V30 BEGIN BOND
M  V30 1 1 2 1
M  V30 2 1 4 3
M  V30 3 1 6 4
M  V30 4 1 7 2
M  V30 5 1 7 6
M  V30 6 1 9 3
M  V30 7 1 9 8
M  V30 8 1 10 5
M  V30 9 1 10 8
M  V30 10 1 11 1
M  V30 11 1 12 1
M  V30 12 1 13 1
M  V30 13 1 14 2
M  V30 14 1 15 2
M  V30 15 1 16 3
M  V30 16 1 17 3
M  V30 17 1 18 4
M  V30 18 1 19 4
M  V30 19 1 20 5
M  V30 20 1 21 5
M  V30 21 1 22 6
M  V30 22 1 23 6
M  V30 23 1 24 7
M  V30 24 1 25 7
M  V30 25 1 26 8
M  V30 26 1 27 8
M  V30 27 1 28 9
M  V30 28 1 29 10
M  V30 29 1 30 10
M  V30 30 1 31 9
M  V30 31 1 32 5
M  V30 END BOND
M  V30 END CTAB
M  END
>  <i_epik_Tot_Q>  (1) 
2

>  <i_epik_Tot_abs_Q>  (1) 
2

>  <i_i_glide_confnum>  (1) 
106

>  <i_i_glide_lignum>  (1) 
6

>  <i_i_glide_posenum>  (1) 
319

>  <i_i_glide_rotatable_bonds>  (1) 
7

>  <i_lp_mmshare_version>  (1) 
72125

>  <i_m_source_file_index>  (1) 
2

>  <i_f3d_flags>  (1) 
0

>  <num_sample>  (1) 
50

>  <b_lp_Chiralities_Consistent>  (1) 
1

>  <r_epik_Charging_Adjusted_Penalty>  (1) 
1.9336856173291923

>  <r_epik_Ionization_Penalty>  (1) 
1.0728538162779453

>  <r_epik_Ionization_Penalty_Charging>  (1) 
1.0728538162779453

>  <r_epik_Ionization_Penalty_Neutral>  (1) 
0

>  <r_epik_State_Penalty>  (1) 
0.86083180105124713

>  <r_glide_ring_energy>  (1) 
0

>  <r_i_docking_score>  (1) 
-4.1546629912236668

>  <r_i_glide_ecoul>  (1) 
-10.041053045047661

>  <r_i_glide_eff_state_penalty>  (1) 
0.86083180105124713

>  <r_i_glide_einternal>  (1) 
5.4338194102473549

>  <r_i_glide_emodel>  (1) 
-36.397200090451769

>  <r_i_glide_emodel_strain>  (1) 
0.077025880079047759

>  <r_i_glide_energy>  (1) 
-23.419053323148393

>  <r_i_glide_erotb>  (1) 
2.3802894998601309

>  <r_i_glide_esite>  (1) 
-0.20000000000000001

>  <r_i_glide_evdw>  (1) 
-13.378000278100732

>  <r_i_glide_gscore>  (1) 
-5.0154947922749136

>  <r_i_glide_gscore_strain>  (1) 
0

>  <r_i_glide_hbond>  (1) 
-0.4056400986246182

>  <r_i_glide_ligand_efficiency>  (1) 
-0.41546629912236666

>  <r_i_glide_ligand_efficiency_ln>  (1) 
-1.2580033138395676

>  <r_i_glide_ligand_efficiency_sa>  (1) 
-0.89509500736838998

>  <r_i_glide_lipo>  (1) 
-1.3085174304633658

>  <r_i_glide_metal>  (1) 
-0

>  <r_i_glide_rewards>  (1) 
-3.3065687923848746

>  <r_lp_Energy>  (1) 
19.796144999999999

>  <s_epik_cmdline>  (1) 
J2VwaWtfcHl0aG9uJywgJy1waHQnLCAnMS4wJywgJy1waCcsICc3LjQnLCAnLXRuJywgJzgnLCAnLW1hJywgJzUwMCcsICctaW1hZScsICc8aW5maWxlLm1hZT4nLCAnLW9tYWUnLCAnPG91dGZpbGUubWFlPic=

>  <s_epik_input>  (1) 
W0NIM11bQ0gyXVtDSDJdW0NIMl1bQ0gyXVtDSDJdW05IXVtDSDJdW0NIMl1bTkgyXQ==

>  <s_glide_docking_method>  (1) 
confgen

>  <s_i_glide_gridfile>  (1) 
gpcr_5ht2c_6bqh_protein_autoprepared_prepared

>  <s_lp_Force_Field>  (1) 
S-OPLS

>  <s_lp_Variant>  (1) 
DiffSBDD_1_num_sample_50-2

>  <s_m_source_file>  (1) 
generated__ligand_DiffSBDD_2026-05-06_prepared.sdf

>  <GenAI_Model>  (1) 
DiffSBDD

>  <Protein>  (1) 
GPCR_5HT2C

$$$$
DiffSBDD_0_num_sample_50
     RDKit          3D

  0  0  0  0  0  0  0  0  0  0999 V3000
M  V30 BEGIN CTAB
M  V30 COUNTS 65 69 0 0 1
M  V30 BEGIN ATOM
M  V30 1 C 40.232303 30.312202 51.475751 0
M  V30 2 C 39.629820 30.066898 52.722213 0
M  V30 3 C 38.212348 28.598573 54.260910 0
M  V30 4 S 39.322859 33.886621 60.368271 0
M  V30 5 O 41.280604 31.747134 61.147385 0
M  V30 6 C 38.273966 31.659432 56.781459 0
M  V30 7 C 41.754231 28.881676 64.472304 0
M  V30 8 C 38.769380 27.941747 51.888106 0
M  V30 9 C 37.869358 30.845414 55.513042 0
M  V30 10 C 36.267374 34.881264 59.878582 0
M  V30 11 C 36.869662 33.002763 60.892917 0
M  V30 12 F 40.667394 29.621413 49.238029 0
M  V30 13 C 39.375774 28.189345 50.649616 0
M  V30 14 C 35.625308 32.869521 60.482282 0
M  V30 15 C 37.525328 34.421303 60.708862 0 CFG=1
M  V30 16 C 40.240962 28.388684 59.457246 0
M  V30 17 C 40.458638 29.238619 62.324835 0
M  V30 18 O 41.303976 28.899696 59.053472 0
M  V30 19 C 40.107212 31.381935 61.174910 0
M  V30 20 C 40.008638 30.691619 64.444901 0
M  V30 21 C 39.216398 29.307949 60.126957 0 CFG=2
M  V30 22 C 38.626516 29.471917 55.454989 0 CFG=1
M  V30 23 C 41.036505 29.922204 63.600686 0
M  V30 24 N 37.917872 29.587196 57.812044 0 CFG=1 CHG=1
M  V30 25 C 37.696380 31.968616 61.269030 0
M  V30 26 C 38.324822 30.112294 59.105103 0 CFG=2
M  V30 27 C 38.951664 32.275272 61.055040 0
M  V30 28 N 39.749193 30.076723 61.320095 0
M  V30 29 C 38.843397 30.736759 57.841636 0 CFG=2
M  V30 30 C 38.887970 28.877506 52.928598 0
M  V30 31 O 39.867380 27.221472 59.230628 0 CHG=-1
M  V30 32 C 38.492580 28.677676 56.793023 0
M  V30 33 C 40.100561 29.377973 50.439471 0
M  V30 34 C 35.253752 34.021441 59.853861 0
M  V30 35 H 40.791349 31.221490 51.314393 0
M  V30 36 H 39.733826 30.791995 53.510607 0
M  V30 37 H 38.444217 27.556743 54.488754 0
M  V30 38 H 37.131006 28.637755 54.121628 0
M  V30 39 H 37.467403 32.261127 57.189158 0
M  V30 40 H 39.058627 32.368269 56.515443 0
M  V30 41 H 41.062819 28.115144 64.825036 0
M  V30 42 H 42.548110 28.383731 63.914349 0
M  V30 43 H 42.210592 29.347212 65.346449 0
M  V30 44 H 38.206571 27.031740 52.039814 0
M  V30 45 H 36.796180 30.650171 55.525546 0
M  V30 46 H 38.024233 31.451553 54.621887 0
M  V30 47 H 36.237517 35.857080 59.417093 0
M  V30 48 H 39.275559 27.470948 49.853502 0
M  V30 49 H 35.062687 31.947212 60.473100 0
M  V30 50 H 37.511520 34.948753 61.663383 0
M  V30 51 H 39.781900 28.441349 62.632255 0
M  V30 52 H 41.298156 28.739160 61.840931 0
M  V30 53 H 39.286492 30.021455 64.906628 0
M  V30 54 H 40.500558 31.234804 65.251812 0
M  V30 55 H 39.467422 31.425446 63.853664 0
M  V30 56 H 38.519632 28.609103 60.585993 0
M  V30 57 H 39.694416 29.679357 55.371815 0
M  V30 58 H 41.805470 30.633974 63.301892 0
M  V30 59 H 37.350393 30.999594 61.597904 0
M  V30 60 H 37.343663 30.386383 59.473204 0
M  V30 61 H 39.867406 30.453560 57.616939 0
M  V30 62 H 37.799827 27.842427 56.692670 0
M  V30 63 H 39.457936 28.241184 57.024082 0
M  V30 64 H 34.310247 34.182484 59.352505 0
M  V30 65 H 37.010008 29.940046 57.532853 0
M  V30 END ATOM
M  V30 BEGIN BOND
M  V30 1 2 2 1
M  V30 2 1 9 6
M  V30 3 1 13 8
M  V30 4 2 14 11
M  V30 5 1 15 4
M  V30 6 1 15 10
M  V30 7 1 15 11
M  V30 8 2 18 16
M  V30 9 2 19 5
M  V30 10 1 21 16
M  V30 11 1 22 3
M  V30 12 1 22 9
M  V30 13 1 23 7
M  V30 14 1 23 17
M  V30 15 1 23 20
M  V30 16 1 25 11
M  V30 17 1 26 21
M  V30 18 1 26 24
M  V30 19 1 27 4
M  V30 20 1 27 19
M  V30 21 2 27 25
M  V30 22 1 28 17
M  V30 23 1 28 19
M  V30 24 1 28 21
M  V30 25 1 29 6
M  V30 26 1 29 24
M  V30 27 1 29 26
M  V30 28 1 30 2
M  V30 29 1 30 3
M  V30 30 2 30 8
M  V30 31 1 31 16
M  V30 32 1 32 22
M  V30 33 1 32 24
M  V30 34 1 33 1
M  V30 35 1 33 12
M  V30 36 2 33 13
M  V30 37 2 34 10
M  V30 38 1 34 14
M  V30 39 1 35 1
M  V30 40 1 36 2
M  V30 41 1 37 3
M  V30 42 1 38 3
M  V30 43 1 39 6
M  V30 44 1 40 6
M  V30 45 1 41 7
M  V30 46 1 42 7
M  V30 47 1 43 7
M  V30 48 1 44 8
M  V30 49 1 45 9
M  V30 50 1 46 9
M  V30 51 1 47 10
M  V30 52 1 48 13
M  V30 53 1 49 14
M  V30 54 1 15 50 CFG=1
M  V30 55 1 51 17
M  V30 56 1 52 17
M  V30 57 1 53 20
M  V30 58 1 54 20
M  V30 59 1 55 20
M  V30 60 1 21 56 CFG=1
M  V30 61 1 22 57 CFG=3
M  V30 62 1 58 23
M  V30 63 1 59 25
M  V30 64 1 26 60 CFG=1
M  V30 65 1 29 61 CFG=1
M  V30 66 1 62 32
M  V30 67 1 63 32
M  V30 68 1 64 34
M  V30 69 1 24 65 CFG=3
M  V30 END BOND
M  V30 END CTAB
M  END
>  <i_epik_Tot_Q>  (1) 
0

>  <i_epik_Tot_abs_Q>  (1) 
2

>  <i_i_glide_confnum>  (1) 
201

>  <i_i_glide_lignum>  (1) 
3

>  <i_i_glide_posenum>  (1) 
284

>  <i_i_glide_rotatable_bonds>  (1) 
9

>  <i_lp_mmshare_version>  (1) 
72125

>  <i_m_source_file_index>  (1) 
1

>  <i_f3d_flags>  (1) 
0

>  <num_sample>  (1) 
50

>  <b_lp_Chiralities_Consistent>  (1) 
1

>  <r_epik_Charging_Adjusted_Penalty>  (1) 
0.0020295482604282666

>  <r_epik_Ionization_Penalty>  (1) 
0.0020295482639142975

>  <r_epik_Ionization_Penalty_Charging>  (1) 
0.0020295482604282666

>  <r_epik_Ionization_Penalty_Neutral>  (1) 
3.4860309872641501e-12

>  <r_epik_State_Penalty>  (1) 
-0

>  <r_glide_ring_energy>  (1) 
1.5402731440392987

>  <r_i_docking_score>  (1) 
-4.1488126788308124

>  <r_i_glide_ecoul>  (1) 
-4.3099747518665472

>  <r_i_glide_eff_state_penalty>  (1) 
-0

>  <r_i_glide_einternal>  (1) 
9.0681084650477928

>  <r_i_glide_emodel>  (1) 
-58.825371147429465

>  <r_i_glide_emodel_strain>  (1) 
1.5520166908060844

>  <r_i_glide_energy>  (1) 
-49.083622659287144

>  <r_i_glide_erotb>  (1) 
0.52278502944784222

>  <r_i_glide_esite>  (1) 
-0.040036258907831919

>  <r_i_glide_evdw>  (1) 
-44.773647907420596

>  <r_i_glide_gscore>  (1) 
-4.1488126788308124

>  <r_i_glide_gscore_strain>  (1) 
0

>  <r_i_glide_hbond>  (1) 
-0.076468371798952606

>  <r_i_glide_ligand_efficiency>  (1) 
-0.12202390231855331

>  <r_i_glide_ligand_efficiency_ln>  (1) 
-0.91658909100764452

>  <r_i_glide_ligand_efficiency_sa>  (1) 
-0.39531007398911622

>  <r_i_glide_lipo>  (1) 
-3.4031465790943036

>  <r_i_glide_metal>  (1) 
-0

>  <r_i_glide_rewards>  (1) 
1.7332321096734458

>  <r_lp_Energy>  (1) 
73.777939000000003

>  <r_lp_tautomer_probability>  (1) 
1

>  <s_epik_cmdline>  (1) 
J2VwaWtfcHl0aG9uJywgJy1waHQnLCAnMS4wJywgJy1waCcsICc3LjQnLCAnLXRuJywgJzgnLCAnLW1hJywgJzUwMCcsICctaW1hZScsICc8aW5maWxlLm1hZT4nLCAnLW9tYWUnLCAnPG91dGZpbGUubWFlPic=

>  <s_epik_input>  (1) 
W2NIXTFbY0hdYyhGKVtjSF1bY0hdYzFbQ0gyXVtDQEhdKFtDSDJdMilbQ0gyXVtDSDJdW0NIXShOMjMpW0NAQEhdM1tDQEBIXShDKD1PKVtPSF0pTihbQ0gyXVtDSF0oW0NIM10pW0NIM10pQyg9TylDKD1bQ0hdNClTW0NASF0oQzQ9NSlbQ0hdPVtDSF1bQ0hdNQ==

>  <s_glide_docking_method>  (1) 
confgen

>  <s_i_glide_gridfile>  (1) 
gpcr_5ht2c_6bqh_protein_autoprepared_prepared

>  <s_lp_Force_Field>  (1) 
S-OPLS

>  <s_lp_Variant>  (1) 
DiffSBDD_0_num_sample_50-3

>  <s_m_source_file>  (1) 
generated__ligand_DiffSBDD_2026-05-06_prepared.sdf

>  <GenAI_Model>  (1) 
DiffSBDD

>  <Protein>  (1) 
GPCR_5HT2C

$$$$
DiffSBDD_22_num_sample_50
     RDKit          3D

  0  0  0  0  0  0  0  0  0  0999 V3000
M  V30 BEGIN CTAB
M  V30 COUNTS 70 72 0 0 1
M  V30 BEGIN ATOM
M  V30 1 O 43.857486 28.737542 63.853716 0
M  V30 2 C 33.712372 33.509142 59.053483 0
M  V30 3 N 41.446330 29.550074 63.550286 0
M  V30 4 O 42.434036 29.295775 65.916593 0
M  V30 5 C 41.144896 26.475447 66.743677 0
M  V30 6 C 37.880633 33.047644 61.711360 0 CFG=2
M  V30 7 C 42.720364 26.036097 64.303267 0
M  V30 8 C 41.053064 32.737057 61.053501 0
M  V30 9 C 38.667439 31.316497 57.744267 0
M  V30 10 C 40.411804 32.760311 62.208006 0
M  V30 11 C 38.523067 30.456069 58.858439 0
M  V30 12 C 38.378710 29.067848 58.655640 0
M  V30 13 C 35.668947 31.221537 60.700984 0
M  V30 14 C 38.665893 30.789247 56.439480 0
M  V30 15 N 41.727165 30.822916 63.074234 0
M  V30 16 F 42.667793 25.093131 67.837419 0
M  V30 17 C 41.483593 32.810280 64.502338 0
M  V30 18 C 40.678888 26.937997 65.355333 0
M  V30 19 C 38.520686 29.403484 56.239298 0
M  V30 20 Cl 38.518289 28.760050 54.636764 0
M  V30 21 C 39.190513 33.614801 62.382153 0 CFG=1
M  V30 22 C 36.488430 32.282216 59.942062 0 CFG=2
M  V30 23 S 42.565887 28.754960 64.555706 0
M  V30 24 C 38.376979 28.542128 57.346561 0
M  V30 25 C 38.522047 31.027140 60.279139 0
M  V30 26 N 41.834616 27.194129 64.473083 0
M  V30 27 C 42.142940 25.322982 66.632825 0
M  V30 28 O 34.456078 33.621426 60.244973 0
M  V30 29 N 37.889080 32.363803 60.388169 0
M  V30 30 C 39.536694 35.084604 62.030649 0
M  V30 31 S 36.682321 34.404988 61.453498 0
M  V30 32 C 35.859770 33.669052 60.059840 0 CFG=1
M  V30 33 C 40.853340 31.938395 63.404579 0 CFG=1
M  V30 34 C 43.278431 25.629026 65.665465 0
M  V30 35 H 32.650390 33.621621 59.269081 0
M  V30 36 H 33.993223 34.262177 58.315048 0
M  V30 37 H 33.867393 32.512555 58.653498 0
M  V30 38 H 40.508635 29.515590 63.949600 0
M  V30 39 H 40.292059 26.154109 67.342916 0
M  V30 40 H 41.600751 27.302459 67.289169 0
M  V30 41 H 37.441478 32.363597 62.434146 0
M  V30 42 H 42.153172 25.213303 63.867645 0
M  V30 43 H 43.523298 26.267949 63.599881 0
M  V30 44 H 40.667405 33.321746 60.253470 0
M  V30 45 H 41.939802 32.143809 60.892880 0
M  V30 46 H 38.778982 32.381137 57.892733 0
M  V30 47 H 38.267695 28.406563 59.502111 0
M  V30 48 H 34.667406 31.221435 60.323881 0
M  V30 49 H 36.033278 30.212459 60.525270 0
M  V30 50 H 35.600936 31.416450 61.768425 0
M  V30 51 H 38.774874 31.449717 55.590871 0
M  V30 52 H 42.708340 31.060518 63.214192 0
M  V30 53 H 40.812535 33.596731 64.846623 0
M  V30 54 H 41.737872 32.207117 65.374695 0
M  V30 55 H 42.397673 33.290203 64.151092 0
M  V30 56 H 40.081727 27.842794 65.453434 0
M  V30 57 H 40.043131 26.177908 64.900422 0
M  V30 58 H 39.067388 33.613308 63.453462 0
M  V30 59 H 36.444039 32.007168 58.891380 0
M  V30 60 H 38.265078 27.478728 57.191772 0
M  V30 61 H 39.555287 31.012168 60.579976 0
M  V30 62 H 38.063097 30.320839 60.967743 0
M  V30 63 H 41.630894 24.434268 66.253483 0
M  V30 64 H 40.522344 35.355714 62.409127 0
M  V30 65 H 39.542131 35.257306 60.954085 0
M  V30 66 H 38.836480 35.786502 62.482470 0
M  V30 67 H 36.128403 34.274148 59.191083 0
M  V30 68 H 39.935576 31.506351 63.805695 0
M  V30 69 H 43.867354 24.723143 65.560600 0
M  V30 70 H 43.930054 26.409281 66.064401 0
M  V30 END ATOM
M  V30 BEGIN BOND
M  V30 1 2 10 8
M  V30 2 1 11 9
M  V30 3 2 12 11
M  V30 4 2 14 9
M  V30 5 1 15 3
M  V30 6 1 18 5
M  V30 7 1 19 14
M  V30 8 1 20 19
M  V30 9 1 21 6
M  V30 10 1 21 10
M  V30 11 1 22 13
M  V30 12 2 23 1
M  V30 13 1 23 3
M  V30 14 2 23 4
M  V30 15 1 24 12
M  V30 16 2 24 19
M  V30 17 1 25 11
M  V30 18 1 26 7
M  V30 19 1 26 18
M  V30 20 1 26 23
M  V30 21 1 27 5
M  V30 22 1 27 16
M  V30 23 1 28 2
M  V30 24 1 29 6
M  V30 25 1 29 22
M  V30 26 1 29 25
M  V30 27 1 30 21
M  V30 28 1 31 6
M  V30 29 1 32 22
M  V30 30 1 32 28
M  V30 31 1 32 31
M  V30 32 1 33 10
M  V30 33 1 33 15
M  V30 34 1 33 17
M  V30 35 1 34 7
M  V30 36 1 34 27
M  V30 37 1 35 2
M  V30 38 1 36 2
M  V30 39 1 37 2
M  V30 40 1 38 3
M  V30 41 1 39 5
M  V30 42 1 40 5
M  V30 43 1 6 41 CFG=1
M  V30 44 1 42 7
M  V30 45 1 43 7
M  V30 46 1 44 8
M  V30 47 1 45 8
M  V30 48 1 46 9
M  V30 49 1 47 12
M  V30 50 1 48 13
M  V30 51 1 49 13
M  V30 52 1 50 13
M  V30 53 1 51 14
M  V30 54 1 52 15
M  V30 55 1 53 17
M  V30 56 1 54 17
M  V30 57 1 55 17
M  V30 58 1 56 18
M  V30 59 1 57 18
M  V30 60 1 21 58 CFG=1
M  V30 61 1 22 59 CFG=3
M  V30 62 1 60 24
M  V30 63 1 61 25
M  V30 64 1 62 25
M  V30 65 1 63 27
M  V30 66 1 64 30
M  V30 67 1 65 30
M  V30 68 1 66 30
M  V30 69 1 32 67 CFG=3
M  V30 70 1 33 68 CFG=1
M  V30 71 1 69 34
M  V30 72 1 70 34
M  V30 END BOND
M  V30 END CTAB
M  END
>  <i_epik_Tot_Q>  (1) 
0

>  <i_epik_Tot_abs_Q>  (1) 
0

>  <i_i_glide_confnum>  (1) 
706

>  <i_i_glide_lignum>  (1) 
61

>  <i_i_glide_posenum>  (1) 
235

>  <i_i_glide_rotatable_bonds>  (1) 
10

>  <i_lp_mmshare_version>  (1) 
72125

>  <i_m_source_file_index>  (1) 
23

>  <i_f3d_flags>  (1) 
0

>  <num_sample>  (1) 
50

>  <b_lp_Chiralities_Consistent>  (1) 
1

>  <r_epik_Charging_Adjusted_Penalty>  (1) 
0.021675413420737664

>  <r_epik_Ionization_Penalty>  (1) 
0.0077503222149327006

>  <r_epik_Ionization_Penalty_Charging>  (1) 
0

>  <r_epik_Ionization_Penalty_Neutral>  (1) 
0.0077503222149327006

>  <r_epik_State_Penalty>  (1) 
0.021675413420737664

>  <r_glide_ring_energy>  (1) 
0

>  <r_i_docking_score>  (1) 
-4.1038925259171632

>  <r_i_glide_ecoul>  (1) 
-0.23893908344834713

>  <r_i_glide_eff_state_penalty>  (1) 
0.021675413420737664

>  <r_i_glide_einternal>  (1) 
25.456302944229577

>  <r_i_glide_emodel>  (1) 
-29.716598657838212

>  <r_i_glide_emodel_strain>  (1) 
5.5459335016899516

>  <r_i_glide_energy>  (1) 
-36.817161907540978

>  <r_i_glide_erotb>  (1) 
0.57664372935484776

>  <r_i_glide_esite>  (1) 
-0.0093912108592832701

>  <r_i_glide_evdw>  (1) 
-36.578222824092634

>  <r_i_glide_gscore>  (1) 
-4.125567939337901

>  <r_i_glide_gscore_strain>  (1) 
0.3864833754224879

>  <r_i_glide_hbond>  (1) 
-0.078084948139985441

>  <r_i_glide_ligand_efficiency>  (1) 
-0.1207027213505048

>  <r_i_glide_ligand_efficiency_ln>  (1) 
-0.90666496926140816

>  <r_i_glide_ligand_efficiency_sa>  (1) 
-0.39102996053340305

>  <r_i_glide_lipo>  (1) 
-2.3519198324029205

>  <r_i_glide_metal>  (1) 
-0

>  <r_i_glide_rewards>  (1) 
-0.78454704899116334

>  <r_lp_Energy>  (1) 
18.856047999999998

>  <s_epik_Chemistry_Notes>  (1) 
This compound contains an acetal/aminal-like group ( X-CH(R)-Y where X, Y are N, S, or O) that may be acid/base labile, releasing an aldehyde.

>  <s_epik_cmdline>  (1) 
J2VwaWtfcHl0aG9uJywgJy1waHQnLCAnMS4wJywgJy1waCcsICc3LjQnLCAnLXRuJywgJzgnLCAnLW1hJywgJzUwMCcsICctaW1hZScsICc8aW5maWxlLm1hZT4nLCAnLW9tYWUnLCAnPG91dGZpbGUubWFlPic=

>  <s_epik_input>  (1) 
W0NIMl0xW0NIMl1bQ0hdKEYpW0NIMl1bQ0gyXU4xUyg9TykoPU8pW05IXVtOSF1bQ0BASF0oW0NIM10pQyg9W0NIMl0pW0NAQEhdKFtDSDNdKVtDQEBIXTJOKFtDQEBIXShbQ0gzXSlbQ0BIXShTMilPW0NIM10pW0NIMl1jM1tjSF1bY0hdYyhDbClbY0hdW2NIXTM=

>  <s_glide_docking_method>  (1) 
confgen

>  <s_i_glide_gridfile>  (1) 
gpcr_5ht2c_6bqh_protein_autoprepared_prepared

>  <s_lp_Force_Field>  (1) 
S-OPLS

>  <s_lp_Variant>  (1) 
DiffSBDD_22_num_sample_50-1

>  <s_m_source_file>  (1) 
generated__ligand_DiffSBDD_2026-05-06_prepared.sdf

>  <GenAI_Model>  (1) 
DiffSBDD

>  <Protein>  (1) 
GPCR_5HT2C

$$$$
DiffSBDD_1_num_sample_50
     RDKit          3D

  0  0  0  0  0  0  0  0  0  0999 V3000
M  V30 BEGIN CTAB
M  V30 COUNTS 32 31 0 0 1
M  V30 BEGIN ATOM
M  V30 1 C 40.911430 30.421435 50.351046 0
M  V30 2 C 40.113171 29.649995 51.409520 0
M  V30 3 C 38.674677 31.302923 55.652713 0
M  V30 4 C 37.901069 30.809339 54.427906 0
M  V30 5 N 36.361603 32.888969 59.053502 0 CHG=1
M  V30 6 C 38.675651 29.834502 53.520503 0
M  V30 7 C 39.775323 30.489625 52.656810 0
M  V30 8 C 38.455108 32.698502 57.693661 0
M  V30 9 N 37.867404 32.289240 56.400932 0 CHG=1
M  V30 10 C 37.512015 33.617604 58.488117 0
M  V30 11 H 41.067407 29.809605 49.463104 0
M  V30 12 H 41.888518 30.731757 50.718157 0
M  V30 13 H 40.375226 31.315464 50.032452 0
M  V30 14 H 39.190633 29.308813 50.937372 0
M  V30 15 H 40.655306 28.750084 51.700870 0
M  V30 16 H 38.919448 30.456863 56.296466 0
M  V30 17 H 39.616106 31.764780 55.351140 0
M  V30 18 H 37.567543 31.671013 53.853501 0
M  V30 19 H 36.990769 30.313425 54.769738 0
M  V30 20 H 35.736967 33.536803 59.512833 0
M  V30 21 H 35.850901 32.421430 58.297696 0
M  V30 22 H 37.945230 29.361255 52.863135 0
M  V30 23 H 39.100194 29.020849 54.109721 0
M  V30 24 H 40.667403 30.654991 53.259459 0
M  V30 25 H 39.467402 31.483228 52.332947 0
M  V30 26 H 38.707035 31.817720 58.286325 0
M  V30 27 H 39.391359 33.221414 57.492708 0
M  V30 28 H 37.735018 33.104188 55.817034 0
M  V30 29 H 38.055066 34.083220 59.311390 0
M  V30 30 H 37.145758 34.421499 57.853508 0
M  V30 31 H 36.925311 31.916826 56.565169 0
M  V30 32 H 36.670989 32.193552 59.715933 0
M  V30 END ATOM
M  V30 BEGIN BOND
M  V30 1 1 2 1
M  V30 2 1 4 3
M  V30 3 1 6 4
M  V30 4 1 7 2
M  V30 5 1 7 6
M  V30 6 1 9 3
M  V30 7 1 9 8
M  V30 8 1 10 5
M  V30 9 1 10 8
M  V30 10 1 11 1
M  V30 11 1 12 1
M  V30 12 1 13 1
M  V30 13 1 14 2
M  V30 14 1 15 2
M  V30 15 1 16 3
M  V30 16 1 17 3
M  V30 17 1 18 4
M  V30 18 1 19 4
M  V30 19 1 20 5
M  V30 20 1 21 5
M  V30 21 1 22 6
M  V30 22 1 23 6
M  V30 23 1 24 7
M  V30 24 1 25 7
M  V30 25 1 26 8
M  V30 26 1 27 8
M  V30 27 1 28 9
M  V30 28 1 29 10
M  V30 29 1 30 10
M  V30 30 1 31 9
M  V30 31 1 32 5
M  V30 END BOND
M  V30 END CTAB
M  END
>  <i_epik_Tot_Q>  (1) 
2

>  <i_epik_Tot_abs_Q>  (1) 
2

>  <i_i_glide_confnum>  (1) 
183

>  <i_i_glide_lignum>  (1) 
6

>  <i_i_glide_posenum>  (1) 
303

>  <i_i_glide_rotatable_bonds>  (1) 
7

>  <i_lp_mmshare_version>  (1) 
72125

>  <i_m_source_file_index>  (1) 
2

>  <i_f3d_flags>  (1) 
0

>  <num_sample>  (1) 
50

>  <b_lp_Chiralities_Consistent>  (1) 
1

>  <r_epik_Charging_Adjusted_Penalty>  (1) 
1.9336856173291923

>  <r_epik_Ionization_Penalty>  (1) 
1.0728538162779453

>  <r_epik_Ionization_Penalty_Charging>  (1) 
1.0728538162779453

>  <r_epik_Ionization_Penalty_Neutral>  (1) 
0

>  <r_epik_State_Penalty>  (1) 
0.86083180105124713

>  <r_glide_ring_energy>  (1) 
0

>  <r_i_docking_score>  (1) 
-3.9919170434242948

>  <r_i_glide_ecoul>  (1) 
-9.8686945572796212

>  <r_i_glide_eff_state_penalty>  (1) 
0.86083180105124713

>  <r_i_glide_einternal>  (1) 
3.3205451283597807

>  <r_i_glide_emodel>  (1) 
-38.23218923019995

>  <r_i_glide_emodel_strain>  (1) 
0.1325992199324752

>  <r_i_glide_energy>  (1) 
-24.764761167329276

>  <r_i_glide_erotb>  (1) 
2.3802894998601309

>  <r_i_glide_esite>  (1) 
-0.20000000000000001

>  <r_i_glide_evdw>  (1) 
-14.896066610049655

>  <r_i_glide_gscore>  (1) 
-4.852748844475542

>  <r_i_glide_gscore_strain>  (1) 
0

>  <r_i_glide_hbond>  (1) 
-0.40000000000000002

>  <r_i_glide_ligand_efficiency>  (1) 
-0.39919170434242945

>  <r_i_glide_ligand_efficiency_ln>  (1) 
-1.2087249627246748

>  <r_i_glide_ligand_efficiency_sa>  (1) 
-0.86003245580828147

>  <r_i_glide_lipo>  (1) 
-1.1644911562001981

>  <r_i_glide_metal>  (1) 
-0

>  <r_i_glide_rewards>  (1) 
-3.2434396740410487

>  <r_lp_Energy>  (1) 
19.796144999999999

>  <s_epik_cmdline>  (1) 
J2VwaWtfcHl0aG9uJywgJy1waHQnLCAnMS4wJywgJy1waCcsICc3LjQnLCAnLXRuJywgJzgnLCAnLW1hJywgJzUwMCcsICctaW1hZScsICc8aW5maWxlLm1hZT4nLCAnLW9tYWUnLCAnPG91dGZpbGUubWFlPic=

>  <s_epik_input>  (1) 
W0NIM11bQ0gyXVtDSDJdW0NIMl1bQ0gyXVtDSDJdW05IXVtDSDJdW0NIMl1bTkgyXQ==

>  <s_glide_docking_method>  (1) 
confgen

>  <s_i_glide_gridfile>  (1) 
gpcr_5ht2c_6bqh_protein_autoprepared_prepared

>  <s_lp_Force_Field>  (1) 
S-OPLS

>  <s_lp_Variant>  (1) 
DiffSBDD_1_num_sample_50-2

>  <s_m_source_file>  (1) 
generated__ligand_DiffSBDD_2026-05-06_prepared.sdf

>  <GenAI_Model>  (1) 
DiffSBDD

>  <Protein>  (1) 
GPCR_5HT2C

$$$$
DiffSBDD_1_num_sample_50
     RDKit          3D

  0  0  0  0  0  0  0  0  0  0999 V3000
M  V30 BEGIN CTAB
M  V30 COUNTS 32 31 0 0 1
M  V30 BEGIN ATOM
M  V30 1 C 39.714207 29.721509 50.271954 0
M  V30 2 C 40.628635 30.048204 51.453548 0
M  V30 3 C 38.732371 31.318307 55.643318 0
M  V30 4 C 38.030357 30.840643 54.367876 0
M  V30 5 N 36.352993 32.886306 59.053508 0 CHG=1
M  V30 6 C 38.908399 30.001410 53.411740 0
M  V30 7 C 39.934191 30.821429 52.597675 0
M  V30 8 C 38.446082 32.685968 57.690604 0
M  V30 9 N 37.867403 32.251181 56.400329 0 CHG=1
M  V30 10 C 37.502929 33.610368 58.481768 0
M  V30 11 H 40.267420 29.221718 49.476541 0
M  V30 12 H 39.291120 30.634944 49.853500 0
M  V30 13 H 38.897506 29.061872 50.563274 0
M  V30 14 H 41.067402 29.127701 51.835789 0
M  V30 15 H 41.452265 30.646386 51.056654 0
M  V30 16 H 38.989676 30.459996 56.265606 0
M  V30 17 H 39.664717 31.827384 55.394882 0
M  V30 18 H 37.633872 31.712532 53.853489 0
M  V30 19 H 37.160569 30.246520 54.653721 0
M  V30 20 H 35.732209 33.535902 59.515494 0
M  V30 21 H 35.838902 32.421430 58.298269 0
M  V30 22 H 38.243008 29.486375 52.719921 0
M  V30 23 H 39.418725 29.212947 53.966008 0
M  V30 24 H 40.689171 31.202575 53.282831 0
M  V30 25 H 39.467404 31.704930 52.170422 0
M  V30 26 H 38.708040 31.814065 58.291903 0
M  V30 27 H 39.377535 33.215505 57.484032 0
M  V30 28 H 37.695303 33.063152 55.822466 0
M  V30 29 H 38.049813 34.072698 59.304378 0
M  V30 30 H 37.140220 34.421428 57.853525 0
M  V30 31 H 36.943907 31.835222 56.564403 0
M  V30 32 H 36.663433 32.189468 59.713922 0
M  V30 END ATOM
M  V30 BEGIN BOND
M  V30 1 1 2 1
M  V30 2 1 4 3
M  V30 3 1 6 4
M  V30 4 1 7 2
M  V30 5 1 7 6
M  V30 6 1 9 3
M  V30 7 1 9 8
M  V30 8 1 10 5
M  V30 9 1 10 8
M  V30 10 1 11 1
M  V30 11 1 12 1
M  V30 12 1 13 1
M  V30 13 1 14 2
M  V30 14 1 15 2
M  V30 15 1 16 3
M  V30 16 1 17 3
M  V30 17 1 18 4
M  V30 18 1 19 4
M  V30 19 1 20 5
M  V30 20 1 21 5
M  V30 21 1 22 6
M  V30 22 1 23 6
M  V30 23 1 24 7
M  V30 24 1 25 7
M  V30 25 1 26 8
M  V30 26 1 27 8
M  V30 27 1 28 9
M  V30 28 1 29 10
M  V30 29 1 30 10
M  V30 30 1 31 9
M  V30 31 1 32 5
M  V30 END BOND
M  V30 END CTAB
M  END
>  <i_epik_Tot_Q>  (1) 
2

>  <i_epik_Tot_abs_Q>  (1) 
2

>  <i_i_glide_confnum>  (1) 
183

>  <i_i_glide_lignum>  (1) 
6

>  <i_i_glide_posenum>  (1) 
303

>  <i_i_glide_rotatable_bonds>  (1) 
7

>  <i_lp_mmshare_version>  (1) 
72125

>  <i_m_source_file_index>  (1) 
2

>  <i_f3d_flags>  (1) 
0

>  <num_sample>  (1) 
50

>  <b_lp_Chiralities_Consistent>  (1) 
1

>  <r_epik_Charging_Adjusted_Penalty>  (1) 
1.9336856173291923

>  <r_epik_Ionization_Penalty>  (1) 
1.0728538162779453

>  <r_epik_Ionization_Penalty_Charging>  (1) 
1.0728538162779453

>  <r_epik_Ionization_Penalty_Neutral>  (1) 
0

>  <r_epik_State_Penalty>  (1) 
0.86083180105124713

>  <r_glide_ring_energy>  (1) 
0

>  <r_i_docking_score>  (1) 
-3.9424507803787399

>  <r_i_glide_ecoul>  (1) 
-9.8243966901616382

>  <r_i_glide_eff_state_penalty>  (1) 
0.86083180105124713

>  <r_i_glide_einternal>  (1) 
2.6731817269987022

>  <r_i_glide_emodel>  (1) 
-37.139439777131656

>  <r_i_glide_emodel_strain>  (1) 
0

>  <r_i_glide_energy>  (1) 
-23.371285929629153

>  <r_i_glide_erotb>  (1) 
2.3802894998601309

>  <r_i_glide_esite>  (1) 
-0.20000000000000001

>  <r_i_glide_evdw>  (1) 
-13.546889239467516

>  <r_i_glide_gscore>  (1) 
-4.8032825814299871

>  <r_i_glide_gscore_strain>  (1) 
0

>  <r_i_glide_hbond>  (1) 
-0.40000000000000002

>  <r_i_glide_ligand_efficiency>  (1) 
-0.39424507803787401

>  <r_i_glide_ligand_efficiency_ln>  (1) 
-1.1937469192669936

>  <r_i_glide_ligand_efficiency_sa>  (1) 
-0.84937527249912292

>  <r_i_glide_lipo>  (1) 
-1.0838190341454803

>  <r_i_glide_metal>  (1) 
-0

>  <r_i_glide_rewards>  (1) 
-3.348749081647016

>  <r_lp_Energy>  (1) 
19.796144999999999

>  <s_epik_cmdline>  (1) 
J2VwaWtfcHl0aG9uJywgJy1waHQnLCAnMS4wJywgJy1waCcsICc3LjQnLCAnLXRuJywgJzgnLCAnLW1hJywgJzUwMCcsICctaW1hZScsICc8aW5maWxlLm1hZT4nLCAnLW9tYWUnLCAnPG91dGZpbGUubWFlPic=

>  <s_epik_input>  (1) 
W0NIM11bQ0gyXVtDSDJdW0NIMl1bQ0gyXVtDSDJdW05IXVtDSDJdW0NIMl1bTkgyXQ==

>  <s_glide_docking_method>  (1) 
confgen

>  <s_i_glide_gridfile>  (1) 
gpcr_5ht2c_6bqh_protein_autoprepared_prepared

>  <s_lp_Force_Field>  (1) 
S-OPLS

>  <s_lp_Variant>  (1) 
DiffSBDD_1_num_sample_50-2

>  <s_m_source_file>  (1) 
generated__ligand_DiffSBDD_2026-05-06_prepared.sdf

>  <GenAI_Model>  (1) 
DiffSBDD

>  <Protein>  (1) 
GPCR_5HT2C

$$$$
DiffSBDD_0_num_sample_50
     RDKit          3D

  0  0  0  0  0  0  0  0  0  0999 V3000
M  V30 BEGIN CTAB
M  V30 COUNTS 65 69 0 0 1
M  V30 BEGIN ATOM
M  V30 1 C 40.023138 30.102339 51.600973 0
M  V30 2 C 39.467419 30.000542 52.886495 0
M  V30 3 C 37.987302 28.789576 54.586121 0
M  V30 4 S 37.702263 32.870565 61.853500 0
M  V30 5 O 41.467390 31.978515 61.053520 0
M  V30 6 C 38.341708 32.203887 56.609642 0
M  V30 7 C 40.654366 31.734938 64.303918 0
M  V30 8 C 38.409857 27.892722 52.259925 0
M  V30 9 C 37.860281 31.266450 55.456784 0
M  V30 10 C 36.872657 36.021470 62.232192 0
M  V30 11 C 38.808230 35.273800 61.454064 0
M  V30 12 F 40.279258 29.221410 49.404604 0
M  V30 13 C 38.979061 27.993772 50.982097 0
M  V30 14 C 38.970463 36.521857 61.844677 0
M  V30 15 C 37.338262 34.713917 61.476171 0 CFG=1
M  V30 16 C 39.814623 28.945940 59.702582 0
M  V30 17 C 40.117418 29.899756 62.461968 0
M  V30 18 O 40.924119 29.221397 59.204321 0
M  V30 19 C 40.253802 31.952115 61.231959 0
M  V30 20 C 40.667490 29.304304 64.856780 0
M  V30 21 C 38.957108 30.108989 60.226079 0 CFG=2
M  V30 22 C 38.393936 29.805415 55.662319 0 CFG=1
M  V30 23 C 40.029985 30.370784 63.947093 0
M  V30 24 N 37.686475 30.452552 57.959681 0 CFG=1 CHG=1
M  V30 25 C 39.821775 34.375793 61.194755 0
M  V30 26 C 38.292894 31.045550 59.146853 0 CFG=2
M  V30 27 C 39.406923 33.143187 61.328139 0
M  V30 28 N 39.572343 30.797566 61.408611 0
M  V30 29 C 38.828149 31.364954 57.780937 0 CFG=2
M  V30 30 C 38.640641 28.898131 53.215575 0
M  V30 31 O 39.302656 27.808900 59.743475 0 CHG=-1
M  V30 32 C 37.996321 29.289830 57.085966 0
M  V30 33 C 39.770883 29.106122 50.647302 0
M  V30 34 C 37.778702 36.981941 62.323004 0
M  V30 35 H 40.638744 30.951946 51.343635 0
M  V30 36 H 39.669142 30.770601 53.608018 0
M  V30 37 H 38.211665 27.786645 54.952105 0
M  V30 38 H 36.907296 28.825471 54.447119 0
M  V30 39 H 37.553926 32.893248 56.921343 0
M  V30 40 H 39.179654 32.811240 56.264921 0
M  V30 41 H 41.680659 31.812890 63.944304 0
M  V30 42 H 40.081991 32.567910 63.902111 0
M  V30 43 H 40.673177 31.882885 65.383896 0
M  V30 44 H 37.786673 27.045212 52.505726 0
M  V30 45 H 36.772753 31.220798 55.447562 0
M  V30 46 H 38.102659 31.715866 54.497572 0
M  V30 47 H 35.867402 36.117749 62.600245 0
M  V30 48 H 38.792959 27.224808 50.250719 0
M  V30 49 H 39.918400 37.031674 61.939829 0
M  V30 50 H 36.923543 34.764606 60.468555 0
M  V30 51 H 39.596747 28.942085 62.408942 0
M  V30 52 H 41.157708 29.669948 62.225347 0
M  V30 53 H 41.748714 29.263180 64.717400 0
M  V30 54 H 40.474717 29.516631 65.908811 0
M  V30 55 H 40.274246 28.308681 64.651900 0
M  V30 56 H 38.085157 29.621398 60.655643 0
M  V30 57 H 39.484126 29.840955 55.644472 0
M  V30 58 H 38.972834 30.421422 64.202093 0
M  V30 59 H 40.842146 34.655259 60.978066 0
M  V30 60 H 37.518172 31.701579 59.522652 0
M  V30 61 H 39.757324 30.841742 57.555522 0
M  V30 62 H 37.072159 28.718490 57.053252 0
M  V30 63 H 38.752579 28.597599 57.433857 0
M  V30 64 H 37.618365 37.940965 62.784506 0
M  V30 65 H 36.853417 30.951088 57.647688 0
M  V30 END ATOM
M  V30 BEGIN BOND
M  V30 1 2 2 1
M  V30 2 1 9 6
M  V30 3 1 13 8
M  V30 4 2 14 11
M  V30 5 1 15 4
M  V30 6 1 15 10
M  V30 7 1 15 11
M  V30 8 2 18 16
M  V30 9 2 19 5
M  V30 10 1 21 16
M  V30 11 1 22 3
M  V30 12 1 22 9
M  V30 13 1 23 7
M  V30 14 1 23 17
M  V30 15 1 23 20
M  V30 16 1 25 11
M  V30 17 1 26 21
M  V30 18 1 26 24
M  V30 19 1 27 4
M  V30 20 1 27 19
M  V30 21 2 27 25
M  V30 22 1 28 17
M  V30 23 1 28 19
M  V30 24 1 28 21
M  V30 25 1 29 6
M  V30 26 1 29 24
M  V30 27 1 29 26
M  V30 28 1 30 2
M  V30 29 1 30 3
M  V30 30 2 30 8
M  V30 31 1 31 16
M  V30 32 1 32 22
M  V30 33 1 32 24
M  V30 34 1 33 1
M  V30 35 1 33 12
M  V30 36 2 33 13
M  V30 37 2 34 10
M  V30 38 1 34 14
M  V30 39 1 35 1
M  V30 40 1 36 2
M  V30 41 1 37 3
M  V30 42 1 38 3
M  V30 43 1 39 6
M  V30 44 1 40 6
M  V30 45 1 41 7
M  V30 46 1 42 7
M  V30 47 1 43 7
M  V30 48 1 44 8
M  V30 49 1 45 9
M  V30 50 1 46 9
M  V30 51 1 47 10
M  V30 52 1 48 13
M  V30 53 1 49 14
M  V30 54 1 15 50 CFG=3
M  V30 55 1 51 17
M  V30 56 1 52 17
M  V30 57 1 53 20
M  V30 58 1 54 20
M  V30 59 1 55 20
M  V30 60 1 21 56 CFG=1
M  V30 61 1 22 57 CFG=1
M  V30 62 1 58 23
M  V30 63 1 59 25
M  V30 64 1 26 60 CFG=1
M  V30 65 1 29 61 CFG=1
M  V30 66 1 62 32
M  V30 67 1 63 32
M  V30 68 1 64 34
M  V30 69 1 24 65 CFG=3
M  V30 END BOND
M  V30 END CTAB
M  END
>  <i_epik_Tot_Q>  (1) 
0

>  <i_epik_Tot_abs_Q>  (1) 
2

>  <i_i_glide_confnum>  (1) 
173

>  <i_i_glide_lignum>  (1) 
3

>  <i_i_glide_posenum>  (1) 
310

>  <i_i_glide_rotatable_bonds>  (1) 
9

>  <i_lp_mmshare_version>  (1) 
72125

>  <i_m_source_file_index>  (1) 
1

>  <i_f3d_flags>  (1) 
0

>  <num_sample>  (1) 
50

>  <b_lp_Chiralities_Consistent>  (1) 
1

>  <r_epik_Charging_Adjusted_Penalty>  (1) 
0.0020295482604282666

>  <r_epik_Ionization_Penalty>  (1) 
0.0020295482639142975

>  <r_epik_Ionization_Penalty_Charging>  (1) 
0.0020295482604282666

>  <r_epik_Ionization_Penalty_Neutral>  (1) 
3.4860309872641501e-12

>  <r_epik_State_Penalty>  (1) 
-0

>  <r_glide_ring_energy>  (1) 
1.5402731440392987

>  <r_i_docking_score>  (1) 
-3.8643278148377727

>  <r_i_glide_ecoul>  (1) 
-6.7096874929679347

>  <r_i_glide_eff_state_penalty>  (1) 
-0

>  <r_i_glide_einternal>  (1) 
11.498226584414155

>  <r_i_glide_emodel>  (1) 
-52.527303632277871

>  <r_i_glide_emodel_strain>  (1) 
0.066524261700322995

>  <r_i_glide_energy>  (1) 
-43.60043832215662

>  <r_i_glide_erotb>  (1) 
0.52278502944784222

>  <r_i_glide_esite>  (1) 
-0.08236497675773545

>  <r_i_glide_evdw>  (1) 
-36.890750829188683

>  <r_i_glide_gscore>  (1) 
-3.8643278148377727

>  <r_i_glide_gscore_strain>  (1) 
0

>  <r_i_glide_hbond>  (1) 
-0.23324103539227398

>  <r_i_glide_ligand_efficiency>  (1) 
-0.11365670043640508

>  <r_i_glide_ligand_efficiency_ln>  (1) 
-0.85373840502143172

>  <r_i_glide_ligand_efficiency_sa>  (1) 
-0.36820358802803765

>  <r_i_glide_lipo>  (1) 
-3.8965893022151659

>  <r_i_glide_metal>  (1) 
-0

>  <r_i_glide_rewards>  (1) 
2.6760731354841858

>  <r_lp_Energy>  (1) 
73.777939000000003

>  <r_lp_tautomer_probability>  (1) 
1

>  <s_epik_cmdline>  (1) 
J2VwaWtfcHl0aG9uJywgJy1waHQnLCAnMS4wJywgJy1waCcsICc3LjQnLCAnLXRuJywgJzgnLCAnLW1hJywgJzUwMCcsICctaW1hZScsICc8aW5maWxlLm1hZT4nLCAnLW9tYWUnLCAnPG91dGZpbGUubWFlPic=

>  <s_epik_input>  (1) 
W2NIXTFbY0hdYyhGKVtjSF1bY0hdYzFbQ0gyXVtDQEhdKFtDSDJdMilbQ0gyXVtDSDJdW0NIXShOMjMpW0NAQEhdM1tDQEBIXShDKD1PKVtPSF0pTihbQ0gyXVtDSF0oW0NIM10pW0NIM10pQyg9TylDKD1bQ0hdNClTW0NASF0oQzQ9NSlbQ0hdPVtDSF1bQ0hdNQ==

>  <s_glide_docking_method>  (1) 
confgen

>  <s_i_glide_gridfile>  (1) 
gpcr_5ht2c_6bqh_protein_autoprepared_prepared

>  <s_lp_Force_Field>  (1) 
S-OPLS

>  <s_lp_Variant>  (1) 
DiffSBDD_0_num_sample_50-3

>  <s_m_source_file>  (1) 
generated__ligand_DiffSBDD_2026-05-06_prepared.sdf

>  <GenAI_Model>  (1) 
DiffSBDD

>  <Protein>  (1) 
GPCR_5HT2C

$$$$
DiffSBDD_0_num_sample_50
     RDKit          3D

  0  0  0  0  0  0  0  0  0  0999 V3000
M  V30 BEGIN CTAB
M  V30 COUNTS 65 69 0 0 1
M  V30 BEGIN ATOM
M  V30 1 C 40.125528 29.353204 51.679101 0
M  V30 2 C 39.917903 30.415578 52.582293 0
M  V30 3 C 38.602534 31.562479 54.438958 0
M  V30 4 S 38.701025 27.126851 55.904258 0
M  V30 5 O 38.667408 27.457259 59.849531 0
M  V30 6 C 38.167166 32.750440 58.121321 0
M  V30 7 C 41.928659 27.621426 59.501302 0
M  V30 8 C 37.985685 29.247120 53.506194 0
M  V30 9 C 38.350888 32.781071 56.601870 0
M  V30 10 C 37.067430 24.701638 54.520985 0
M  V30 11 C 37.386769 24.980417 56.679163 0
M  V30 12 F 39.467398 27.221534 50.825817 0
M  V30 13 C 38.199873 28.185879 52.605054 0
M  V30 14 C 37.067395 23.731733 56.478055 0
M  V30 15 C 37.326708 25.920879 55.438500 0 CFG=1
M  V30 16 C 39.847664 30.072088 60.460781 0
M  V30 17 C 40.854209 28.592463 57.536242 0
M  V30 18 O 41.013410 30.468579 60.653475 0
M  V30 19 C 38.895626 27.591710 58.667375 0
M  V30 20 C 43.224991 27.591679 57.453486 0
M  V30 21 C 39.284018 29.917496 58.998381 0 CFG=2
M  V30 22 C 38.617896 31.403879 55.982476 0 CFG=1
M  V30 23 C 41.791936 27.475073 58.014054 0
M  V30 24 N 37.067405 30.421436 57.853861 0 CFG=1 CHG=1
M  V30 25 C 37.827058 25.530855 57.844861 0
M  V30 26 C 37.797547 30.270178 59.076924 0 CFG=2
M  V30 27 C 38.434566 26.657647 57.623482 0
M  V30 28 N 39.546102 28.670511 58.209900 0
M  V30 29 C 37.268694 31.632347 58.669798 0 CFG=1
M  V30 30 C 38.850380 30.369395 53.500378 0
M  V30 31 O 39.067442 29.864313 61.413062 0 CHG=-1
M  V30 32 C 37.556600 30.405336 56.453623 0
M  V30 33 C 39.268021 28.239252 51.692820 0
M  V30 34 C 36.878075 23.550390 55.142870 0
M  V30 35 H 40.945465 29.394458 50.975706 0
M  V30 36 H 40.574561 31.271579 52.560738 0
M  V30 37 H 37.648632 31.996928 54.137476 0
M  V30 38 H 39.345982 32.320899 54.203755 0
M  V30 39 H 37.744324 33.704361 58.436636 0
M  V30 40 H 39.136241 32.714812 58.612699 0
M  V30 41 H 42.267410 28.620607 59.683223 0
M  V30 42 H 41.045320 27.552918 60.120662 0
M  V30 43 H 42.667412 26.894439 59.844885 0
M  V30 44 H 37.153916 29.204675 54.185618 0
M  V30 45 H 37.466553 33.217066 56.147719 0
M  V30 46 H 39.155699 33.464795 56.340072 0
M  V30 47 H 36.991292 24.828054 53.454047 0
M  V30 48 H 37.539674 27.333466 52.609643 0
M  V30 49 H 37.067370 22.954742 57.228337 0
M  V30 50 H 36.371689 26.421432 55.477496 0
M  V30 51 H 40.793720 28.660174 56.451751 0
M  V30 52 H 41.345624 29.484242 57.864076 0
M  V30 53 H 43.451464 28.588687 57.074444 0
M  V30 54 H 43.993235 27.350973 58.189388 0
M  V30 55 H 43.391154 26.870404 56.662947 0
M  V30 56 H 39.682933 30.674251 58.364159 0
M  V30 57 H 39.608243 31.061415 56.276184 0
M  V30 58 H 41.388341 26.489286 57.780846 0
M  V30 59 H 37.662621 25.104473 58.803240 0
M  V30 60 H 37.182589 29.668167 59.744373 0
M  V30 61 H 36.301531 31.948627 59.055417 0
M  V30 62 H 36.667540 30.520544 55.840357 0
M  V30 63 H 37.891392 29.419679 56.248242 0
M  V30 64 H 36.667367 22.607899 54.663076 0
M  V30 65 H 36.073163 30.237903 57.898611 0
M  V30 END ATOM
M  V30 BEGIN BOND
M  V30 1 2 2 1
M  V30 2 1 9 6
M  V30 3 1 13 8
M  V30 4 2 14 11
M  V30 5 1 15 4
M  V30 6 1 15 10
M  V30 7 1 15 11
M  V30 8 2 18 16
M  V30 9 2 19 5
M  V30 10 1 21 16
M  V30 11 1 22 3
M  V30 12 1 22 9
M  V30 13 1 23 7
M  V30 14 1 23 17
M  V30 15 1 23 20
M  V30 16 1 25 11
M  V30 17 1 26 21
M  V30 18 1 26 24
M  V30 19 1 27 4
M  V30 20 1 27 19
M  V30 21 2 27 25
M  V30 22 1 28 17
M  V30 23 1 28 19
M  V30 24 1 28 21
M  V30 25 1 29 6
M  V30 26 1 29 24
M  V30 27 1 29 26
M  V30 28 1 30 2
M  V30 29 1 30 3
M  V30 30 2 30 8
M  V30 31 1 31 16
M  V30 32 1 32 22
M  V30 33 1 32 24
M  V30 34 1 33 1
M  V30 35 1 33 12
M  V30 36 2 33 13
M  V30 37 2 34 10
M  V30 38 1 34 14
M  V30 39 1 35 1
M  V30 40 1 36 2
M  V30 41 1 37 3
M  V30 42 1 38 3
M  V30 43 1 39 6
M  V30 44 1 40 6
M  V30 45 1 41 7
M  V30 46 1 42 7
M  V30 47 1 43 7
M  V30 48 1 44 8
M  V30 49 1 45 9
M  V30 50 1 46 9
M  V30 51 1 47 10
M  V30 52 1 48 13
M  V30 53 1 49 14
M  V30 54 1 15 50 CFG=1
M  V30 55 1 51 17
M  V30 56 1 52 17
M  V30 57 1 53 20
M  V30 58 1 54 20
M  V30 59 1 55 20
M  V30 60 1 21 56 CFG=3
M  V30 61 1 22 57 CFG=1
M  V30 62 1 58 23
M  V30 63 1 59 25
M  V30 64 1 26 60 CFG=1
M  V30 65 1 29 61 CFG=1
M  V30 66 1 62 32
M  V30 67 1 63 32
M  V30 68 1 64 34
M  V30 69 1 24 65 CFG=3
M  V30 END BOND
M  V30 END CTAB
M  END
>  <i_epik_Tot_Q>  (1) 
0

>  <i_epik_Tot_abs_Q>  (1) 
2

>  <i_i_glide_confnum>  (1) 
36

>  <i_i_glide_lignum>  (1) 
1

>  <i_i_glide_posenum>  (1) 
9

>  <i_i_glide_rotatable_bonds>  (1) 
9

>  <i_lp_mmshare_version>  (1) 
72125

>  <i_m_source_file_index>  (1) 
1

>  <i_f3d_flags>  (1) 
0

>  <num_sample>  (1) 
50

>  <b_lp_Chiralities_Consistent>  (1) 
1

>  <r_epik_Charging_Adjusted_Penalty>  (1) 
0.0020295482604282666

>  <r_epik_Ionization_Penalty>  (1) 
0.0020295482639142975

>  <r_epik_Ionization_Penalty_Charging>  (1) 
0.0020295482604282666

>  <r_epik_Ionization_Penalty_Neutral>  (1) 
3.4860309872641501e-12

>  <r_epik_State_Penalty>  (1) 
-0

>  <r_glide_ring_energy>  (1) 
0

>  <r_i_docking_score>  (1) 
-3.8454557100626872

>  <r_i_glide_ecoul>  (1) 
-6.9789886180636067

>  <r_i_glide_eff_state_penalty>  (1) 
-0

>  <r_i_glide_einternal>  (1) 
18.124951724738658

>  <r_i_glide_emodel>  (1) 
-0.17230682420226273

>  <r_i_glide_emodel_strain>  (1) 
7.8113573222435946

>  <r_i_glide_energy>  (1) 
-7.5179024690309175

>  <r_i_glide_erotb>  (1) 
0.52278502944784222

>  <r_i_glide_esite>  (1) 
-0.10000000000000001

>  <r_i_glide_evdw>  (1) 
-0.53891385096731093

>  <r_i_glide_gscore>  (1) 
-3.8454557100626872

>  <r_i_glide_gscore_strain>  (1) 
0.95283933056089865

>  <r_i_glide_hbond>  (1) 
-0.11733846731843076

>  <r_i_glide_ligand_efficiency>  (1) 
-0.1131016385312555

>  <r_i_glide_ligand_efficiency_ln>  (1) 
-0.84956902773200649

>  <r_i_glide_ligand_efficiency_sa>  (1) 
-0.36640540292967549

>  <r_i_glide_lipo>  (1) 
-4.4107273191460497

>  <r_i_glide_metal>  (1) 
-0

>  <r_i_glide_rewards>  (1) 
0.38077970165095887

>  <r_lp_Energy>  (1) 
57.080993999999997

>  <r_lp_tautomer_probability>  (1) 
1

>  <s_epik_cmdline>  (1) 
J2VwaWtfcHl0aG9uJywgJy1waHQnLCAnMS4wJywgJy1waCcsICc3LjQnLCAnLXRuJywgJzgnLCAnLW1hJywgJzUwMCcsICctaW1hZScsICc8aW5maWxlLm1hZT4nLCAnLW9tYWUnLCAnPG91dGZpbGUubWFlPic=

>  <s_epik_input>  (1) 
W2NIXTFbY0hdYyhGKVtjSF1bY0hdYzFbQ0gyXVtDQEhdKFtDSDJdMilbQ0gyXVtDSDJdW0NIXShOMjMpW0NAQEhdM1tDQEBIXShDKD1PKVtPSF0pTihbQ0gyXVtDSF0oW0NIM10pW0NIM10pQyg9TylDKD1bQ0hdNClTW0NASF0oQzQ9NSlbQ0hdPVtDSF1bQ0hdNQ==

>  <s_glide_docking_method>  (1) 
confgen

>  <s_i_glide_gridfile>  (1) 
gpcr_5ht2c_6bqh_protein_autoprepared_prepared

>  <s_lp_Force_Field>  (1) 
S-OPLS

>  <s_lp_Variant>  (1) 
DiffSBDD_0_num_sample_50-1

>  <s_m_source_file>  (1) 
generated__ligand_DiffSBDD_2026-05-06_prepared.sdf

>  <GenAI_Model>  (1) 
DiffSBDD

>  <Protein>  (1) 
GPCR_5HT2C

$$$$
DiffSBDD_0_num_sample_50
     RDKit          3D

  0  0  0  0  0  0  0  0  0  0999 V3000
M  V30 BEGIN CTAB
M  V30 COUNTS 65 69 0 0 1
M  V30 BEGIN ATOM
M  V30 1 C 39.557792 35.765309 62.592312 0
M  V30 2 C 39.816271 34.892175 61.520240 0
M  V30 3 C 39.094873 33.702380 59.395826 0
M  V30 4 S 37.612208 28.421485 52.990343 0
M  V30 5 O 37.066877 29.882617 55.789046 0
M  V30 6 C 37.899294 30.421429 60.989663 0
M  V30 7 C 39.867361 25.218749 56.837685 0
M  V30 8 C 37.578390 35.315609 60.637647 0
M  V30 9 C 38.060931 31.927074 60.958288 0
M  V30 10 C 39.454713 28.837084 50.309766 0
M  V30 11 C 39.867453 29.632901 52.332793 0
M  V30 12 F 38.054573 37.221442 63.733576 0
M  V30 13 C 37.323238 36.189085 61.711641 0
M  V30 14 C 40.520447 30.361996 51.453514 0
M  V30 15 C 39.093056 28.386177 51.776246 0 CFG=1
M  V30 16 C 39.936863 28.720315 58.841874 0
M  V30 17 C 39.769822 27.660564 56.146708 0
M  V30 18 O 41.067393 29.221433 59.005145 0
M  V30 19 C 38.148318 29.411753 55.494127 0
M  V30 20 C 37.932031 25.974978 55.439509 0
M  V30 21 C 38.987779 29.422247 57.845611 0 CFG=2
M  V30 22 C 38.600167 32.272468 59.586020 0 CFG=1
M  V30 23 C 38.943772 26.395601 56.518712 0
M  V30 24 N 36.868788 30.637761 58.653559 0 CFG=1 CHG=1
M  V30 25 C 39.712464 29.917243 53.674046 0
M  V30 26 C 37.544018 29.362882 58.467546 0 CFG=2
M  V30 27 C 38.653807 29.325764 54.140422 0
M  V30 28 N 39.021806 28.917579 56.426910 0
M  V30 29 C 37.039780 29.831399 59.853464 0 CFG=1
M  V30 30 C 38.823458 34.661084 60.543501 0
M  V30 31 O 39.509699 27.711770 59.445368 0 CHG=-1
M  V30 32 C 37.535655 31.951560 58.521730 0
M  V30 33 C 38.310195 36.408417 62.690570 0
M  V30 34 C 40.267400 29.876813 50.211861 0
M  V30 35 H 40.313000 35.935118 63.346180 0
M  V30 36 H 40.771511 34.392284 61.451936 0
M  V30 37 H 40.159950 33.702397 59.206901 0
M  V30 38 H 38.658904 34.021443 58.457955 0
M  V30 39 H 37.467670 30.201965 61.961282 0
M  V30 40 H 38.876421 29.940110 60.996106 0
M  V30 41 H 40.461268 24.951102 55.965835 0
M  V30 42 H 40.543556 25.467750 57.656162 0
M  V30 43 H 39.300868 24.338119 57.142431 0
M  V30 44 H 36.817682 35.142095 59.890908 0
M  V30 45 H 37.111898 32.428718 61.153425 0
M  V30 46 H 38.755435 32.223701 61.745017 0
M  V30 47 H 39.076964 28.292994 49.461508 0
M  V30 48 H 36.367624 36.684892 61.790022 0
M  V30 49 H 41.067426 31.262669 51.672336 0
M  V30 50 H 39.664556 27.482304 51.991479 0
M  V30 51 H 40.086607 27.564930 55.109355 0
M  V30 52 H 40.727196 27.666714 56.665607 0
M  V30 53 H 38.420050 25.815137 54.477564 0
M  V30 54 H 37.433248 25.044233 55.711849 0
M  V30 55 H 37.149463 26.719054 55.306398 0
M  V30 56 H 39.377001 30.428294 57.741765 0
M  V30 57 H 39.467413 31.641275 59.453400 0
M  V30 58 H 38.375685 26.593975 57.427410 0
M  V30 59 H 40.365249 30.559931 54.249621 0
M  V30 60 H 36.887157 28.625115 58.011809 0
M  V30 61 H 36.016384 29.621410 60.137866 0
M  V30 62 H 36.736339 32.688041 58.623972 0
M  V30 63 H 37.908612 32.071404 57.503846 0
M  V30 64 H 40.626663 30.304488 49.290784 0
M  V30 65 H 35.975422 30.619747 58.164192 0
M  V30 END ATOM
M  V30 BEGIN BOND
M  V30 1 2 2 1
M  V30 2 1 9 6
M  V30 3 1 13 8
M  V30 4 2 14 11
M  V30 5 1 15 4
M  V30 6 1 15 10
M  V30 7 1 15 11
M  V30 8 2 18 16
M  V30 9 2 19 5
M  V30 10 1 21 16
M  V30 11 1 22 3
M  V30 12 1 22 9
M  V30 13 1 23 7
M  V30 14 1 23 17
M  V30 15 1 23 20
M  V30 16 1 25 11
M  V30 17 1 26 21
M  V30 18 1 26 24
M  V30 19 1 27 4
M  V30 20 1 27 19
M  V30 21 2 27 25
M  V30 22 1 28 17
M  V30 23 1 28 19
M  V30 24 1 28 21
M  V30 25 1 29 6
M  V30 26 1 29 24
M  V30 27 1 29 26
M  V30 28 1 30 2
M  V30 29 1 30 3
M  V30 30 2 30 8
M  V30 31 1 31 16
M  V30 32 1 32 22
M  V30 33 1 32 24
M  V30 34 1 33 1
M  V30 35 1 33 12
M  V30 36 2 33 13
M  V30 37 2 34 10
M  V30 38 1 34 14
M  V30 39 1 35 1
M  V30 40 1 36 2
M  V30 41 1 37 3
M  V30 42 1 38 3
M  V30 43 1 39 6
M  V30 44 1 40 6
M  V30 45 1 41 7
M  V30 46 1 42 7
M  V30 47 1 43 7
M  V30 48 1 44 8
M  V30 49 1 45 9
M  V30 50 1 46 9
M  V30 51 1 47 10
M  V30 52 1 48 13
M  V30 53 1 49 14
M  V30 54 1 15 50 CFG=1
M  V30 55 1 51 17
M  V30 56 1 52 17
M  V30 57 1 53 20
M  V30 58 1 54 20
M  V30 59 1 55 20
M  V30 60 1 21 56 CFG=3
M  V30 61 1 22 57 CFG=3
M  V30 62 1 58 23
M  V30 63 1 59 25
M  V30 64 1 26 60 CFG=3
M  V30 65 1 29 61 CFG=1
M  V30 66 1 62 32
M  V30 67 1 63 32
M  V30 68 1 64 34
M  V30 69 1 24 65 CFG=3
M  V30 END BOND
M  V30 END CTAB
M  END
>  <i_epik_Tot_Q>  (1) 
0

>  <i_epik_Tot_abs_Q>  (1) 
2

>  <i_i_glide_confnum>  (1) 
65

>  <i_i_glide_lignum>  (1) 
1

>  <i_i_glide_posenum>  (1) 
50

>  <i_i_glide_rotatable_bonds>  (1) 
9

>  <i_lp_mmshare_version>  (1) 
72125

>  <i_m_source_file_index>  (1) 
1

>  <i_f3d_flags>  (1) 
0

>  <num_sample>  (1) 
50

>  <b_lp_Chiralities_Consistent>  (1) 
1

>  <r_epik_Charging_Adjusted_Penalty>  (1) 
0.0020295482604282666

>  <r_epik_Ionization_Penalty>  (1) 
0.0020295482639142975

>  <r_epik_Ionization_Penalty_Charging>  (1) 
0.0020295482604282666

>  <r_epik_Ionization_Penalty_Neutral>  (1) 
3.4860309872641501e-12

>  <r_epik_State_Penalty>  (1) 
-0

>  <r_glide_ring_energy>  (1) 
0

>  <r_i_docking_score>  (1) 
-3.8326442746011278

>  <r_i_glide_ecoul>  (1) 
-3.2233292814885615

>  <r_i_glide_eff_state_penalty>  (1) 
-0

>  <r_i_glide_einternal>  (1) 
31.086630195981037

>  <r_i_glide_emodel>  (1) 
-13.606729385826398

>  <r_i_glide_emodel_strain>  (1) 
19.745998917542749

>  <r_i_glide_energy>  (1) 
-39.399549927690607

>  <r_i_glide_erotb>  (1) 
0.52278502944784222

>  <r_i_glide_esite>  (1) 
-0.10000000000000001

>  <r_i_glide_evdw>  (1) 
-36.176220646202047

>  <r_i_glide_gscore>  (1) 
-3.8326442746011278

>  <r_i_glide_gscore_strain>  (1) 
3.9364997293856874

>  <r_i_glide_hbond>  (1) 
-0.11674569249399031

>  <r_i_glide_ligand_efficiency>  (1) 
-0.11272483160591552

>  <r_i_glide_ligand_efficiency_ln>  (1) 
-0.84673862228995522

>  <r_i_glide_ligand_efficiency_sa>  (1) 
-0.36518469476754101

>  <r_i_glide_lipo>  (1) 
-4.9394560043161606

>  <r_i_glide_metal>  (1) 
-0

>  <r_i_glide_rewards>  (1) 
-0.84341691209111913

>  <r_lp_Energy>  (1) 
57.080993999999997

>  <r_lp_tautomer_probability>  (1) 
1

>  <s_epik_cmdline>  (1) 
J2VwaWtfcHl0aG9uJywgJy1waHQnLCAnMS4wJywgJy1waCcsICc3LjQnLCAnLXRuJywgJzgnLCAnLW1hJywgJzUwMCcsICctaW1hZScsICc8aW5maWxlLm1hZT4nLCAnLW9tYWUnLCAnPG91dGZpbGUubWFlPic=

>  <s_epik_input>  (1) 
W2NIXTFbY0hdYyhGKVtjSF1bY0hdYzFbQ0gyXVtDQEhdKFtDSDJdMilbQ0gyXVtDSDJdW0NIXShOMjMpW0NAQEhdM1tDQEBIXShDKD1PKVtPSF0pTihbQ0gyXVtDSF0oW0NIM10pW0NIM10pQyg9TylDKD1bQ0hdNClTW0NASF0oQzQ9NSlbQ0hdPVtDSF1bQ0hdNQ==

>  <s_glide_docking_method>  (1) 
confgen

>  <s_i_glide_gridfile>  (1) 
gpcr_5ht2c_6bqh_protein_autoprepared_prepared

>  <s_lp_Force_Field>  (1) 
S-OPLS

>  <s_lp_Variant>  (1) 
DiffSBDD_0_num_sample_50-1

>  <s_m_source_file>  (1) 
generated__ligand_DiffSBDD_2026-05-06_prepared.sdf

>  <GenAI_Model>  (1) 
DiffSBDD

>  <Protein>  (1) 
GPCR_5HT2C

$$$$
DiffSBDD_0_num_sample_50
     RDKit          3D

  0  0  0  0  0  0  0  0  0  0999 V3000
M  V30 BEGIN CTAB
M  V30 COUNTS 65 69 0 0 1
M  V30 BEGIN ATOM
M  V30 1 C 39.068412 28.546299 51.750989 0
M  V30 2 C 39.142183 29.076669 53.038883 0
M  V30 3 C 39.779345 30.969270 54.620142 0
M  V30 4 S 38.157621 34.043293 61.453181 0
M  V30 5 O 41.268842 31.594461 61.241707 0
M  V30 6 C 38.570794 28.367204 57.194661 0
M  V30 7 C 40.905687 28.923352 63.110234 0
M  V30 8 C 40.235655 31.058506 52.138925 0
M  V30 9 C 39.592547 29.140667 56.374925 0
M  V30 10 C 38.472341 36.972746 62.743568 0
M  V30 11 C 40.110293 35.509078 62.439571 0
M  V30 12 F 39.485248 28.801827 49.453877 0
M  V30 13 C 40.163888 30.520498 50.864873 0
M  V30 14 C 40.475400 36.344170 63.382359 0
M  V30 15 C 38.746837 35.817787 61.719156 0 CFG=1
M  V30 16 C 36.566832 31.181216 60.515169 0
M  V30 17 C 38.907829 30.268591 62.243304 0
M  V30 18 O 36.175276 31.766343 61.540787 0
M  V30 19 C 40.138784 32.064902 61.319166 0
M  V30 20 C 40.215189 28.537575 60.695945 0
M  V30 21 C 38.029666 31.303063 60.081267 0 CFG=2
M  V30 22 C 38.869379 30.288162 55.650105 0 CFG=1
M  V30 23 C 39.748028 28.960227 62.097380 0
M  V30 24 N 37.583716 30.627925 57.752273 0 CFG=2 CHG=1
M  V30 25 C 40.713943 34.304573 62.159480 0
M  V30 26 C 38.472928 30.435615 58.893847 0 CFG=2
M  V30 27 C 39.856558 33.472020 61.644687 0
M  V30 28 N 39.026155 31.294941 61.189211 0
M  V30 29 C 37.835176 29.249858 58.185760 0 CFG=2
M  V30 30 C 39.723309 30.351382 53.237940 0
M  V30 31 O 35.867890 30.421458 59.835850 0 CHG=-1
M  V30 32 C 38.284168 31.293609 56.631346 0
M  V30 33 C 39.575101 29.280120 50.669491 0
M  V30 34 C 39.468452 37.242011 63.574951 0
M  V30 35 H 38.616400 27.577972 51.587871 0
M  V30 36 H 38.752567 28.512935 53.867574 0
M  V30 37 H 39.446270 32.000176 54.493097 0
M  V30 38 H 40.810408 31.030861 54.967363 0
M  V30 39 H 39.042823 27.548766 57.736494 0
M  V30 40 H 37.842528 27.914875 56.518761 0
M  V30 41 H 41.706573 29.610747 62.839919 0
M  V30 42 H 40.561270 29.189437 64.110585 0
M  V30 43 H 41.333590 27.924051 63.179156 0
M  V30 44 H 40.669466 32.021421 52.267363 0
M  V30 45 H 40.368277 29.523545 57.031040 0
M  V30 46 H 40.097553 28.469724 55.681240 0
M  V30 47 H 37.546699 37.528759 62.713903 0
M  V30 48 H 40.551000 31.073544 50.021595 0
M  V30 49 H 41.349905 36.242111 64.008854 0
M  V30 50 H 38.953790 36.257711 60.742089 0
M  V30 51 H 39.155482 30.740779 63.197590 0
M  V30 52 H 37.871460 30.022354 62.410906 0
M  V30 53 H 40.796291 29.306297 60.190326 0
M  V30 54 H 40.838803 27.643685 60.749966 0
M  V30 55 H 39.364244 28.267394 60.076659 0
M  V30 56 H 38.063404 32.284264 59.616267 0
M  V30 57 H 37.970589 29.914849 55.158833 0
M  V30 58 H 39.075995 28.150431 62.376019 0
M  V30 59 H 41.739130 34.056600 62.404322 0
M  V30 60 H 39.489016 30.612537 58.631745 0
M  V30 61 H 36.952568 28.785190 58.611979 0
M  V30 62 H 39.053672 31.975218 57.000168 0
M  V30 63 H 37.567136 31.933351 56.115059 0
M  V30 64 H 39.463916 38.016337 64.328511 0
M  V30 65 H 36.653121 30.974700 57.998197 0
M  V30 END ATOM
M  V30 BEGIN BOND
M  V30 1 2 2 1
M  V30 2 1 9 6
M  V30 3 1 13 8
M  V30 4 2 14 11
M  V30 5 1 15 4
M  V30 6 1 15 10
M  V30 7 1 15 11
M  V30 8 2 18 16
M  V30 9 2 19 5
M  V30 10 1 21 16
M  V30 11 1 22 3
M  V30 12 1 22 9
M  V30 13 1 23 7
M  V30 14 1 23 17
M  V30 15 1 23 20
M  V30 16 1 25 11
M  V30 17 1 26 21
M  V30 18 1 26 24
M  V30 19 1 27 4
M  V30 20 1 27 19
M  V30 21 2 27 25
M  V30 22 1 28 17
M  V30 23 1 28 19
M  V30 24 1 28 21
M  V30 25 1 29 6
M  V30 26 1 29 24
M  V30 27 1 29 26
M  V30 28 1 30 2
M  V30 29 1 30 3
M  V30 30 2 30 8
M  V30 31 1 31 16
M  V30 32 1 32 22
M  V30 33 1 32 24
M  V30 34 1 33 1
M  V30 35 1 33 12
M  V30 36 2 33 13
M  V30 37 2 34 10
M  V30 38 1 34 14
M  V30 39 1 35 1
M  V30 40 1 36 2
M  V30 41 1 37 3
M  V30 42 1 38 3
M  V30 43 1 39 6
M  V30 44 1 40 6
M  V30 45 1 41 7
M  V30 46 1 42 7
M  V30 47 1 43 7
M  V30 48 1 44 8
M  V30 49 1 45 9
M  V30 50 1 46 9
M  V30 51 1 47 10
M  V30 52 1 48 13
M  V30 53 1 49 14
M  V30 54 1 15 50 CFG=3
M  V30 55 1 51 17
M  V30 56 1 52 17
M  V30 57 1 53 20
M  V30 58 1 54 20
M  V30 59 1 55 20
M  V30 60 1 21 56 CFG=3
M  V30 61 1 22 57 CFG=3
M  V30 62 1 58 23
M  V30 63 1 59 25
M  V30 64 1 26 60 CFG=3
M  V30 65 1 29 61 CFG=1
M  V30 66 1 62 32
M  V30 67 1 63 32
M  V30 68 1 64 34
M  V30 69 1 24 65 CFG=1
M  V30 END BOND
M  V30 END CTAB
M  END
>  <i_epik_Tot_Q>  (1) 
0

>  <i_epik_Tot_abs_Q>  (1) 
2

>  <i_i_glide_confnum>  (1) 
116

>  <i_i_glide_lignum>  (1) 
4

>  <i_i_glide_posenum>  (1) 
68

>  <i_i_glide_rotatable_bonds>  (1) 
9

>  <i_lp_mmshare_version>  (1) 
72125

>  <i_m_source_file_index>  (1) 
1

>  <i_f3d_flags>  (1) 
0

>  <num_sample>  (1) 
50

>  <b_lp_Chiralities_Consistent>  (1) 
1

>  <r_epik_Charging_Adjusted_Penalty>  (1) 
0.0020295482604282666

>  <r_epik_Ionization_Penalty>  (1) 
0.0020295482639142975

>  <r_epik_Ionization_Penalty_Charging>  (1) 
0.0020295482604282666

>  <r_epik_Ionization_Penalty_Neutral>  (1) 
3.4860309872641501e-12

>  <r_epik_State_Penalty>  (1) 
-0

>  <r_glide_ring_energy>  (1) 
0

>  <r_i_docking_score>  (1) 
-3.8177703103372647

>  <r_i_glide_ecoul>  (1) 
-9.3071218902185731

>  <r_i_glide_eff_state_penalty>  (1) 
-0

>  <r_i_glide_einternal>  (1) 
38.457536712336335

>  <r_i_glide_emodel>  (1) 
-30.211047820363532

>  <r_i_glide_emodel_strain>  (1) 
2.8745735911250279

>  <r_i_glide_energy>  (1) 
-37.556148070971965

>  <r_i_glide_erotb>  (1) 
0.52278502944784222

>  <r_i_glide_esite>  (1) 
-0.15652847001328893

>  <r_i_glide_evdw>  (1) 
-28.24902618075339

>  <r_i_glide_gscore>  (1) 
-3.8177703103372647

>  <r_i_glide_gscore_strain>  (1) 
0

>  <r_i_glide_hbond>  (1) 
-0.41125846016064649

>  <r_i_glide_ligand_efficiency>  (1) 
-0.11228736206874308

>  <r_i_glide_ligand_efficiency_ln>  (1) 
-0.84345254638350187

>  <r_i_glide_ligand_efficiency_sa>  (1) 
-0.36376746329221776

>  <r_i_glide_lipo>  (1) 
-3.9697294084919275

>  <r_i_glide_metal>  (1) 
-0

>  <r_i_glide_rewards>  (1) 
3.005480591451211

>  <r_lp_Energy>  (1) 
54.523967999999996

>  <r_lp_tautomer_probability>  (1) 
1

>  <s_epik_cmdline>  (1) 
J2VwaWtfcHl0aG9uJywgJy1waHQnLCAnMS4wJywgJy1waCcsICc3LjQnLCAnLXRuJywgJzgnLCAnLW1hJywgJzUwMCcsICctaW1hZScsICc8aW5maWxlLm1hZT4nLCAnLW9tYWUnLCAnPG91dGZpbGUubWFlPic=

>  <s_epik_input>  (1) 
W2NIXTFbY0hdYyhGKVtjSF1bY0hdYzFbQ0gyXVtDQEhdKFtDSDJdMilbQ0gyXVtDSDJdW0NIXShOMjMpW0NAQEhdM1tDQEBIXShDKD1PKVtPSF0pTihbQ0gyXVtDSF0oW0NIM10pW0NIM10pQyg9TylDKD1bQ0hdNClTW0NASF0oQzQ9NSlbQ0hdPVtDSF1bQ0hdNQ==

>  <s_glide_docking_method>  (1) 
confgen

>  <s_i_glide_gridfile>  (1) 
gpcr_5ht2c_6bqh_protein_autoprepared_prepared

>  <s_lp_Force_Field>  (1) 
S-OPLS

>  <s_lp_Variant>  (1) 
DiffSBDD_0_num_sample_50-4

>  <s_m_source_file>  (1) 
generated__ligand_DiffSBDD_2026-05-06_prepared.sdf

>  <GenAI_Model>  (1) 
DiffSBDD

>  <Protein>  (1) 
GPCR_5HT2C

$$$$
DiffSBDD_1_num_sample_50
     RDKit          3D

  0  0  0  0  0  0  0  0  0  0999 V3000
M  V30 BEGIN CTAB
M  V30 COUNTS 31 30 0 0 1
M  V30 BEGIN ATOM
M  V30 1 C 40.860104 30.508926 50.512537 0
M  V30 2 C 40.035780 29.759669 51.562350 0
M  V30 3 C 38.708981 31.626944 55.695031 0
M  V30 4 C 37.897614 31.084119 54.515119 0
M  V30 5 N 38.134068 33.809078 60.068525 0
M  V30 6 C 38.654085 30.020706 53.699555 0
M  V30 7 C 39.753640 30.614256 52.805917 0
M  V30 8 C 38.467185 32.730798 57.898691 0
M  V30 9 N 37.867403 32.472733 56.571356 0 CHG=1
M  V30 10 C 37.544149 33.606126 58.758332 0
M  V30 11 H 41.042652 29.882505 49.641201 0
M  V30 12 H 40.341185 31.404393 50.170027 0
M  V30 13 H 41.825547 30.816520 50.910419 0
M  V30 14 H 40.558215 28.848885 51.852082 0
M  V30 15 H 39.095098 29.443892 51.109160 0
M  V30 16 H 39.565589 32.202158 55.339533 0
M  V30 17 H 39.100614 30.792469 56.276213 0
M  V30 18 H 36.970456 30.645010 54.887896 0
M  V30 19 H 37.593933 31.907021 53.864764 0
M  V30 20 H 37.541725 34.414560 60.621592 0
M  V30 21 H 38.193664 32.933661 60.571166 0
M  V30 22 H 39.088912 29.275334 54.367414 0
M  V30 23 H 37.937321 29.477001 53.081288 0
M  V30 24 H 39.472806 31.618446 52.493296 0
M  V30 25 H 40.664754 30.734378 53.391244 0
M  V30 26 H 39.433363 33.221467 57.768409 0
M  V30 27 H 38.655593 31.779370 58.401168 0
M  V30 28 H 36.947403 32.032672 56.701233 0
M  V30 29 H 36.560252 33.143772 58.867320 0
M  V30 30 H 37.395832 34.577771 58.284986 0
M  V30 31 H 37.706137 33.360998 56.114058 0
M  V30 END ATOM
M  V30 BEGIN BOND
M  V30 1 1 2 1
M  V30 2 1 4 3
M  V30 3 1 6 4
M  V30 4 1 7 2
M  V30 5 1 7 6
M  V30 6 1 9 3
M  V30 7 1 9 8
M  V30 8 1 10 5
M  V30 9 1 10 8
M  V30 10 1 11 1
M  V30 11 1 12 1
M  V30 12 1 13 1
M  V30 13 1 14 2
M  V30 14 1 15 2
M  V30 15 1 16 3
M  V30 16 1 17 3
M  V30 17 1 18 4
M  V30 18 1 19 4
M  V30 19 1 20 5
M  V30 20 1 21 5
M  V30 21 1 22 6
M  V30 22 1 23 6
M  V30 23 1 24 7
M  V30 24 1 25 7
M  V30 25 1 26 8
M  V30 26 1 27 8
M  V30 27 1 28 9
M  V30 28 1 29 10
M  V30 29 1 30 10
M  V30 30 1 31 9
M  V30 END BOND
M  V30 END CTAB
M  END
>  <i_epik_Tot_Q>  (1) 
1

>  <i_epik_Tot_abs_Q>  (1) 
1

>  <i_i_glide_confnum>  (1) 
49

>  <i_i_glide_lignum>  (1) 
5

>  <i_i_glide_posenum>  (1) 
307

>  <i_i_glide_rotatable_bonds>  (1) 
7

>  <i_lp_mmshare_version>  (1) 
72125

>  <i_m_source_file_index>  (1) 
2

>  <i_f3d_flags>  (1) 
0

>  <num_sample>  (1) 
50

>  <b_lp_Chiralities_Consistent>  (1) 
1

>  <r_epik_Charging_Adjusted_Penalty>  (1) 
0.30664254943221692

>  <r_epik_Ionization_Penalty>  (1) 
0.19742572041850767

>  <r_epik_Ionization_Penalty_Charging>  (1) 
0.0017778986639453492

>  <r_epik_Ionization_Penalty_Neutral>  (1) 
0.19564782175456233

>  <r_epik_State_Penalty>  (1) 
0.30486465076827157

>  <r_glide_ring_energy>  (1) 
0

>  <r_i_docking_score>  (1) 
-3.4962877056351465

>  <r_i_glide_ecoul>  (1) 
-5.1344165274034763

>  <r_i_glide_eff_state_penalty>  (1) 
0.30486465076827157

>  <r_i_glide_einternal>  (1) 
7.4776453655608055

>  <r_i_glide_emodel>  (1) 
-26.047532607337246

>  <r_i_glide_emodel_strain>  (1) 
0.53705114146657462

>  <r_i_glide_energy>  (1) 
-21.876313975918965

>  <r_i_glide_erotb>  (1) 
2.406655367809901

>  <r_i_glide_esite>  (1) 
-0.10000000000000001

>  <r_i_glide_evdw>  (1) 
-16.741897448515488

>  <r_i_glide_gscore>  (1) 
-3.801152356403418

>  <r_i_glide_gscore_strain>  (1) 
0

>  <r_i_glide_hbond>  (1) 
-0.20000000000000001

>  <r_i_glide_ligand_efficiency>  (1) 
-0.34962877056351466

>  <r_i_glide_ligand_efficiency_ln>  (1) 
-1.058651815831184

>  <r_i_glide_ligand_efficiency_sa>  (1) 
-0.75325235193523432

>  <r_i_glide_lipo>  (1) 
-1.1654623151465935

>  <r_i_glide_metal>  (1) 
-0

>  <r_i_glide_rewards>  (1) 
-3.1350880575304299

>  <r_lp_Energy>  (1) 
8.729457

>  <s_epik_cmdline>  (1) 
J2VwaWtfcHl0aG9uJywgJy1waHQnLCAnMS4wJywgJy1waCcsICc3LjQnLCAnLXRuJywgJzgnLCAnLW1hJywgJzUwMCcsICctaW1hZScsICc8aW5maWxlLm1hZT4nLCAnLW9tYWUnLCAnPG91dGZpbGUubWFlPic=

>  <s_epik_input>  (1) 
W0NIM11bQ0gyXVtDSDJdW0NIMl1bQ0gyXVtDSDJdW05IXVtDSDJdW0NIMl1bTkgyXQ==

>  <s_glide_docking_method>  (1) 
confgen

>  <s_i_glide_gridfile>  (1) 
gpcr_5ht2c_6bqh_protein_autoprepared_prepared

>  <s_lp_Force_Field>  (1) 
S-OPLS

>  <s_lp_Variant>  (1) 
DiffSBDD_1_num_sample_50-1

>  <s_m_source_file>  (1) 
generated__ligand_DiffSBDD_2026-05-06_prepared.sdf

>  <GenAI_Model>  (1) 
DiffSBDD

>  <Protein>  (1) 
GPCR_5HT2C

$$$$
DiffSBDD_0_num_sample_50
     RDKit          3D

  0  0  0  0  0  0  0  0  0  0999 V3000
M  V30 BEGIN CTAB
M  V30 COUNTS 65 69 0 0 1
M  V30 BEGIN ATOM
M  V30 1 C 39.070490 25.747403 56.015280 0
M  V30 2 C 39.414721 27.109584 56.079789 0
M  V30 3 C 39.114200 29.516185 55.328612 0
M  V30 4 S 40.094023 34.738219 62.133867 0
M  V30 5 O 37.214554 32.044507 61.706219 0
M  V30 6 C 37.299584 30.358064 58.756207 0
M  V30 7 C 36.267546 37.187043 63.083071 0
M  V30 8 C 37.806978 27.599798 54.308416 0
M  V30 9 C 37.812239 29.485874 57.585048 0
M  V30 10 C 42.374517 34.219441 64.396174 0
M  V30 11 C 40.897756 32.727467 63.687671 0
M  V30 12 F 37.749212 24.009307 55.053490 0
M  V30 13 C 37.468152 26.236224 54.244055 0
M  V30 14 C 41.359740 32.330630 64.857046 0
M  V30 15 C 41.580469 33.987738 63.053539 0 CFG=1
M  V30 16 C 35.696689 33.599054 59.317134 0
M  V30 17 C 36.667407 35.157732 61.589625 0
M  V30 18 O 35.035961 34.421432 58.653502 0
M  V30 19 C 37.930511 33.044684 61.636009 0
M  V30 20 C 38.032276 37.287513 61.304033 0
M  V30 21 C 37.203727 33.905741 59.519144 0 CFG=2
M  V30 22 C 38.158005 30.287226 56.273059 0 CFG=1
M  V30 23 C 37.307166 36.371300 62.301471 0
M  V30 24 N 37.867404 32.270355 57.643013 0 CFG=2 CHG=1
M  V30 25 C 39.752412 32.261302 63.085794 0
M  V30 26 C 38.266673 33.016550 58.804914 0 CFG=2
M  V30 27 C 39.238391 33.160127 62.291335 0
M  V30 28 N 37.565511 34.159750 60.935516 0
M  V30 29 C 38.265598 31.507731 58.841386 0 CFG=1
M  V30 30 C 38.774250 28.040625 55.232413 0
M  V30 31 O 35.214303 32.580152 59.853513 0 CHG=-1
M  V30 32 C 38.684680 31.729968 56.545971 0
M  V30 33 C 38.092218 25.313028 55.103040 0
M  V30 34 C 42.268680 33.248932 65.295576 0
M  V30 35 H 39.552471 25.035924 56.670441 0
M  V30 36 H 40.160205 27.443417 56.787126 0
M  V30 37 H 39.101975 29.960780 54.332621 0
M  V30 38 H 40.141758 29.605075 55.684237 0
M  V30 39 H 37.331232 29.793343 59.688758 0
M  V30 40 H 36.267401 30.681241 58.631714 0
M  V30 41 H 35.515953 37.631484 62.433859 0
M  V30 42 H 35.758921 36.571490 63.824775 0
M  V30 43 H 36.746107 38.007990 63.610415 0
M  V30 44 H 37.317660 28.308701 53.656233 0
M  V30 45 H 38.715502 28.988466 57.939131 0
M  V30 46 H 37.092520 28.693055 57.382059 0
M  V30 47 H 43.003398 35.088376 64.523319 0
M  V30 48 H 36.724034 25.897220 53.537572 0
M  V30 49 H 40.952117 31.525907 65.451957 0
M  V30 50 H 42.267411 33.621433 62.293862 0
M  V30 51 H 36.044924 35.618128 60.825977 0
M  V30 52 H 35.971238 34.641870 62.253500 0
M  V30 53 H 37.326223 37.817856 60.663491 0
M  V30 54 H 38.639428 38.028300 61.822767 0
M  V30 55 H 38.688687 36.716918 60.652709 0
M  V30 56 H 37.334715 34.877946 59.040094 0
M  V30 57 H 37.204665 30.400248 55.752592 0
M  V30 58 H 38.006893 36.021449 63.053742 0
M  V30 59 H 39.278620 31.318963 63.323932 0
M  V30 60 H 39.222453 33.504258 58.623109 0
M  V30 61 H 39.285366 31.139267 58.884400 0
M  V30 62 H 39.748703 31.742901 56.781462 0
M  V30 63 H 38.552281 32.355348 55.662544 0
M  V30 64 H 42.762511 33.230123 66.256023 0
M  V30 65 H 36.855626 32.186708 57.493814 0
M  V30 END ATOM
M  V30 BEGIN BOND
M  V30 1 2 2 1
M  V30 2 1 9 6
M  V30 3 1 13 8
M  V30 4 2 14 11
M  V30 5 1 15 4
M  V30 6 1 15 10
M  V30 7 1 15 11
M  V30 8 2 18 16
M  V30 9 2 19 5
M  V30 10 1 21 16
M  V30 11 1 22 3
M  V30 12 1 22 9
M  V30 13 1 23 7
M  V30 14 1 23 17
M  V30 15 1 23 20
M  V30 16 1 25 11
M  V30 17 1 26 21
M  V30 18 1 26 24
M  V30 19 1 27 4
M  V30 20 1 27 19
M  V30 21 2 27 25
M  V30 22 1 28 17
M  V30 23 1 28 19
M  V30 24 1 28 21
M  V30 25 1 29 6
M  V30 26 1 29 24
M  V30 27 1 29 26
M  V30 28 1 30 2
M  V30 29 1 30 3
M  V30 30 2 30 8
M  V30 31 1 31 16
M  V30 32 1 32 22
M  V30 33 1 32 24
M  V30 34 1 33 1
M  V30 35 1 33 12
M  V30 36 2 33 13
M  V30 37 2 34 10
M  V30 38 1 34 14
M  V30 39 1 35 1
M  V30 40 1 36 2
M  V30 41 1 37 3
M  V30 42 1 38 3
M  V30 43 1 39 6
M  V30 44 1 40 6
M  V30 45 1 41 7
M  V30 46 1 42 7
M  V30 47 1 43 7
M  V30 48 1 44 8
M  V30 49 1 45 9
M  V30 50 1 46 9
M  V30 51 1 47 10
M  V30 52 1 48 13
M  V30 53 1 49 14
M  V30 54 1 15 50 CFG=3
M  V30 55 1 51 17
M  V30 56 1 52 17
M  V30 57 1 53 20
M  V30 58 1 54 20
M  V30 59 1 55 20
M  V30 60 1 21 56 CFG=3
M  V30 61 1 22 57 CFG=3
M  V30 62 1 58 23
M  V30 63 1 59 25
M  V30 64 1 26 60 CFG=3
M  V30 65 1 29 61 CFG=3
M  V30 66 1 62 32
M  V30 67 1 63 32
M  V30 68 1 64 34
M  V30 69 1 24 65 CFG=3
M  V30 END BOND
M  V30 END CTAB
M  END
>  <i_epik_Tot_Q>  (1) 
0

>  <i_epik_Tot_abs_Q>  (1) 
2

>  <i_i_glide_confnum>  (1) 
11

>  <i_i_glide_lignum>  (1) 
2

>  <i_i_glide_posenum>  (1) 
89

>  <i_i_glide_rotatable_bonds>  (1) 
9

>  <i_lp_mmshare_version>  (1) 
72125

>  <i_m_source_file_index>  (1) 
1

>  <i_f3d_flags>  (1) 
0

>  <num_sample>  (1) 
50

>  <b_lp_Chiralities_Consistent>  (1) 
1

>  <r_epik_Charging_Adjusted_Penalty>  (1) 
0.0020295482604282666

>  <r_epik_Ionization_Penalty>  (1) 
0.0020295482639142975

>  <r_epik_Ionization_Penalty_Charging>  (1) 
0.0020295482604282666

>  <r_epik_Ionization_Penalty_Neutral>  (1) 
3.4860309872641501e-12

>  <r_epik_State_Penalty>  (1) 
-0

>  <r_glide_ring_energy>  (1) 
0

>  <r_i_docking_score>  (1) 
-3.4775079144656269

>  <r_i_glide_ecoul>  (1) 
-6.2531890352053718

>  <r_i_glide_eff_state_penalty>  (1) 
-0

>  <r_i_glide_einternal>  (1) 
13.927451129205764

>  <r_i_glide_emodel>  (1) 
-49.352073787722553

>  <r_i_glide_emodel_strain>  (1) 
1.5981478453826696

>  <r_i_glide_energy>  (1) 
-45.26837018384424

>  <r_i_glide_erotb>  (1) 
0.52278502944784222

>  <r_i_glide_esite>  (1) 
-0.15532831042065529

>  <r_i_glide_evdw>  (1) 
-39.015181148638867

>  <r_i_glide_gscore>  (1) 
-3.4775079144656269

>  <r_i_glide_gscore_strain>  (1) 
0

>  <r_i_glide_hbond>  (1) 
-0.39461140253280763

>  <r_i_glide_ligand_efficiency>  (1) 
-0.10227964454310667

>  <r_i_glide_ligand_efficiency_ln>  (1) 
-0.7682790390985309

>  <r_i_glide_ligand_efficiency_sa>  (1) 
-0.33134634349231457

>  <r_i_glide_lipo>  (1) 
-3.6728873288989785

>  <r_i_glide_metal>  (1) 
-0

>  <r_i_glide_rewards>  (1) 
3.1112715106517221

>  <r_lp_Energy>  (1) 
65.474028000000004

>  <r_lp_tautomer_probability>  (1) 
1

>  <s_epik_cmdline>  (1) 
J2VwaWtfcHl0aG9uJywgJy1waHQnLCAnMS4wJywgJy1waCcsICc3LjQnLCAnLXRuJywgJzgnLCAnLW1hJywgJzUwMCcsICctaW1hZScsICc8aW5maWxlLm1hZT4nLCAnLW9tYWUnLCAnPG91dGZpbGUubWFlPic=

>  <s_epik_input>  (1) 
W2NIXTFbY0hdYyhGKVtjSF1bY0hdYzFbQ0gyXVtDQEhdKFtDSDJdMilbQ0gyXVtDSDJdW0NIXShOMjMpW0NAQEhdM1tDQEBIXShDKD1PKVtPSF0pTihbQ0gyXVtDSF0oW0NIM10pW0NIM10pQyg9TylDKD1bQ0hdNClTW0NASF0oQzQ9NSlbQ0hdPVtDSF1bQ0hdNQ==

>  <s_glide_docking_method>  (1) 
confgen

>  <s_i_glide_gridfile>  (1) 
gpcr_5ht2c_6bqh_protein_autoprepared_prepared

>  <s_lp_Force_Field>  (1) 
S-OPLS

>  <s_lp_Variant>  (1) 
DiffSBDD_0_num_sample_50-2

>  <s_m_source_file>  (1) 
generated__ligand_DiffSBDD_2026-05-06_prepared.sdf

>  <GenAI_Model>  (1) 
DiffSBDD

>  <Protein>  (1) 
GPCR_5HT2C

$$$$
DiffSBDD_7_num_sample_50
     RDKit          3D

  0  0  0  0  0  0  0  0  0  0999 V3000
M  V30 BEGIN CTAB
M  V30 COUNTS 93 96 0 0 1
M  V30 BEGIN ATOM
M  V30 1 C 42.342223 26.571697 66.481924 0 CFG=1
M  V30 2 O 38.612665 31.096853 61.546928 0
M  V30 3 C 42.241149 29.932647 67.755846 0
M  V30 4 C 40.297338 34.259210 62.277470 0
M  V30 5 O 40.381363 25.221443 66.631084 0 CHG=-1
M  V30 6 N 35.678268 33.901943 59.181506 0
M  V30 7 S 37.796680 29.566456 58.826087 0
M  V30 8 N 39.930269 27.307920 56.836787 0
M  V30 9 N 40.740537 32.877064 62.594310 0 CFG=1 CHG=1
M  V30 10 S 37.467491 26.795545 57.453444 0
M  V30 11 C 35.185978 33.573802 60.388991 0
M  V30 12 C 42.178282 31.122158 70.144821 0
M  V30 13 C 38.855713 30.283082 62.653409 0
M  V30 14 C 39.701082 31.422788 60.697506 0 CFG=1
M  V30 15 C 37.910331 28.570134 57.248075 0 CFG=2
M  V30 16 N 34.864707 33.221436 61.442402 0
M  V30 17 O 38.650680 34.341114 60.489854 0
M  V30 18 C 41.625770 31.137507 67.072308 0
M  V30 19 O 39.467426 26.815684 53.941875 0
M  V30 20 C 44.597340 28.765776 68.257420 0
M  V30 21 C 39.066995 32.177540 59.491679 0 CFG=2
M  V30 22 C 38.604916 27.907754 54.168854 0 CFG=1
M  V30 23 O 41.426216 25.314664 64.668066 0
M  V30 24 C 39.340660 28.613524 56.609647 0 CFG=2
M  V30 25 O 39.501774 25.115049 57.453126 0
M  V30 26 C 37.992234 33.206914 59.942075 0 CFG=2
M  V30 27 C 41.932813 28.026957 66.288003 0
M  V30 28 C 41.291417 25.621422 65.874729 0
M  V30 29 C 41.333710 30.042848 64.857807 0
M  V30 30 C 41.983235 31.218623 65.586151 0 CFG=1
M  V30 31 C 41.489630 32.571458 64.998070 0
M  V30 32 C 40.957421 32.009376 61.401069 0
M  V30 33 C 41.835382 28.635315 65.087472 0
M  V30 34 C 39.270586 28.962282 55.095920 0
M  V30 35 C 43.724332 26.237647 65.891879 0
M  V30 36 C 43.654722 29.944110 68.317737 0 CFG=2
M  V30 37 C 38.816124 34.327761 61.894661 0
M  V30 38 C 37.067282 33.738994 58.840493 0
M  V30 39 C 41.905391 32.858688 63.533786 0
M  V30 40 O 38.713736 28.837213 59.808864 0
M  V30 41 C 38.598406 31.185234 58.371789 0
M  V30 42 C 38.239479 28.472134 52.792795 0
M  V30 43 C 42.473789 29.927874 69.259463 0 CFG=2
M  V30 44 C 39.146377 26.271150 57.247104 0
M  V30 45 O 38.762316 31.483969 57.190464 0
M  V30 46 O 37.468672 34.021435 57.721345 0
M  V30 47 O 41.624383 28.672673 67.466453 0
M  V30 48 H 42.371148 26.368883 67.553087 0
M  V30 49 H 40.932189 34.724768 61.521886 0
M  V30 50 H 40.407481 34.862377 63.181153 0
M  V30 51 H 35.028535 34.246930 58.489301 0
M  V30 52 H 40.911542 27.134246 56.671480 0
M  V30 53 H 42.572254 32.045352 69.719650 0
M  V30 54 H 41.101215 31.221410 70.276733 0
M  V30 55 H 42.636446 30.976515 71.122209 0
M  V30 56 H 37.885923 30.021458 63.052291 0
M  V30 57 H 39.421148 29.379280 62.420324 0
M  V30 58 H 39.335656 30.867681 63.424598 0
M  V30 59 H 40.124180 30.504363 60.300054 0
M  V30 60 H 37.189832 29.045125 56.582291 0
M  V30 61 H 41.984129 32.041446 67.562386 0
M  V30 62 H 40.545916 31.115951 67.220543 0
M  V30 63 H 38.980449 26.134617 53.501976 0
M  V30 64 H 44.061810 27.832961 68.429596 0
M  V30 65 H 45.087747 28.733088 67.284222 0
M  V30 66 H 45.364399 28.862017 69.025507 0
M  V30 67 H 39.824768 32.821426 59.040349 0
M  V30 68 H 37.693634 27.522920 54.627389 0
M  V30 69 H 40.003426 29.315588 57.107498 0
M  V30 70 H 37.349800 32.734430 60.672188 0
M  V30 71 H 40.271520 30.011393 65.101088 0
M  V30 72 H 41.422831 30.186150 63.785315 0
M  V30 73 H 43.067042 31.163382 65.473947 0
M  V30 74 H 41.895547 33.374815 65.613735 0
M  V30 75 H 40.406913 32.651298 65.111355 0
M  V30 76 H 41.648737 32.443947 60.686867 0
M  V30 77 H 41.483638 31.129212 61.763303 0
M  V30 78 H 42.076901 28.071215 64.198126 0
M  V30 79 H 40.266031 29.221326 54.736358 0
M  V30 80 H 38.706583 29.891526 55.001197 0
M  V30 81 H 43.822072 26.558749 64.854487 0
M  V30 82 H 44.538370 26.682963 66.456525 0
M  V30 83 H 43.867380 25.157616 65.910250 0
M  V30 84 H 44.175542 30.895042 68.217474 0
M  V30 85 H 38.394626 35.266212 62.253341 0
M  V30 86 H 38.267380 33.529976 62.391626 0
M  V30 87 H 42.667371 32.142032 63.227985 0
M  V30 88 H 42.423936 33.817885 63.486754 0
M  V30 89 H 37.467279 29.230966 52.891206 0
M  V30 90 H 39.103222 28.922185 52.301770 0
M  V30 91 H 37.847531 27.697694 52.131635 0
M  V30 92 H 42.269331 28.981398 69.757054 0
M  V30 93 H 39.986136 32.441845 63.107202 0
M  V30 END ATOM
M  V30 BEGIN BOND
M  V30 1 1 9 4
M  V30 2 1 11 6
M  V30 3 1 13 2
M  V30 4 1 14 2
M  V30 5 1 15 7
M  V30 6 1 15 10
M  V30 7 3 16 11
M  V30 8 1 18 3
M  V30 9 1 21 14
M  V30 10 1 22 19
M  V30 11 1 24 8
M  V30 12 1 24 15
M  V30 13 1 26 17
M  V30 14 1 26 21
M  V30 15 1 27 1
M  V30 16 1 28 1
M  V30 17 1 28 5
M  V30 18 2 28 23
M  V30 19 1 30 18
M  V30 20 1 30 29
M  V30 21 1 31 30
M  V30 22 1 32 9
M  V30 23 1 32 14
M  V30 24 2 33 27
M  V30 25 1 33 29
M  V30 26 1 34 22
M  V30 27 1 34 24
M  V30 28 1 35 1
M  V30 29 1 36 3
M  V30 30 1 36 20
M  V30 31 1 37 4
M  V30 32 1 37 17
M  V30 33 1 38 6
M  V30 34 1 38 26
M  V30 35 1 39 9
M  V30 36 1 39 31
M  V30 37 2 40 7
M  V30 38 1 7 41 CFG=3
M  V30 39 1 41 21
M  V30 40 1 42 22
M  V30 41 1 43 3
M  V30 42 1 43 12
M  V30 43 1 43 36
M  V30 44 1 44 8
M  V30 45 1 44 10
M  V30 46 2 44 25
M  V30 47 2 45 41
M  V30 48 2 46 38
M  V30 49 1 47 3
M  V30 50 1 47 27
M  V30 51 1 1 48 CFG=1
M  V30 52 1 49 4
M  V30 53 1 50 4
M  V30 54 1 51 6
M  V30 55 1 52 8
M  V30 56 1 53 12
M  V30 57 1 54 12
M  V30 58 1 55 12
M  V30 59 1 56 13
M  V30 60 1 57 13
M  V30 61 1 58 13
M  V30 62 1 14 59 CFG=3
M  V30 63 1 15 60 CFG=3
M  V30 64 1 61 18
M  V30 65 1 62 18
M  V30 66 1 63 19
M  V30 67 1 64 20
M  V30 68 1 65 20
M  V30 69 1 66 20
M  V30 70 1 21 67 CFG=3
M  V30 71 1 22 68 CFG=1
M  V30 72 1 24 69 CFG=1
M  V30 73 1 26 70 CFG=1
M  V30 74 1 71 29
M  V30 75 1 72 29
M  V30 76 1 30 73 CFG=1
M  V30 77 1 74 31
M  V30 78 1 75 31
M  V30 79 1 76 32
M  V30 80 1 77 32
M  V30 81 1 78 33
M  V30 82 1 79 34
M  V30 83 1 80 34
M  V30 84 1 81 35
M  V30 85 1 82 35
M  V30 86 1 83 35
M  V30 87 1 36 84 CFG=1
M  V30 88 1 85 37
M  V30 89 1 86 37
M  V30 90 1 87 39
M  V30 91 1 88 39
M  V30 92 1 89 42
M  V30 93 1 90 42
M  V30 94 1 91 42
M  V30 95 1 43 92 CFG=1
M  V30 96 1 9 93 CFG=1
M  V30 END BOND
M  V30 END CTAB
M  END
>  <i_epik_Tot_Q>  (1) 
0

>  <i_epik_Tot_abs_Q>  (1) 
2

>  <i_i_glide_confnum>  (1) 
3379

>  <i_i_glide_lignum>  (1) 
27

>  <i_i_glide_posenum>  (1) 
161

>  <i_i_glide_rotatable_bonds>  (1) 
14

>  <i_lp_mmshare_version>  (1) 
72125

>  <i_m_source_file_index>  (1) 
8

>  <i_f3d_flags>  (1) 
0

>  <num_sample>  (1) 
50

>  <b_lp_Chiralities_Consistent>  (1) 
1

>  <r_epik_Charging_Adjusted_Penalty>  (1) 
2.2678334573304797

>  <r_epik_Ionization_Penalty>  (1) 
1.1498882506810455

>  <r_epik_Ionization_Penalty_Charging>  (1) 
1.1031410554290029

>  <r_epik_Ionization_Penalty_Neutral>  (1) 
0.046747195252042517

>  <r_epik_State_Penalty>  (1) 
1.164692401901477

>  <r_glide_ring_energy>  (1) 
0

>  <r_i_docking_score>  (1) 
-3.4165979362165677

>  <r_i_glide_ecoul>  (1) 
0.01063320750791652

>  <r_i_glide_eff_state_penalty>  (1) 
1.164692401901477

>  <r_i_glide_einternal>  (1) 
58.920657439935319

>  <r_i_glide_emodel>  (1) 
-29.647708217516538

>  <r_i_glide_emodel_strain>  (1) 
4.2825305545754588

>  <r_i_glide_energy>  (1) 
-48.915092123068895

>  <r_i_glide_erotb>  (1) 
0.2643022598508753

>  <r_i_glide_esite>  (1) 
-0.15390221735539189

>  <r_i_glide_evdw>  (1) 
-48.92572533057681

>  <r_i_glide_gscore>  (1) 
-4.5812903381180448

>  <r_i_glide_gscore_strain>  (1) 
0.070632638643864709

>  <r_i_glide_hbond>  (1) 
0

>  <r_i_glide_ligand_efficiency>  (1) 
-0.072693573110990797

>  <r_i_glide_ligand_efficiency_ln>  (1) 
-0.70443174451267176

>  <r_i_glide_ligand_efficiency_sa>  (1) 
-0.26233846250141263

>  <r_i_glide_lipo>  (1) 
-2.6643546059064849

>  <r_i_glide_metal>  (1) 
-0

>  <r_i_glide_rewards>  (1) 
0.3467228720517439

>  <r_lp_Energy>  (1) 
32.883552999999999

>  <s_epik_Chemistry_Notes>  (1) 
This compound contains an acetal/aminal-like group ( X-CH(R)-Y where X, Y are N, S, or O) that may be acid/base labile, releasing an aldehyde.

>  <s_epik_cmdline>  (1) 
J2VwaWtfcHl0aG9uJywgJy1waHQnLCAnMS4wJywgJy1waCcsICc3LjQnLCAnLXRuJywgJzgnLCAnLW1hJywgJzUwMCcsICctaW1hZScsICc8aW5maWxlLm1hZT4nLCAnLW9tYWUnLCAnPG91dGZpbGUubWFlPic=

>  <s_epik_input>  (1) 
W09IXUMoPU8pW0NAQEhdKFtDSDNdKUMoTzEpPVtDSF1bQ0gyXVtDQEhdKFtDSDJdW0NAXTEyW0NASF0oW0NIM10pW0NAQEhdMltDSDNdKVtDSDJdW0NIMl1OM1tDSDJdW0NIMl1PW0NAQEhdKEMoPU8pW05IXUMjTilbQ0BASF0oW0NAQEhdKFtDSDJdMylPW0NIM10pQyg9TylTKD1PKVtDQEBIXTRTQyg9TylbTkhdW0NASF00W0NIMl1bQ0BIXShbT0hdKVtDSDNd

>  <s_glide_docking_method>  (1) 
confgen

>  <s_i_glide_gridfile>  (1) 
gpcr_5ht2c_6bqh_protein_autoprepared_prepared

>  <s_lp_Force_Field>  (1) 
S-OPLS

>  <s_lp_Variant>  (1) 
DiffSBDD_7_num_sample_50-5

>  <s_m_source_file>  (1) 
generated__ligand_DiffSBDD_2026-05-06_prepared.sdf

>  <GenAI_Model>  (1) 
DiffSBDD

>  <Protein>  (1) 
GPCR_5HT2C

$$$$
DiffSBDD_7_num_sample_50
     RDKit          3D

  0  0  0  0  0  0  0  0  0  0999 V3000
M  V30 BEGIN CTAB
M  V30 COUNTS 93 96 0 0 1
M  V30 BEGIN ATOM
M  V30 1 C 42.800315 28.553237 66.567812 0 CFG=1
M  V30 2 O 39.446897 32.160088 62.619491 0
M  V30 3 C 42.460352 31.839726 67.982593 0
M  V30 4 C 40.070437 35.878224 62.625184 0
M  V30 5 O 41.552383 26.533245 66.805983 0 CHG=-1
M  V30 6 N 35.948299 34.984313 59.536660 0
M  V30 7 S 38.558083 30.103619 59.585331 0
M  V30 8 N 40.315636 28.257708 57.328711 0
M  V30 9 N 40.667131 34.541599 62.933669 0 CFG=1 CHG=1
M  V30 10 S 37.867511 27.607208 57.853449 0
M  V30 11 C 36.588376 36.166773 59.453539 0
M  V30 12 C 42.530475 33.117602 70.338707 0
M  V30 13 C 39.224513 30.767752 62.799085 0
M  V30 14 C 40.028052 32.572824 61.380106 0 CFG=1
M  V30 15 C 38.303037 29.385607 57.874333 0 CFG=2
M  V30 16 N 37.067397 37.221237 59.426778 0
M  V30 17 O 38.513569 35.214973 60.812908 0
M  V30 18 C 41.749512 33.016165 67.346695 0
M  V30 19 O 37.397606 30.764122 55.053480 0
M  V30 20 C 44.858356 30.732003 68.536566 0
M  V30 21 C 38.995006 32.954338 60.277076 0 CFG=2
M  V30 22 C 38.802785 30.926033 55.024008 0 CFG=1
M  V30 23 O 41.467429 27.578942 64.841199 0
M  V30 24 C 39.645734 29.522560 57.085236 0 CFG=2
M  V30 25 O 39.989961 26.031336 57.894965 0
M  V30 26 C 37.912425 33.920231 60.843312 0 CFG=2
M  V30 27 C 42.218470 29.964554 66.452582 0
M  V30 28 C 41.854769 27.462767 66.026052 0
M  V30 29 C 41.361958 31.968813 65.131074 0
M  V30 30 C 42.036296 33.131985 65.855396 0 CFG=1
M  V30 31 C 41.562109 34.504125 65.316357 0
M  V30 32 C 40.995390 33.752086 61.704568 0
M  V30 33 C 41.987845 30.598988 65.281221 0
M  V30 34 C 39.486735 29.652964 55.554268 0
M  V30 35 C 44.154342 28.425136 65.837306 0
M  V30 36 C 43.894593 31.891925 68.489228 0 CFG=2
M  V30 37 C 38.637956 35.896955 62.052900 0
M  V30 38 C 36.488603 33.817651 60.213879 0
M  V30 39 C 41.860122 34.723847 63.821332 0
M  V30 40 O 39.995067 29.768367 59.991080 0
M  V30 41 C 38.577494 31.909413 59.194390 0
M  V30 42 C 39.187798 31.154293 53.558745 0
M  V30 43 C 42.749739 31.889142 69.474449 0 CFG=2
M  V30 44 C 39.578975 27.170445 57.693852 0
M  V30 45 O 38.267734 32.299227 58.069780 0
M  V30 46 O 35.821407 32.786961 60.279902 0
M  V30 47 O 41.927586 30.543044 67.674998 0
M  V30 48 H 42.952667 28.341325 67.626159 0
M  V30 49 H 40.735783 36.423071 61.952259 0
M  V30 50 H 40.045915 36.463526 63.546506 0
M  V30 51 H 35.033052 34.925736 59.113842 0
M  V30 52 H 41.312072 28.149431 57.205464 0
M  V30 53 H 43.022407 33.994570 69.916445 0
M  V30 54 H 41.467488 33.330519 70.429761 0
M  V30 55 H 42.940524 32.948483 71.334398 0
M  V30 56 H 38.329050 30.438812 62.276886 0
M  V30 57 H 40.079805 30.167316 62.488874 0
M  V30 58 H 39.067408 30.553277 63.854376 0
M  V30 59 H 40.675159 31.785088 60.999836 0
M  V30 60 H 37.485035 29.935603 57.415388 0
M  V30 61 H 42.080426 33.933715 67.831723 0
M  V30 62 H 40.679509 32.934574 67.540331 0
M  V30 63 H 36.995411 31.366587 55.675182 0
M  V30 64 H 44.335229 29.780647 68.592459 0
M  V30 65 H 45.511026 30.741581 67.664335 0
M  V30 66 H 45.467376 30.822001 69.433050 0
M  V30 67 H 39.572954 33.583518 59.598632 0
M  V30 68 H 39.092825 31.798789 55.609272 0
M  V30 69 H 40.252465 30.343816 57.453436 0
M  V30 70 H 37.720733 33.632322 61.873940 0
M  V30 71 H 40.300985 31.911378 65.377140 0
M  V30 72 H 41.421402 32.142873 64.062522 0
M  V30 73 H 43.115007 33.068995 65.700423 0
M  V30 74 H 42.097211 35.277975 65.869523 0
M  V30 75 H 40.511476 34.677042 65.540563 0
M  V30 76 H 41.067388 34.455829 60.880518 0
M  V30 77 H 41.989142 33.310380 61.769995 0
M  V30 78 H 42.228989 30.089869 64.358992 0
M  V30 79 H 38.978643 28.777127 55.145488 0
M  V30 80 H 40.493867 29.621534 55.135760 0
M  V30 81 H 44.044957 28.531868 64.756940 0
M  V30 82 H 44.865261 29.179885 66.165521 0
M  V30 83 H 44.607175 27.449977 66.022025 0
M  V30 84 H 44.401303 32.843844 68.340755 0
M  V30 85 H 38.412716 36.941487 61.838621 0
M  V30 86 H 37.877675 35.621438 62.771407 0
M  V30 87 H 42.672613 34.053202 63.557274 0
M  V30 88 H 42.277335 35.722782 63.677425 0
M  V30 89 H 40.260467 31.313988 53.450674 0
M  V30 90 H 38.932433 30.285836 52.951616 0
M  V30 91 H 38.675244 32.022017 53.146239 0
M  V30 92 H 42.552837 30.957849 70.004077 0
M  V30 93 H 39.998360 33.983080 63.450268 0
M  V30 END ATOM
M  V30 BEGIN BOND
M  V30 1 1 9 4
M  V30 2 1 11 6
M  V30 3 1 13 2
M  V30 4 1 14 2
M  V30 5 1 15 7
M  V30 6 1 15 10
M  V30 7 3 16 11
M  V30 8 1 18 3
M  V30 9 1 21 14
M  V30 10 1 22 19
M  V30 11 1 24 8
M  V30 12 1 24 15
M  V30 13 1 26 17
M  V30 14 1 26 21
M  V30 15 1 27 1
M  V30 16 1 28 1
M  V30 17 1 28 5
M  V30 18 2 28 23
M  V30 19 1 30 18
M  V30 20 1 30 29
M  V30 21 1 31 30
M  V30 22 1 32 9
M  V30 23 1 32 14
M  V30 24 2 33 27
M  V30 25 1 33 29
M  V30 26 1 34 22
M  V30 27 1 34 24
M  V30 28 1 35 1
M  V30 29 1 36 3
M  V30 30 1 36 20
M  V30 31 1 37 4
M  V30 32 1 37 17
M  V30 33 1 38 6
M  V30 34 1 38 26
M  V30 35 1 39 9
M  V30 36 1 39 31
M  V30 37 2 40 7
M  V30 38 1 7 41 CFG=3
M  V30 39 1 41 21
M  V30 40 1 42 22
M  V30 41 1 43 3
M  V30 42 1 43 12
M  V30 43 1 43 36
M  V30 44 1 44 8
M  V30 45 1 44 10
M  V30 46 2 44 25
M  V30 47 2 45 41
M  V30 48 2 46 38
M  V30 49 1 47 3
M  V30 50 1 47 27
M  V30 51 1 1 48 CFG=1
M  V30 52 1 49 4
M  V30 53 1 50 4
M  V30 54 1 51 6
M  V30 55 1 52 8
M  V30 56 1 53 12
M  V30 57 1 54 12
M  V30 58 1 55 12
M  V30 59 1 56 13
M  V30 60 1 57 13
M  V30 61 1 58 13
M  V30 62 1 14 59 CFG=3
M  V30 63 1 15 60 CFG=3
M  V30 64 1 61 18
M  V30 65 1 62 18
M  V30 66 1 63 19
M  V30 67 1 64 20
M  V30 68 1 65 20
M  V30 69 1 66 20
M  V30 70 1 21 67 CFG=3
M  V30 71 1 22 68 CFG=1
M  V30 72 1 24 69 CFG=1
M  V30 73 1 26 70 CFG=1
M  V30 74 1 71 29
M  V30 75 1 72 29
M  V30 76 1 30 73 CFG=1
M  V30 77 1 74 31
M  V30 78 1 75 31
M  V30 79 1 76 32
M  V30 80 1 77 32
M  V30 81 1 78 33
M  V30 82 1 79 34
M  V30 83 1 80 34
M  V30 84 1 81 35
M  V30 85 1 82 35
M  V30 86 1 83 35
M  V30 87 1 36 84 CFG=3
M  V30 88 1 85 37
M  V30 89 1 86 37
M  V30 90 1 87 39
M  V30 91 1 88 39
M  V30 92 1 89 42
M  V30 93 1 90 42
M  V30 94 1 91 42
M  V30 95 1 43 92 CFG=1
M  V30 96 1 9 93 CFG=1
M  V30 END BOND
M  V30 END CTAB
M  END
>  <i_epik_Tot_Q>  (1) 
0

>  <i_epik_Tot_abs_Q>  (1) 
2

>  <i_i_glide_confnum>  (1) 
3379

>  <i_i_glide_lignum>  (1) 
27

>  <i_i_glide_posenum>  (1) 
2

>  <i_i_glide_rotatable_bonds>  (1) 
14

>  <i_lp_mmshare_version>  (1) 
72125

>  <i_m_source_file_index>  (1) 
8

>  <i_f3d_flags>  (1) 
0

>  <num_sample>  (1) 
50

>  <b_lp_Chiralities_Consistent>  (1) 
1

>  <r_epik_Charging_Adjusted_Penalty>  (1) 
2.2678334573304797

>  <r_epik_Ionization_Penalty>  (1) 
1.1498882506810455

>  <r_epik_Ionization_Penalty_Charging>  (1) 
1.1031410554290029

>  <r_epik_Ionization_Penalty_Neutral>  (1) 
0.046747195252042517

>  <r_epik_State_Penalty>  (1) 
1.164692401901477

>  <r_glide_ring_energy>  (1) 
0

>  <r_i_docking_score>  (1) 
-3.3564213054021739

>  <r_i_glide_ecoul>  (1) 
-0.83797349149022082

>  <r_i_glide_eff_state_penalty>  (1) 
1.164692401901477

>  <r_i_glide_einternal>  (1) 
60.024982084752502

>  <r_i_glide_emodel>  (1) 
-31.968509080938958

>  <r_i_glide_emodel_strain>  (1) 
8.9825190745926875

>  <r_i_glide_energy>  (1) 
-56.67818356529115

>  <r_i_glide_erotb>  (1) 
0.2643022598508753

>  <r_i_glide_esite>  (1) 
-0.031401406336840756

>  <r_i_glide_evdw>  (1) 
-55.840210073800932

>  <r_i_glide_gscore>  (1) 
-4.5211137073036509

>  <r_i_glide_gscore_strain>  (1) 
1.2456297686481719

>  <r_i_glide_hbond>  (1) 
-0.14982685930347756

>  <r_i_glide_ligand_efficiency>  (1) 
-0.071413219263876046

>  <r_i_glide_ligand_efficiency_ln>  (1) 
-0.69202456935924417

>  <r_i_glide_ligand_efficiency_sa>  (1) 
-0.25771788814613894

>  <r_i_glide_lipo>  (1) 
-3.6002752835532337

>  <r_i_glide_metal>  (1) 
-0

>  <r_i_glide_rewards>  (1) 
0.66816434080443354

>  <r_lp_Energy>  (1) 
32.883552999999999

>  <s_epik_Chemistry_Notes>  (1) 
This compound contains an acetal/aminal-like group ( X-CH(R)-Y where X, Y are N, S, or O) that may be acid/base labile, releasing an aldehyde.

>  <s_epik_cmdline>  (1) 
J2VwaWtfcHl0aG9uJywgJy1waHQnLCAnMS4wJywgJy1waCcsICc3LjQnLCAnLXRuJywgJzgnLCAnLW1hJywgJzUwMCcsICctaW1hZScsICc8aW5maWxlLm1hZT4nLCAnLW9tYWUnLCAnPG91dGZpbGUubWFlPic=

>  <s_epik_input>  (1) 
W09IXUMoPU8pW0NAQEhdKFtDSDNdKUMoTzEpPVtDSF1bQ0gyXVtDQEhdKFtDSDJdW0NAXTEyW0NASF0oW0NIM10pW0NAQEhdMltDSDNdKVtDSDJdW0NIMl1OM1tDSDJdW0NIMl1PW0NAQEhdKEMoPU8pW05IXUMjTilbQ0BASF0oW0NAQEhdKFtDSDJdMylPW0NIM10pQyg9TylTKD1PKVtDQEBIXTRTQyg9TylbTkhdW0NASF00W0NIMl1bQ0BIXShbT0hdKVtDSDNd

>  <s_glide_docking_method>  (1) 
confgen

>  <s_i_glide_gridfile>  (1) 
gpcr_5ht2c_6bqh_protein_autoprepared_prepared

>  <s_lp_Force_Field>  (1) 
S-OPLS

>  <s_lp_Variant>  (1) 
DiffSBDD_7_num_sample_50-5

>  <s_m_source_file>  (1) 
generated__ligand_DiffSBDD_2026-05-06_prepared.sdf

>  <GenAI_Model>  (1) 
DiffSBDD

>  <Protein>  (1) 
GPCR_5HT2C

$$$$
DiffSBDD_5_num_sample_50
     RDKit          3D

  0  0  0  0  0  0  0  0  0  0999 V3000
M  V30 BEGIN CTAB
M  V30 COUNTS 79 81 0 0 1
M  V30 BEGIN ATOM
M  V30 1 C 37.458225 32.898213 59.636424 0
M  V30 2 C 37.284896 35.430873 59.810414 0 CFG=2
M  V30 3 N 39.516823 25.775909 57.112271 0
M  V30 4 F 41.367657 36.376482 66.541662 0
M  V30 5 C 37.281151 29.640578 58.560840 0
M  V30 6 N 37.190434 32.101295 58.663076 0 CHG=1
M  V30 7 C 38.221763 28.421054 56.459122 0 CFG=1
M  V30 8 C 40.935031 35.285792 64.491334 0 CFG=2
M  V30 9 C 36.776425 37.191458 61.432550 0
M  V30 10 C 36.507344 30.864400 59.064560 0 CFG=2
M  V30 11 N 37.067518 32.430295 60.777375 0
M  V30 12 C 37.604752 38.396906 60.929140 0
M  V30 13 C 39.422742 34.453802 61.585191 0 CFG=2
M  V30 14 C 36.361803 37.360193 62.906168 0
M  V30 15 N 41.467397 35.621377 62.108135 0 CHG=1
M  V30 16 C 40.246378 26.781500 56.337591 0
M  V30 17 C 35.836112 35.119120 59.400581 0
M  V30 18 C 36.431781 31.104931 60.676378 0
M  V30 19 C 38.146385 34.200759 59.448974 0 CFG=1
M  V30 20 C 41.591061 36.215728 63.453446 0
M  V30 21 O 38.254671 25.025737 55.390777 0
M  V30 22 C 41.591648 35.244104 65.877752 0
M  V30 23 C 37.880532 24.021408 57.525022 0
M  V30 24 C 38.571507 24.987864 56.578051 0
M  V30 25 S 40.872507 33.655307 63.726772 0
M  V30 26 C 39.527352 34.129910 60.101846 0
M  V30 27 C 38.746941 35.833861 61.741936 0
M  V30 28 C 38.268375 29.326848 54.187016 0
M  V30 29 O 37.867472 28.292763 55.079229 0
M  V30 30 O 40.168862 28.508598 57.970652 0
M  V30 31 N 37.378554 35.855526 61.222033 0
M  V30 32 C 39.753020 28.209035 56.653271 0 CFG=2
M  V30 33 N 40.758003 34.347481 62.178300 0
M  V30 34 C 37.645266 29.725651 57.056175 0
M  V30 35 H 37.636107 36.255172 59.192035 0
M  V30 36 H 39.727946 25.697005 58.095999 0
M  V30 37 H 36.611789 28.795583 58.672326 0
M  V30 38 H 38.149411 29.451035 59.189240 0
M  V30 39 H 37.687826 27.612845 56.955305 0
M  V30 40 H 39.905501 35.621434 64.620485 0
M  V30 41 H 35.867427 37.240856 60.846626 0
M  V30 42 H 35.499653 30.821532 58.653660 0
M  V30 43 H 37.174797 32.918052 61.656007 0
M  V30 44 H 37.033635 39.317819 61.053505 0
M  V30 45 H 38.538495 38.535698 61.469403 0
M  V30 46 H 37.846067 38.318653 59.870051 0
M  V30 47 H 38.805746 33.702397 62.073577 0
M  V30 48 H 35.723273 38.235318 63.030102 0
M  V30 49 H 35.802235 36.495889 63.265981 0
M  V30 50 H 37.218872 37.494438 63.564278 0
M  V30 51 H 42.376118 35.424052 61.717006 0
M  V30 52 H 40.177486 26.595568 55.264615 0
M  V30 53 H 41.304710 26.697993 56.584922 0
M  V30 54 H 35.799693 34.521590 58.489359 0
M  V30 55 H 35.307450 34.556942 60.170496 0
M  V30 56 H 35.279769 36.021507 59.172070 0
M  V30 57 H 35.408962 31.121366 61.053616 0
M  V30 58 H 37.035079 30.404645 61.242396 0
M  V30 59 H 38.267405 34.251935 58.368424 0
M  V30 60 H 41.067366 37.169741 63.431179 0
M  V30 61 H 42.642577 36.399524 63.676868 0
M  V30 62 H 41.167737 34.445475 66.487967 0
M  V30 63 H 42.667326 35.089335 65.819852 0
M  V30 64 H 38.580501 23.254402 57.853523 0
M  V30 65 H 37.492565 24.543163 58.398505 0
M  V30 66 H 37.047384 23.528531 57.025621 0
M  V30 67 H 39.930397 33.128410 59.956296 0
M  V30 68 H 40.216894 34.821443 59.618896 0
M  V30 69 H 38.736790 36.119873 62.790851 0
M  V30 70 H 39.333518 36.573564 61.201267 0
M  V30 71 H 37.901960 29.087566 53.188759 0
M  V30 72 H 37.848199 30.295797 54.457862 0
M  V30 73 H 39.351189 29.419380 54.118025 0
M  V30 74 H 39.947144 29.408308 58.150786 0
M  V30 75 H 40.303120 28.905530 56.022566 0
M  V30 76 H 38.336174 30.545950 56.862336 0
M  V30 77 H 36.727253 29.976225 56.520781 0
M  V30 78 H 40.950189 36.226008 61.487608 0
M  V30 79 H 37.349388 32.325421 57.688691 0
M  V30 END ATOM
M  V30 BEGIN BOND
M  V30 1 2 6 1
M  V30 2 1 10 5
M  V30 3 1 10 6
M  V30 4 1 11 1
M  V30 5 1 12 9
M  V30 6 1 14 9
M  V30 7 1 16 3
M  V30 8 1 17 2
M  V30 9 1 18 10
M  V30 10 1 18 11
M  V30 11 1 19 1
M  V30 12 1 19 2
M  V30 13 1 20 8
M  V30 14 1 20 15
M  V30 15 1 22 4
M  V30 16 1 22 8
M  V30 17 1 24 3
M  V30 18 2 24 21
M  V30 19 1 24 23
M  V30 20 1 25 8
M  V30 21 1 26 13
M  V30 22 1 26 19
M  V30 23 1 27 13
M  V30 24 1 29 7
M  V30 25 1 29 28
M  V30 26 1 31 2
M  V30 27 1 31 9
M  V30 28 1 31 27
M  V30 29 1 32 7
M  V30 30 1 32 16
M  V30 31 1 32 30
M  V30 32 1 33 13
M  V30 33 1 33 15
M  V30 34 1 33 25
M  V30 35 1 34 5
M  V30 36 1 34 7
M  V30 37 1 2 35 CFG=3
M  V30 38 1 36 3
M  V30 39 1 37 5
M  V30 40 1 38 5
M  V30 41 1 7 39 CFG=1
M  V30 42 1 8 40 CFG=1
M  V30 43 1 41 9
M  V30 44 1 10 42 CFG=3
M  V30 45 1 43 11
M  V30 46 1 44 12
M  V30 47 1 45 12
M  V30 48 1 46 12
M  V30 49 1 13 47 CFG=1
M  V30 50 1 48 14
M  V30 51 1 49 14
M  V30 52 1 50 14
M  V30 53 1 51 15
M  V30 54 1 52 16
M  V30 55 1 53 16
M  V30 56 1 54 17
M  V30 57 1 55 17
M  V30 58 1 56 17
M  V30 59 1 57 18
M  V30 60 1 58 18
M  V30 61 1 19 59 CFG=3
M  V30 62 1 60 20
M  V30 63 1 61 20
M  V30 64 1 62 22
M  V30 65 1 63 22
M  V30 66 1 64 23
M  V30 67 1 65 23
M  V30 68 1 66 23
M  V30 69 1 67 26
M  V30 70 1 68 26
M  V30 71 1 69 27
M  V30 72 1 70 27
M  V30 73 1 71 28
M  V30 74 1 72 28
M  V30 75 1 73 28
M  V30 76 1 74 30
M  V30 77 1 32 75 CFG=3
M  V30 78 1 76 34
M  V30 79 1 77 34
M  V30 80 1 78 15
M  V30 81 1 79 6
M  V30 END BOND
M  V30 END CTAB
M  END
>  <i_epik_Tot_Q>  (1) 
2

>  <i_epik_Tot_abs_Q>  (1) 
2

>  <i_i_glide_confnum>  (1) 
2361

>  <i_i_glide_lignum>  (1) 
19

>  <i_i_glide_posenum>  (1) 
310

>  <i_i_glide_rotatable_bonds>  (1) 
13

>  <i_lp_mmshare_version>  (1) 
72125

>  <i_m_source_file_index>  (1) 
6

>  <i_f3d_flags>  (1) 
0

>  <num_sample>  (1) 
50

>  <b_lp_Chiralities_Consistent>  (1) 
1

>  <r_epik_Charging_Adjusted_Penalty>  (1) 
1.2202907703101018

>  <r_epik_Ionization_Penalty>  (1) 
1.220291206888735

>  <r_epik_Ionization_Penalty_Charging>  (1) 
0.00010224848283174563

>  <r_epik_Ionization_Penalty_Neutral>  (1) 
1.2201889584059034

>  <r_epik_State_Penalty>  (1) 
1.2201885218272701

>  <r_glide_ring_energy>  (1) 
0

>  <r_i_docking_score>  (1) 
-3.325138442055358

>  <r_i_glide_ecoul>  (1) 
-1.3562766516494555

>  <r_i_glide_eff_state_penalty>  (1) 
1.2201885218272701

>  <r_i_glide_einternal>  (1) 
7.464166641655531

>  <r_i_glide_emodel>  (1) 
-32.030118649069465

>  <r_i_glide_emodel_strain>  (1) 
6.0592544335892029

>  <r_i_glide_energy>  (1) 
-41.498448719633501

>  <r_i_glide_erotb>  (1) 
0.64218136225351719

>  <r_i_glide_esite>  (1) 
-0.15388983868841988

>  <r_i_glide_evdw>  (1) 
-40.142172067984042

>  <r_i_glide_gscore>  (1) 
-4.5453269638826281

>  <r_i_glide_gscore_strain>  (1) 
0.51481360839730073

>  <r_i_glide_hbond>  (1) 
0

>  <r_i_glide_ligand_efficiency>  (1) 
-0.097798189472216412

>  <r_i_glide_ligand_efficiency_ln>  (1) 
-0.73461634882416527

>  <r_i_glide_ligand_efficiency_sa>  (1) 
-0.31682816875776365

>  <r_i_glide_lipo>  (1) 
-2.6550532000440157

>  <r_i_glide_metal>  (1) 
-0

>  <r_i_glide_rewards>  (1) 
-0.68282879465438906

>  <r_lp_Energy>  (1) 
27.210827999999999

>  <s_epik_Chemistry_Notes>  (1) 
This compound has an imine and may undergo hydrolysis. This compound has a N-S or N-O group and may undergo hydrolysis at high or low pH.

>  <s_epik_cmdline>  (1) 
J2VwaWtfcHl0aG9uJywgJy1waHQnLCAnMS4wJywgJy1waCcsICc3LjQnLCAnLXRuJywgJzgnLCAnLW1hJywgJzUwMCcsICctaW1hZScsICc8aW5maWxlLm1hZT4nLCAnLW9tYWUnLCAnPG91dGZpbGUubWFlPic=

>  <s_epik_input>  (1) 
RltDSDJdW0NASF0xW0NIMl1bTkhdTihTMSlbQ0BASF0oW0NIMl1OMltDSF0oW0NIM10pW0NIM10pW0NIMl1bQ0BASF0oW0NASF0yW0NIM10pQzM9TltDQEhdKFtDSDJdW05IXTMpW0NIMl1bQ0gyXVtDQEBIXShPW0NIM10pW0NAQEhdKFtPSF0pW0NIMl1bTkhdQyg9TylbQ0gzXQ==

>  <s_glide_docking_method>  (1) 
confgen

>  <s_i_glide_gridfile>  (1) 
gpcr_5ht2c_6bqh_protein_autoprepared_prepared

>  <s_lp_Force_Field>  (1) 
S-OPLS

>  <s_lp_Variant>  (1) 
DiffSBDD_5_num_sample_50-6

>  <s_m_source_file>  (1) 
generated__ligand_DiffSBDD_2026-05-06_prepared.sdf

>  <GenAI_Model>  (1) 
DiffSBDD

>  <Protein>  (1) 
GPCR_5HT2C

$$$$
DiffSBDD_0_num_sample_50
     RDKit          3D

  0  0  0  0  0  0  0  0  0  0999 V3000
M  V30 BEGIN CTAB
M  V30 COUNTS 65 69 0 0 1
M  V30 BEGIN ATOM
M  V30 1 C 39.307127 27.984203 50.667817 0
M  V30 2 C 38.700178 27.919920 51.933447 0
M  V30 3 C 38.099373 28.968020 54.165607 0
M  V30 4 S 40.615993 34.400811 61.853534 0
M  V30 5 O 38.799712 33.534590 59.630198 0
M  V30 6 C 39.846140 31.102980 55.855656 0
M  V30 7 C 35.149868 31.921862 59.773744 0
M  V30 8 C 39.467414 30.190340 52.394480 0
M  V30 9 C 40.267403 29.711952 55.323825 0
M  V30 10 C 42.094086 33.868531 64.725104 0
M  V30 11 C 40.783965 32.433390 63.640697 0
M  V30 12 F 40.555589 29.221436 49.053459 0
M  V30 13 C 40.069155 30.249635 51.132638 0
M  V30 14 C 40.847172 32.064224 64.905330 0
M  V30 15 C 41.710927 33.629437 63.213039 0 CFG=1
M  V30 16 C 39.083842 29.429481 59.996939 0
M  V30 17 C 36.975257 31.489272 61.573378 0
M  V30 18 O 38.668972 28.255289 59.907696 0
M  V30 19 C 38.841676 32.727568 60.559465 0
M  V30 20 C 35.657035 33.710259 61.425901 0
M  V30 21 C 38.109785 30.540540 59.569114 0 CFG=2
M  V30 22 C 39.077039 28.713667 55.336307 0 CFG=1
M  V30 23 C 35.646333 32.194647 61.197258 0
M  V30 24 N 38.082044 30.186712 57.008960 0 CFG=1 CHG=1
M  V30 25 C 39.884492 31.966253 62.698072 0
M  V30 26 C 38.246946 31.100947 58.129787 0 CFG=2
M  V30 27 C 39.727517 32.841262 61.730437 0
M  V30 28 N 38.065069 31.611844 60.592799 0
M  V30 29 C 39.404855 30.792496 57.247092 0 CFG=2
M  V30 30 C 38.773317 29.024516 52.800211 0
M  V30 31 O 40.238675 29.766576 60.338928 0 CHG=-1
M  V30 32 C 38.383791 28.757454 56.739144 0
M  V30 33 C 39.985607 29.153882 50.268373 0
M  V30 34 C 41.651245 32.948404 65.576026 0
M  V30 35 H 39.245432 27.138891 50.000288 0
M  V30 36 H 38.172900 27.026034 52.234809 0
M  V30 37 H 37.333389 28.191169 54.154432 0
M  V30 38 H 37.563181 29.906475 54.307689 0
M  V30 39 H 39.047391 31.562267 55.268871 0
M  V30 40 H 40.667287 31.816389 55.852450 0
M  V30 41 H 35.781424 32.435299 59.053534 0
M  V30 42 H 35.138932 30.865250 59.519026 0
M  V30 43 H 34.137457 32.297179 59.625995 0
M  V30 44 H 39.519347 31.046615 53.049457 0
M  V30 45 H 40.720297 29.878978 54.370087 0
M  V30 46 H 41.058369 29.221485 55.895554 0
M  V30 47 H 42.723273 34.699099 65.011451 0
M  V30 48 H 40.589892 31.144847 50.822419 0
M  V30 49 H 40.244385 31.295048 65.365933 0
M  V30 50 H 42.592930 33.221071 62.718155 0
M  V30 51 H 36.795782 30.423288 61.700442 0
M  V30 52 H 37.279832 31.850024 62.554549 0
M  V30 53 H 36.364848 34.220182 60.773015 0
M  V30 54 H 34.667405 34.085186 61.188929 0
M  V30 55 H 35.867379 34.006350 62.451685 0
M  V30 56 H 37.140756 30.045542 59.566273 0
M  V30 57 H 39.482531 27.711077 55.189548 0
M  V30 58 H 34.890013 31.785625 61.864755 0
M  V30 59 H 39.364286 31.022302 62.768850 0
M  V30 60 H 37.653712 31.983041 57.898934 0
M  V30 61 H 40.127852 30.144968 57.739158 0
M  V30 62 H 37.467387 28.173719 56.739994 0
M  V30 63 H 39.034992 28.292716 57.476729 0
M  V30 64 H 41.838901 32.938926 66.639772 0
M  V30 65 H 37.587905 30.649272 56.258215 0
M  V30 END ATOM
M  V30 BEGIN BOND
M  V30 1 2 2 1
M  V30 2 1 9 6
M  V30 3 1 13 8
M  V30 4 2 14 11
M  V30 5 1 15 4
M  V30 6 1 15 10
M  V30 7 1 15 11
M  V30 8 2 18 16
M  V30 9 2 19 5
M  V30 10 1 21 16
M  V30 11 1 22 3
M  V30 12 1 22 9
M  V30 13 1 23 7
M  V30 14 1 23 17
M  V30 15 1 23 20
M  V30 16 1 25 11
M  V30 17 1 26 21
M  V30 18 1 26 24
M  V30 19 1 27 4
M  V30 20 1 27 19
M  V30 21 2 27 25
M  V30 22 1 28 17
M  V30 23 1 28 19
M  V30 24 1 28 21
M  V30 25 1 29 6
M  V30 26 1 29 24
M  V30 27 1 29 26
M  V30 28 1 30 2
M  V30 29 1 30 3
M  V30 30 2 30 8
M  V30 31 1 31 16
M  V30 32 1 32 22
M  V30 33 1 32 24
M  V30 34 1 33 1
M  V30 35 1 33 12
M  V30 36 2 33 13
M  V30 37 2 34 10
M  V30 38 1 34 14
M  V30 39 1 35 1
M  V30 40 1 36 2
M  V30 41 1 37 3
M  V30 42 1 38 3
M  V30 43 1 39 6
M  V30 44 1 40 6
M  V30 45 1 41 7
M  V30 46 1 42 7
M  V30 47 1 43 7
M  V30 48 1 44 8
M  V30 49 1 45 9
M  V30 50 1 46 9
M  V30 51 1 47 10
M  V30 52 1 48 13
M  V30 53 1 49 14
M  V30 54 1 15 50 CFG=3
M  V30 55 1 51 17
M  V30 56 1 52 17
M  V30 57 1 53 20
M  V30 58 1 54 20
M  V30 59 1 55 20
M  V30 60 1 21 56 CFG=3
M  V30 61 1 22 57 CFG=3
M  V30 62 1 58 23
M  V30 63 1 59 25
M  V30 64 1 26 60 CFG=3
M  V30 65 1 29 61 CFG=1
M  V30 66 1 62 32
M  V30 67 1 63 32
M  V30 68 1 64 34
M  V30 69 1 24 65 CFG=3
M  V30 END BOND
M  V30 END CTAB
M  END
>  <i_epik_Tot_Q>  (1) 
0

>  <i_epik_Tot_abs_Q>  (1) 
2

>  <i_i_glide_confnum>  (1) 
16

>  <i_i_glide_lignum>  (1) 
3

>  <i_i_glide_posenum>  (1) 
102

>  <i_i_glide_rotatable_bonds>  (1) 
9

>  <i_lp_mmshare_version>  (1) 
72125

>  <i_m_source_file_index>  (1) 
1

>  <i_f3d_flags>  (1) 
0

>  <num_sample>  (1) 
50

>  <b_lp_Chiralities_Consistent>  (1) 
1

>  <r_epik_Charging_Adjusted_Penalty>  (1) 
0.0020295482604282666

>  <r_epik_Ionization_Penalty>  (1) 
0.0020295482639142975

>  <r_epik_Ionization_Penalty_Charging>  (1) 
0.0020295482604282666

>  <r_epik_Ionization_Penalty_Neutral>  (1) 
3.4860309872641501e-12

>  <r_epik_State_Penalty>  (1) 
-0

>  <r_glide_ring_energy>  (1) 
0

>  <r_i_docking_score>  (1) 
-3.2685662313727266

>  <r_i_glide_ecoul>  (1) 
-2.9000412739031174

>  <r_i_glide_eff_state_penalty>  (1) 
-0

>  <r_i_glide_einternal>  (1) 
12.24599536001331

>  <r_i_glide_emodel>  (1) 
-46.290849931878149

>  <r_i_glide_emodel_strain>  (1) 
0.65986416779810497

>  <r_i_glide_energy>  (1) 
-40.604053578777226

>  <r_i_glide_erotb>  (1) 
0.52278502944784222

>  <r_i_glide_esite>  (1) 
-0.067014917801951651

>  <r_i_glide_evdw>  (1) 
-37.704012304874105

>  <r_i_glide_gscore>  (1) 
-3.2685662313727266

>  <r_i_glide_gscore_strain>  (1) 
0

>  <r_i_glide_hbond>  (1) 
0

>  <r_i_glide_ligand_efficiency>  (1) 
-0.096134300922727248

>  <r_i_glide_ligand_efficiency_ln>  (1) 
-0.7221179606876108

>  <r_i_glide_ligand_efficiency_sa>  (1) 
-0.31143781577682811

>  <r_i_glide_lipo>  (1) 
-4.2136952745603269

>  <r_i_glide_metal>  (1) 
-0

>  <r_i_glide_rewards>  (1) 
2.8095657378708827

>  <r_lp_Energy>  (1) 
73.777939000000003

>  <r_lp_tautomer_probability>  (1) 
1

>  <s_epik_cmdline>  (1) 
J2VwaWtfcHl0aG9uJywgJy1waHQnLCAnMS4wJywgJy1waCcsICc3LjQnLCAnLXRuJywgJzgnLCAnLW1hJywgJzUwMCcsICctaW1hZScsICc8aW5maWxlLm1hZT4nLCAnLW9tYWUnLCAnPG91dGZpbGUubWFlPic=

>  <s_epik_input>  (1) 
W2NIXTFbY0hdYyhGKVtjSF1bY0hdYzFbQ0gyXVtDQEhdKFtDSDJdMilbQ0gyXVtDSDJdW0NIXShOMjMpW0NAQEhdM1tDQEBIXShDKD1PKVtPSF0pTihbQ0gyXVtDSF0oW0NIM10pW0NIM10pQyg9TylDKD1bQ0hdNClTW0NASF0oQzQ9NSlbQ0hdPVtDSF1bQ0hdNQ==

>  <s_glide_docking_method>  (1) 
confgen

>  <s_i_glide_gridfile>  (1) 
gpcr_5ht2c_6bqh_protein_autoprepared_prepared

>  <s_lp_Force_Field>  (1) 
S-OPLS

>  <s_lp_Variant>  (1) 
DiffSBDD_0_num_sample_50-3

>  <s_m_source_file>  (1) 
generated__ligand_DiffSBDD_2026-05-06_prepared.sdf

>  <GenAI_Model>  (1) 
DiffSBDD

>  <Protein>  (1) 
GPCR_5HT2C

$$$$
DiffSBDD_5_num_sample_50
     RDKit          3D

  0  0  0  0  0  0  0  0  0  0999 V3000
M  V30 BEGIN CTAB
M  V30 COUNTS 79 81 0 0 1
M  V30 BEGIN ATOM
M  V30 1 C 38.897063 29.515179 57.648314 0
M  V30 2 C 39.230569 26.915834 57.512154 0 CFG=2
M  V30 3 N 37.634942 36.542713 60.534892 0
M  V30 4 F 40.008057 31.009897 49.899973 0
M  V30 5 C 37.443633 30.987595 60.339432 0
M  V30 6 N 37.921165 29.418275 58.497558 0 CHG=1
M  V30 7 C 38.563991 33.014924 61.480123 0 CFG=1
M  V30 8 C 39.252648 29.155211 51.124310 0 CFG=2
M  V30 9 C 37.423313 25.230977 57.064697 0
M  V30 10 C 37.276312 30.707757 58.827461 0 CFG=2
M  V30 11 N 39.065814 30.735211 57.242315 0
M  V30 12 C 38.380101 24.027509 57.209478 0
M  V30 13 C 38.780219 28.128171 54.915979 0 CFG=2
M  V30 14 C 36.270899 24.844327 56.114887 0
M  V30 15 N 38.686664 27.255750 52.551226 0 CHG=1
M  V30 16 C 38.577632 35.418826 60.488718 0
M  V30 17 C 39.125909 26.681853 59.026512 0
M  V30 18 C 38.118845 31.695209 57.840555 0
M  V30 19 C 39.755760 28.347645 57.191406 0 CFG=1
M  V30 20 C 39.241091 27.623564 51.233791 0
M  V30 21 O 37.053740 38.608592 61.220437 0
M  V30 22 C 40.263120 29.722848 50.121268 0
M  V30 23 C 39.227489 37.866179 61.888410 0
M  V30 24 C 37.873371 37.699835 61.182588 0
M  V30 25 S 39.467955 29.814142 52.795707 0
M  V30 26 C 40.053179 28.452795 55.701866 0
M  V30 27 C 38.295624 26.710909 55.289994 0
M  V30 28 C 40.781239 32.149344 61.342524 0
M  V30 29 O 39.696947 32.759447 60.651907 0
M  V30 30 O 39.521972 34.864627 62.648915 0
M  V30 31 N 38.025450 26.552951 56.730916 0
M  V30 32 C 38.481332 34.537159 61.750734 0 CFG=2
M  V30 33 N 39.066361 28.311050 53.491894 0
M  V30 34 C 37.299114 32.459984 60.778093 0
M  V30 35 H 40.013370 26.235812 57.175254 0
M  V30 36 H 36.749132 36.429688 60.063651 0
M  V30 37 H 38.383408 30.570563 60.700079 0
M  V30 38 H 36.677067 30.420829 60.865358 0
M  V30 39 H 38.652054 32.488132 62.435443 0
M  V30 40 H 38.268332 29.458286 50.815502 0
M  V30 41 H 36.964528 25.368338 58.043080 0
M  V30 42 H 36.221807 30.684691 58.565810 0
M  V30 43 H 39.772837 31.017946 56.579608 0
M  V30 44 H 37.847122 23.220867 57.708503 0
M  V30 45 H 38.694747 23.658757 56.238860 0
M  V30 46 H 39.261728 24.197703 57.827306 0
M  V30 47 H 38.001410 28.842130 55.188912 0
M  V30 48 H 35.874384 23.841715 56.253815 0
M  V30 49 H 35.468497 25.557036 56.260320 0
M  V30 50 H 36.547011 24.809381 55.064717 0
M  V30 51 H 39.065383 26.381078 52.886606 0
M  V30 52 H 39.603918 35.696632 60.252545 0
M  V30 53 H 38.267005 34.832898 59.624668 0
M  V30 54 H 40.064783 26.948076 59.508042 0
M  V30 55 H 38.340566 27.235751 59.518726 0
M  V30 56 H 38.925813 25.643129 59.246311 0
M  V30 57 H 37.483560 32.145825 57.078841 0
M  V30 58 H 38.653964 32.484878 58.364981 0
M  V30 59 H 40.707350 28.463943 57.710724 0
M  V30 60 H 38.682268 27.144878 50.431558 0
M  V30 61 H 40.264918 27.271016 51.171417 0
M  V30 62 H 41.286509 29.655964 50.486835 0
M  V30 63 H 40.190605 29.220700 49.155546 0
M  V30 64 H 39.139249 37.575636 62.936263 0
M  V30 65 H 40.070620 37.335067 61.458789 0
M  V30 66 H 39.504004 38.918430 61.851181 0
M  V30 67 H 40.458044 29.432394 55.453713 0
M  V30 68 H 40.824032 27.723421 55.455376 0
M  V30 69 H 37.376972 26.583807 54.724871 0
M  V30 70 H 39.003887 25.945885 54.968267 0
M  V30 71 H 41.611926 31.994506 60.654165 0
M  V30 72 H 41.137348 32.772263 62.165153 0
M  V30 73 H 40.491949 31.173716 61.737071 0
M  V30 74 H 40.346863 34.652370 62.239129 0
M  V30 75 H 37.541821 34.758464 62.253368 0
M  V30 76 H 36.462931 32.537263 61.475513 0
M  V30 77 H 37.002265 33.072150 59.928082 0
M  V30 78 H 37.675916 27.231865 52.517875 0
M  V30 79 H 37.625521 28.548233 58.913949 0
M  V30 END ATOM
M  V30 BEGIN BOND
M  V30 1 2 6 1
M  V30 2 1 10 5
M  V30 3 1 10 6
M  V30 4 1 11 1
M  V30 5 1 12 9
M  V30 6 1 14 9
M  V30 7 1 16 3
M  V30 8 1 17 2
M  V30 9 1 18 10
M  V30 10 1 18 11
M  V30 11 1 19 1
M  V30 12 1 19 2
M  V30 13 1 20 8
M  V30 14 1 20 15
M  V30 15 1 22 4
M  V30 16 1 22 8
M  V30 17 1 24 3
M  V30 18 2 24 21
M  V30 19 1 24 23
M  V30 20 1 25 8
M  V30 21 1 26 13
M  V30 22 1 26 19
M  V30 23 1 27 13
M  V30 24 1 29 7
M  V30 25 1 29 28
M  V30 26 1 31 2
M  V30 27 1 31 9
M  V30 28 1 31 27
M  V30 29 1 32 7
M  V30 30 1 32 16
M  V30 31 1 32 30
M  V30 32 1 33 13
M  V30 33 1 33 15
M  V30 34 1 33 25
M  V30 35 1 34 5
M  V30 36 1 34 7
M  V30 37 1 2 35 CFG=3
M  V30 38 1 36 3
M  V30 39 1 37 5
M  V30 40 1 38 5
M  V30 41 1 7 39 CFG=1
M  V30 42 1 8 40 CFG=3
M  V30 43 1 41 9
M  V30 44 1 10 42 CFG=3
M  V30 45 1 43 11
M  V30 46 1 44 12
M  V30 47 1 45 12
M  V30 48 1 46 12
M  V30 49 1 13 47 CFG=1
M  V30 50 1 48 14
M  V30 51 1 49 14
M  V30 52 1 50 14
M  V30 53 1 51 15
M  V30 54 1 52 16
M  V30 55 1 53 16
M  V30 56 1 54 17
M  V30 57 1 55 17
M  V30 58 1 56 17
M  V30 59 1 57 18
M  V30 60 1 58 18
M  V30 61 1 19 59 CFG=1
M  V30 62 1 60 20
M  V30 63 1 61 20
M  V30 64 1 62 22
M  V30 65 1 63 22
M  V30 66 1 64 23
M  V30 67 1 65 23
M  V30 68 1 66 23
M  V30 69 1 67 26
M  V30 70 1 68 26
M  V30 71 1 69 27
M  V30 72 1 70 27
M  V30 73 1 71 28
M  V30 74 1 72 28
M  V30 75 1 73 28
M  V30 76 1 74 30
M  V30 77 1 32 75 CFG=1
M  V30 78 1 76 34
M  V30 79 1 77 34
M  V30 80 1 78 15
M  V30 81 1 79 6
M  V30 END BOND
M  V30 END CTAB
M  END
>  <i_epik_Tot_Q>  (1) 
2

>  <i_epik_Tot_abs_Q>  (1) 
2

>  <i_i_glide_confnum>  (1) 
82

>  <i_i_glide_lignum>  (1) 
19

>  <i_i_glide_posenum>  (1) 
56

>  <i_i_glide_rotatable_bonds>  (1) 
13

>  <i_lp_mmshare_version>  (1) 
72125

>  <i_m_source_file_index>  (1) 
6

>  <i_f3d_flags>  (1) 
0

>  <num_sample>  (1) 
50

>  <b_lp_Chiralities_Consistent>  (1) 
1

>  <r_epik_Charging_Adjusted_Penalty>  (1) 
1.2202907703101018

>  <r_epik_Ionization_Penalty>  (1) 
1.220291206888735

>  <r_epik_Ionization_Penalty_Charging>  (1) 
0.00010224848283174563

>  <r_epik_Ionization_Penalty_Neutral>  (1) 
1.2201889584059034

>  <r_epik_State_Penalty>  (1) 
1.2201885218272701

>  <r_glide_ring_energy>  (1) 
0

>  <r_i_docking_score>  (1) 
-3.2607849108017235

>  <r_i_glide_ecoul>  (1) 
-1.5027329396768709

>  <r_i_glide_eff_state_penalty>  (1) 
1.2201885218272701

>  <r_i_glide_einternal>  (1) 
13.896850156300079

>  <r_i_glide_emodel>  (1) 
-22.48354794505763

>  <r_i_glide_emodel_strain>  (1) 
5.2773969208444527

>  <r_i_glide_energy>  (1) 
-34.390935459276648

>  <r_i_glide_erotb>  (1) 
0.64218136225351719

>  <r_i_glide_esite>  (1) 
-0.035840206861983491

>  <r_i_glide_evdw>  (1) 
-32.88820251959978

>  <r_i_glide_gscore>  (1) 
-4.4809734326289936

>  <r_i_glide_gscore_strain>  (1) 
0.31934923021111317

>  <r_i_glide_hbond>  (1) 
0

>  <r_i_glide_ligand_efficiency>  (1) 
-0.09590543855299187

>  <r_i_glide_ligand_efficiency_ln>  (1) 
-0.72039884871482707

>  <r_i_glide_ligand_efficiency_sa>  (1) 
-0.310696390542965

>  <r_i_glide_lipo>  (1) 
-3.8995590415334038

>  <r_i_glide_metal>  (1) 
-0

>  <r_i_glide_rewards>  (1) 
0.36271529023328286

>  <r_lp_Energy>  (1) 
27.210827999999999

>  <s_epik_Chemistry_Notes>  (1) 
This compound has an imine and may undergo hydrolysis. This compound has a N-S or N-O group and may undergo hydrolysis at high or low pH.

>  <s_epik_cmdline>  (1) 
J2VwaWtfcHl0aG9uJywgJy1waHQnLCAnMS4wJywgJy1waCcsICc3LjQnLCAnLXRuJywgJzgnLCAnLW1hJywgJzUwMCcsICctaW1hZScsICc8aW5maWxlLm1hZT4nLCAnLW9tYWUnLCAnPG91dGZpbGUubWFlPic=

>  <s_epik_input>  (1) 
RltDSDJdW0NASF0xW0NIMl1bTkhdTihTMSlbQ0BASF0oW0NIMl1OMltDSF0oW0NIM10pW0NIM10pW0NIMl1bQ0BASF0oW0NASF0yW0NIM10pQzM9TltDQEhdKFtDSDJdW05IXTMpW0NIMl1bQ0gyXVtDQEBIXShPW0NIM10pW0NAQEhdKFtPSF0pW0NIMl1bTkhdQyg9TylbQ0gzXQ==

>  <s_glide_docking_method>  (1) 
confgen

>  <s_i_glide_gridfile>  (1) 
gpcr_5ht2c_6bqh_protein_autoprepared_prepared

>  <s_lp_Force_Field>  (1) 
S-OPLS

>  <s_lp_Variant>  (1) 
DiffSBDD_5_num_sample_50-6

>  <s_m_source_file>  (1) 
generated__ligand_DiffSBDD_2026-05-06_prepared.sdf

>  <GenAI_Model>  (1) 
DiffSBDD

>  <Protein>  (1) 
GPCR_5HT2C

$$$$
DiffSBDD_7_num_sample_50
     RDKit          3D

  0  0  0  0  0  0  0  0  0  0999 V3000
M  V30 BEGIN CTAB
M  V30 COUNTS 93 96 0 0 1
M  V30 BEGIN ATOM
M  V30 1 C 43.381892 29.310039 69.803248 0 CFG=1
M  V30 2 O 38.906396 30.947745 62.061505 0
M  V30 3 C 43.950897 30.105459 66.342724 0
M  V30 4 C 40.223361 34.262806 62.559424 0
M  V30 5 O 43.578256 29.498117 72.180237 0 CHG=-1
M  V30 6 N 35.651804 33.893671 59.323623 0
M  V30 7 S 37.886196 29.221485 59.174539 0
M  V30 8 N 39.938425 27.294821 57.025464 0
M  V30 9 N 40.743413 32.881565 62.717867 0 CFG=1 CHG=1
M  V30 10 S 37.467409 26.644143 57.453494 0
M  V30 11 C 35.067419 33.552025 60.476798 0
M  V30 12 C 45.465850 29.281009 64.279712 0
M  V30 13 C 39.542122 30.003650 62.912483 0
M  V30 14 C 39.702001 31.333264 60.948858 0 CFG=1
M  V30 15 C 37.885141 28.433709 57.478974 0 CFG=2
M  V30 16 N 34.667405 33.221429 61.504455 0
M  V30 17 O 38.674733 34.140072 60.722800 0
M  V30 18 C 43.676944 31.440529 65.716354 0
M  V30 19 O 37.499997 30.472641 54.876014 0
M  V30 20 C 42.995845 27.610226 66.677825 0
M  V30 21 C 38.846285 31.953318 59.800409 0 CFG=2
M  V30 22 C 38.899276 30.271226 54.824681 0 CFG=1
M  V30 23 O 44.667413 30.983597 70.929339 0
M  V30 24 C 39.303608 28.585856 56.832299 0 CFG=2
M  V30 25 O 39.569000 25.047782 57.453472 0
M  V30 26 C 37.869566 33.071982 60.233018 0 CFG=2
M  V30 27 C 43.227644 30.290850 68.643527 0
M  V30 28 C 43.920830 29.990595 71.081777 0
M  V30 29 C 42.042216 32.229940 67.425279 0
M  V30 30 C 42.222402 31.848644 65.948914 0 CFG=1
M  V30 31 C 41.766070 33.031834 65.051983 0
M  V30 32 C 40.917033 32.161882 61.422192 0
M  V30 33 C 42.205182 31.180255 68.524328 0
M  V30 34 C 39.258769 28.852156 55.311969 0
M  V30 35 C 42.076905 28.533718 70.092958 0
M  V30 36 C 43.415483 28.779771 65.814578 0 CFG=2
M  V30 37 C 38.760066 34.254140 62.127833 0
M  V30 38 C 37.045803 33.695707 59.083768 0
M  V30 39 C 41.983013 32.842171 63.532156 0
M  V30 40 O 39.080889 28.605219 59.904029 0
M  V30 41 C 38.344059 30.953029 58.721109 0
M  V30 42 C 39.343276 30.504368 53.378057 0
M  V30 43 C 44.885151 29.104400 65.674755 0 CFG=2
M  V30 44 C 39.176716 26.200448 57.309398 0
M  V30 45 O 38.266093 31.319676 57.555818 0
M  V30 46 O 37.542014 34.021410 58.012026 0
M  V30 47 O 44.254399 30.204648 67.726176 0
M  V30 48 H 44.145390 28.588494 69.512490 0
M  V30 49 H 40.838849 34.848423 61.874700 0
M  V30 50 H 40.275565 34.769694 63.523728 0
M  V30 51 H 35.068056 34.291832 58.602203 0
M  V30 52 H 40.936151 27.173920 56.921146 0
M  V30 53 H 44.707414 29.598436 63.564037 0
M  V30 54 H 46.266458 30.021771 64.294317 0
M  V30 55 H 45.867384 28.331574 63.923009 0
M  V30 56 H 39.067388 30.027656 63.888074 0
M  V30 57 H 39.467174 28.997408 62.500174 0
M  V30 58 H 40.596649 30.203360 63.096495 0
M  V30 59 H 40.180719 30.453688 60.531081 0
M  V30 60 H 37.128391 28.967983 56.909463 0
M  V30 61 H 43.906405 31.342783 64.666051 0
M  V30 62 H 44.373545 32.181524 66.110581 0
M  V30 63 H 37.283501 30.996147 55.641832 0
M  V30 64 H 43.623496 27.529630 67.563231 0
M  V30 65 H 41.955348 27.723524 66.979259 0
M  V30 66 H 43.090975 26.682455 66.114350 0
M  V30 67 H 39.509416 32.546310 59.188142 0
M  V30 68 H 39.410360 31.019666 55.428980 0
M  V30 69 H 39.933082 29.332051 57.314015 0
M  V30 70 H 37.221276 32.653027 60.998393 0
M  V30 71 H 42.690588 33.069753 67.679833 0
M  V30 72 H 41.026158 32.608187 67.548254 0
M  V30 73 H 41.573069 31.001597 65.722216 0
M  V30 74 H 42.300924 33.932060 65.359413 0
M  V30 75 H 40.715008 33.236251 65.258545 0
M  V30 76 H 41.253123 32.824170 60.653502 0
M  V30 77 H 41.738634 31.453949 61.500219 0
M  V30 78 H 41.445872 31.194357 69.291879 0
M  V30 79 H 38.631855 28.113966 54.808961 0
M  V30 80 H 40.267406 28.659811 54.978510 0
M  V30 81 H 41.332195 29.163987 70.579919 0
M  V30 82 H 41.624628 28.142697 69.183427 0
M  V30 83 H 42.266170 27.682373 70.747846 0
M  V30 84 H 42.819592 28.855825 64.906966 0
M  V30 85 H 38.280196 35.195290 62.402081 0
M  V30 86 H 38.267400 33.437668 62.653367 0
M  V30 87 H 42.461400 31.884775 63.365395 0
M  V30 88 H 42.667425 33.598270 63.152461 0
M  V30 89 H 40.425627 30.421841 53.283949 0
M  V30 90 H 38.891635 29.784131 52.694221 0
M  V30 91 H 39.067627 31.508507 53.053452 0
M  V30 92 H 45.563337 28.588701 66.352628 0
M  V30 93 H 40.056207 32.348413 63.234359 0
M  V30 END ATOM
M  V30 BEGIN BOND
M  V30 1 1 9 4
M  V30 2 1 11 6
M  V30 3 1 13 2
M  V30 4 1 14 2
M  V30 5 1 15 7
M  V30 6 1 15 10
M  V30 7 3 16 11
M  V30 8 1 18 3
M  V30 9 1 21 14
M  V30 10 1 22 19
M  V30 11 1 24 8
M  V30 12 1 24 15
M  V30 13 1 26 17
M  V30 14 1 26 21
M  V30 15 1 27 1
M  V30 16 1 28 1
M  V30 17 1 28 5
M  V30 18 2 28 23
M  V30 19 1 30 18
M  V30 20 1 30 29
M  V30 21 1 31 30
M  V30 22 1 32 9
M  V30 23 1 32 14
M  V30 24 2 33 27
M  V30 25 1 33 29
M  V30 26 1 34 22
M  V30 27 1 34 24
M  V30 28 1 35 1
M  V30 29 1 36 3
M  V30 30 1 36 20
M  V30 31 1 37 4
M  V30 32 1 37 17
M  V30 33 1 38 6
M  V30 34 1 38 26
M  V30 35 1 39 9
M  V30 36 1 39 31
M  V30 37 2 40 7
M  V30 38 1 7 41 CFG=3
M  V30 39 1 41 21
M  V30 40 1 42 22
M  V30 41 1 43 3
M  V30 42 1 43 12
M  V30 43 1 43 36
M  V30 44 1 44 8
M  V30 45 1 44 10
M  V30 46 2 44 25
M  V30 47 2 45 41
M  V30 48 2 46 38
M  V30 49 1 47 3
M  V30 50 1 47 27
M  V30 51 1 1 48 CFG=3
M  V30 52 1 49 4
M  V30 53 1 50 4
M  V30 54 1 51 6
M  V30 55 1 52 8
M  V30 56 1 53 12
M  V30 57 1 54 12
M  V30 58 1 55 12
M  V30 59 1 56 13
M  V30 60 1 57 13
M  V30 61 1 58 13
M  V30 62 1 14 59 CFG=3
M  V30 63 1 15 60 CFG=3
M  V30 64 1 61 18
M  V30 65 1 62 18
M  V30 66 1 63 19
M  V30 67 1 64 20
M  V30 68 1 65 20
M  V30 69 1 66 20
M  V30 70 1 21 67 CFG=3
M  V30 71 1 22 68 CFG=1
M  V30 72 1 24 69 CFG=1
M  V30 73 1 26 70 CFG=1
M  V30 74 1 71 29
M  V30 75 1 72 29
M  V30 76 1 30 73 CFG=3
M  V30 77 1 74 31
M  V30 78 1 75 31
M  V30 79 1 76 32
M  V30 80 1 77 32
M  V30 81 1 78 33
M  V30 82 1 79 34
M  V30 83 1 80 34
M  V30 84 1 81 35
M  V30 85 1 82 35
M  V30 86 1 83 35
M  V30 87 1 36 84 CFG=3
M  V30 88 1 85 37
M  V30 89 1 86 37
M  V30 90 1 87 39
M  V30 91 1 88 39
M  V30 92 1 89 42
M  V30 93 1 90 42
M  V30 94 1 91 42
M  V30 95 1 43 92 CFG=1
M  V30 96 1 9 93 CFG=1
M  V30 END BOND
M  V30 END CTAB
M  END
>  <i_epik_Tot_Q>  (1) 
0

>  <i_epik_Tot_abs_Q>  (1) 
2

>  <i_i_glide_confnum>  (1) 
3379

>  <i_i_glide_lignum>  (1) 
27

>  <i_i_glide_posenum>  (1) 
161

>  <i_i_glide_rotatable_bonds>  (1) 
14

>  <i_lp_mmshare_version>  (1) 
72125

>  <i_m_source_file_index>  (1) 
8

>  <i_f3d_flags>  (1) 
0

>  <num_sample>  (1) 
50

>  <b_lp_Chiralities_Consistent>  (1) 
1

>  <r_epik_Charging_Adjusted_Penalty>  (1) 
2.2678334573304797

>  <r_epik_Ionization_Penalty>  (1) 
1.1498882506810455

>  <r_epik_Ionization_Penalty_Charging>  (1) 
1.1031410554290029

>  <r_epik_Ionization_Penalty_Neutral>  (1) 
0.046747195252042517

>  <r_epik_State_Penalty>  (1) 
1.164692401901477

>  <r_glide_ring_energy>  (1) 
0

>  <r_i_docking_score>  (1) 
-3.2368183726031097

>  <r_i_glide_ecoul>  (1) 
-1.8936746101450304

>  <r_i_glide_eff_state_penalty>  (1) 
1.164692401901477

>  <r_i_glide_einternal>  (1) 
54.128472032173143

>  <r_i_glide_emodel>  (1) 
-31.045579106907681

>  <r_i_glide_emodel_strain>  (1) 
3.7568756367994496

>  <r_i_glide_energy>  (1) 
-47.959263790460483

>  <r_i_glide_erotb>  (1) 
0.2643022598508753

>  <r_i_glide_esite>  (1) 
-0.12233422907328756

>  <r_i_glide_evdw>  (1) 
-46.065589180315449

>  <r_i_glide_gscore>  (1) 
-4.4015107745045867

>  <r_i_glide_gscore_strain>  (1) 
0

>  <r_i_glide_hbond>  (1) 
0

>  <r_i_glide_ligand_efficiency>  (1) 
-0.068868476012832122

>  <r_i_glide_ligand_efficiency_ln>  (1) 
-0.66736492131948244

>  <r_i_glide_ligand_efficiency_sa>  (1) 
-0.24853435233451471

>  <r_i_glide_lipo>  (1) 
-2.677536762453995

>  <r_i_glide_metal>  (1) 
-0

>  <r_i_glide_rewards>  (1) 
0.72138860770934699

>  <r_lp_Energy>  (1) 
32.883552999999999

>  <s_epik_Chemistry_Notes>  (1) 
This compound contains an acetal/aminal-like group ( X-CH(R)-Y where X, Y are N, S, or O) that may be acid/base labile, releasing an aldehyde.

>  <s_epik_cmdline>  (1) 
J2VwaWtfcHl0aG9uJywgJy1waHQnLCAnMS4wJywgJy1waCcsICc3LjQnLCAnLXRuJywgJzgnLCAnLW1hJywgJzUwMCcsICctaW1hZScsICc8aW5maWxlLm1hZT4nLCAnLW9tYWUnLCAnPG91dGZpbGUubWFlPic=

>  <s_epik_input>  (1) 
W09IXUMoPU8pW0NAQEhdKFtDSDNdKUMoTzEpPVtDSF1bQ0gyXVtDQEhdKFtDSDJdW0NAXTEyW0NASF0oW0NIM10pW0NAQEhdMltDSDNdKVtDSDJdW0NIMl1OM1tDSDJdW0NIMl1PW0NAQEhdKEMoPU8pW05IXUMjTilbQ0BASF0oW0NAQEhdKFtDSDJdMylPW0NIM10pQyg9TylTKD1PKVtDQEBIXTRTQyg9TylbTkhdW0NASF00W0NIMl1bQ0BIXShbT0hdKVtDSDNd

>  <s_glide_docking_method>  (1) 
confgen

>  <s_i_glide_gridfile>  (1) 
gpcr_5ht2c_6bqh_protein_autoprepared_prepared

>  <s_lp_Force_Field>  (1) 
S-OPLS

>  <s_lp_Variant>  (1) 
DiffSBDD_7_num_sample_50-5

>  <s_m_source_file>  (1) 
generated__ligand_DiffSBDD_2026-05-06_prepared.sdf

>  <GenAI_Model>  (1) 
DiffSBDD

>  <Protein>  (1) 
GPCR_5HT2C

$$$$
DiffSBDD_7_num_sample_50
     RDKit          3D

  0  0  0  0  0  0  0  0  0  0999 V3000
M  V30 BEGIN CTAB
M  V30 COUNTS 93 96 0 0 1
M  V30 BEGIN ATOM
M  V30 1 C 38.875317 27.000785 53.092500 0 CFG=1
M  V30 2 O 39.657608 30.996377 62.859102 0
M  V30 3 C 37.498818 26.238896 56.441117 0 CFG=1
M  V30 4 C 38.929837 32.415563 58.393231 0
M  V30 5 O 38.269109 29.099075 52.139581 0 CHG=-1
M  V30 6 N 35.901255 34.785416 60.596573 0
M  V30 7 S 41.841467 33.055966 63.527519 0
M  V30 8 N 42.098221 31.841076 67.050986 0
M  V30 9 N 39.067228 31.367640 59.450320 0 CFG=2 CHG=1
M  V30 10 S 41.067496 34.112453 66.321423 0
M  V30 11 C 36.379829 35.877396 59.966664 0
M  V30 12 C 36.586800 24.023818 55.158977 0
M  V30 13 C 39.640571 29.615999 62.520840 0
M  V30 14 C 39.202030 31.855563 61.829709 0 CFG=1
M  V30 15 C 40.938606 32.734917 65.130449 0 CFG=2
M  V30 16 N 36.832286 36.821248 59.479962 0
M  V30 17 O 38.733756 34.273495 59.943730 0
M  V30 18 C 37.307936 27.223578 57.576691 0
M  V30 19 O 41.457647 29.105321 67.910065 0
M  V30 20 C 39.516048 24.721188 56.241685 0
M  V30 21 C 39.155769 33.321247 62.265635 0 CFG=2
M  V30 22 C 40.774376 29.000270 66.674071 0 CFG=1
M  V30 23 O 39.582071 27.770084 50.942692 0
M  V30 24 C 41.473766 31.422573 65.807364 0 CFG=2
M  V30 25 O 42.426394 33.599773 68.525243 0
M  V30 26 C 38.250601 34.195833 61.307411 0 CFG=2
M  V30 27 C 38.348669 27.493856 54.449414 0
M  V30 28 C 38.912209 28.048070 51.960549 0
M  V30 29 C 38.045429 29.228777 56.253184 0
M  V30 30 C 38.267280 28.378519 57.497452 0 CFG=1
M  V30 31 C 38.121815 29.242677 58.734967 0
M  V30 32 C 39.991031 31.737024 60.543981 0
M  V30 33 C 38.652707 28.683140 54.995631 0
M  V30 34 C 40.351682 30.392111 66.136895 0
M  V30 35 C 40.194509 26.216024 53.121724 0
M  V30 36 C 38.225389 24.998105 56.912559 0 CFG=2
M  V30 37 C 38.090407 33.577201 58.850768 0
M  V30 38 C 36.744405 33.877477 61.311123 0
M  V30 39 C 39.394464 30.046140 58.897747 0
M  V30 40 O 42.136256 31.759680 62.772400 0
M  V30 41 C 40.544757 33.976185 62.558400 0
M  V30 42 C 41.605123 28.145560 65.706196 0
M  V30 43 C 36.822610 24.884808 56.390710 0 CFG=1
M  V30 44 C 41.982174 33.131241 67.481612 0
M  V30 45 O 40.786034 35.106223 62.137439 0
M  V30 46 O 36.271305 32.889179 61.852768 0
M  V30 47 O 37.448579 26.623025 55.042007 0
M  V30 48 H 38.083533 26.341404 52.760019 0
M  V30 49 H 38.411100 31.993154 57.533033 0
M  V30 50 H 39.867542 32.821390 58.014340 0
M  V30 51 H 34.908213 34.617754 60.546503 0
M  V30 52 H 42.591463 31.180389 67.638598 0
M  V30 53 H 37.072997 24.423185 54.267691 0
M  V30 54 H 36.970873 23.017672 55.329384 0
M  V30 55 H 35.516160 23.955974 54.977273 0
M  V30 56 H 39.869459 29.028629 63.397722 0
M  V30 57 H 38.668270 29.299072 62.151381 0
M  V30 58 H 40.390665 29.334725 61.787220 0
M  V30 59 H 38.190221 31.495446 61.655638 0
M  V30 60 H 39.884206 32.601111 64.910678 0
M  V30 61 H 37.603626 26.699589 58.480379 0
M  V30 62 H 36.284947 27.491070 57.845383 0
M  V30 63 H 41.100303 28.462400 68.507445 0
M  V30 64 H 39.322230 24.305366 55.258758 0
M  V30 65 H 40.102155 25.638390 56.170008 0
M  V30 66 H 40.069507 24.021987 56.862344 0
M  V30 67 H 38.668483 33.245191 63.218617 0
M  V30 68 H 39.859844 28.445367 66.879436 0
M  V30 69 H 42.233987 30.952103 65.187706 0
M  V30 70 H 38.306059 35.216093 61.691098 0
M  V30 71 H 36.993615 29.433091 56.079178 0
M  V30 72 H 38.482766 30.215498 56.347625 0
M  V30 73 H 39.274234 27.953615 57.470494 0
M  V30 74 H 37.962016 28.649677 59.634116 0
M  V30 75 H 37.239281 29.876238 58.627102 0
M  V30 76 H 40.501198 32.660979 60.284540 0
M  V30 77 H 40.835692 31.060095 60.652774 0
M  V30 78 H 39.336736 29.339241 54.479060 0
M  V30 79 H 39.739806 30.234464 65.254392 0
M  V30 80 H 39.669162 30.823333 66.868398 0
M  V30 81 H 41.068843 26.821349 53.053960 0
M  V30 82 H 40.316970 25.564084 53.967792 0
M  V30 83 H 40.267007 25.621487 52.223178 0
M  V30 84 H 38.291029 24.803816 57.981570 0
M  V30 85 H 37.086079 33.187049 58.984778 0
M  V30 86 H 37.976781 34.280628 58.027457 0
M  V30 87 H 39.917299 30.179856 57.950188 0
M  V30 88 H 40.083611 29.466224 59.510929 0
M  V30 89 H 41.047621 27.930302 64.798961 0
M  V30 90 H 42.535617 28.634429 65.414783 0
M  V30 91 H 41.846874 27.177394 66.152253 0
M  V30 92 H 36.023199 24.822591 57.114119 0
M  V30 93 H 38.152500 31.267311 59.864379 0
M  V30 END ATOM
M  V30 BEGIN BOND
M  V30 1 1 9 4
M  V30 2 1 11 6
M  V30 3 1 13 2
M  V30 4 1 14 2
M  V30 5 1 15 7
M  V30 6 1 15 10
M  V30 7 3 16 11
M  V30 8 1 18 3
M  V30 9 1 21 14
M  V30 10 1 22 19
M  V30 11 1 24 8
M  V30 12 1 24 15
M  V30 13 1 26 17
M  V30 14 1 26 21
M  V30 15 1 27 1
M  V30 16 1 28 1
M  V30 17 1 28 5
M  V30 18 2 28 23
M  V30 19 1 30 18
M  V30 20 1 30 29
M  V30 21 1 31 30
M  V30 22 1 32 9
M  V30 23 1 32 14
M  V30 24 2 33 27
M  V30 25 1 33 29
M  V30 26 1 34 22
M  V30 27 1 34 24
M  V30 28 1 35 1
M  V30 29 1 36 3
M  V30 30 1 36 20
M  V30 31 1 37 4
M  V30 32 1 37 17
M  V30 33 1 38 6
M  V30 34 1 38 26
M  V30 35 1 39 9
M  V30 36 1 39 31
M  V30 37 2 40 7
M  V30 38 1 7 41 CFG=3
M  V30 39 1 41 21
M  V30 40 1 42 22
M  V30 41 1 43 3
M  V30 42 1 43 12
M  V30 43 1 43 36
M  V30 44 1 44 8
M  V30 45 1 44 10
M  V30 46 2 44 25
M  V30 47 2 45 41
M  V30 48 2 46 38
M  V30 49 1 3 47 CFG=3
M  V30 50 1 47 27
M  V30 51 1 1 48 CFG=3
M  V30 52 1 49 4
M  V30 53 1 50 4
M  V30 54 1 51 6
M  V30 55 1 52 8
M  V30 56 1 53 12
M  V30 57 1 54 12
M  V30 58 1 55 12
M  V30 59 1 56 13
M  V30 60 1 57 13
M  V30 61 1 58 13
M  V30 62 1 14 59 CFG=3
M  V30 63 1 15 60 CFG=3
M  V30 64 1 61 18
M  V30 65 1 62 18
M  V30 66 1 63 19
M  V30 67 1 64 20
M  V30 68 1 65 20
M  V30 69 1 66 20
M  V30 70 1 21 67 CFG=1
M  V30 71 1 22 68 CFG=1
M  V30 72 1 24 69 CFG=3
M  V30 73 1 26 70 CFG=1
M  V30 74 1 71 29
M  V30 75 1 72 29
M  V30 76 1 30 73 CFG=3
M  V30 77 1 74 31
M  V30 78 1 75 31
M  V30 79 1 76 32
M  V30 80 1 77 32
M  V30 81 1 78 33
M  V30 82 1 79 34
M  V30 83 1 80 34
M  V30 84 1 81 35
M  V30 85 1 82 35
M  V30 86 1 83 35
M  V30 87 1 36 84 CFG=1
M  V30 88 1 85 37
M  V30 89 1 86 37
M  V30 90 1 87 39
M  V30 91 1 88 39
M  V30 92 1 89 42
M  V30 93 1 90 42
M  V30 94 1 91 42
M  V30 95 1 43 92 CFG=1
M  V30 96 1 9 93 CFG=1
M  V30 END BOND
M  V30 END CTAB
M  END
>  <i_epik_Tot_Q>  (1) 
0

>  <i_epik_Tot_abs_Q>  (1) 
2

>  <i_i_glide_confnum>  (1) 
250

>  <i_i_glide_lignum>  (1) 
26

>  <i_i_glide_posenum>  (1) 
316

>  <i_i_glide_rotatable_bonds>  (1) 
14

>  <i_lp_mmshare_version>  (1) 
72125

>  <i_m_source_file_index>  (1) 
8

>  <i_f3d_flags>  (1) 
0

>  <num_sample>  (1) 
50

>  <b_lp_Chiralities_Consistent>  (1) 
1

>  <r_epik_Charging_Adjusted_Penalty>  (1) 
2.2678334573304797

>  <r_epik_Ionization_Penalty>  (1) 
1.1498882506810455

>  <r_epik_Ionization_Penalty_Charging>  (1) 
1.1031410554290029

>  <r_epik_Ionization_Penalty_Neutral>  (1) 
0.046747195252042517

>  <r_epik_State_Penalty>  (1) 
1.164692401901477

>  <r_glide_ring_energy>  (1) 
0

>  <r_i_docking_score>  (1) 
-3.2165790465809261

>  <r_i_glide_ecoul>  (1) 
-7.7140112275480739

>  <r_i_glide_eff_state_penalty>  (1) 
1.164692401901477

>  <r_i_glide_einternal>  (1) 
6.9130847440985619

>  <r_i_glide_emodel>  (1) 
-25.720930755108853

>  <r_i_glide_emodel_strain>  (1) 
15.675421661248549

>  <r_i_glide_energy>  (1) 
-42.015110839421311

>  <r_i_glide_erotb>  (1) 
0.2643022598508753

>  <r_i_glide_esite>  (1) 
-0.0065261857467203074

>  <r_i_glide_evdw>  (1) 
-34.301099611873234

>  <r_i_glide_gscore>  (1) 
-4.3812714484824031

>  <r_i_glide_gscore_strain>  (1) 
2.9188554153121373

>  <r_i_glide_hbond>  (1) 
-0.10320637896994241

>  <r_i_glide_ligand_efficiency>  (1) 
-0.068437852054913317

>  <r_i_glide_ligand_efficiency_ln>  (1) 
-0.66319199140389651

>  <r_i_glide_ligand_efficiency_sa>  (1) 
-0.24698030536444479

>  <r_i_glide_lipo>  (1) 
-3.993943395462749

>  <r_i_glide_metal>  (1) 
-0

>  <r_i_glide_rewards>  (1) 
-0.58859649874013131

>  <r_lp_Energy>  (1) 
34.071460000000002

>  <s_epik_Chemistry_Notes>  (1) 
This compound contains an acetal/aminal-like group ( X-CH(R)-Y where X, Y are N, S, or O) that may be acid/base labile, releasing an aldehyde.

>  <s_epik_cmdline>  (1) 
J2VwaWtfcHl0aG9uJywgJy1waHQnLCAnMS4wJywgJy1waCcsICc3LjQnLCAnLXRuJywgJzgnLCAnLW1hJywgJzUwMCcsICctaW1hZScsICc8aW5maWxlLm1hZT4nLCAnLW9tYWUnLCAnPG91dGZpbGUubWFlPic=

>  <s_epik_input>  (1) 
W09IXUMoPU8pW0NAQEhdKFtDSDNdKUMoTzEpPVtDSF1bQ0gyXVtDQEhdKFtDSDJdW0NAXTEyW0NASF0oW0NIM10pW0NAQEhdMltDSDNdKVtDSDJdW0NIMl1OM1tDSDJdW0NIMl1PW0NAQEhdKEMoPU8pW05IXUMjTilbQ0BASF0oW0NAQEhdKFtDSDJdMylPW0NIM10pQyg9TylTKD1PKVtDQEBIXTRTQyg9TylbTkhdW0NASF00W0NIMl1bQ0BIXShbT0hdKVtDSDNd

>  <s_glide_docking_method>  (1) 
confgen

>  <s_i_glide_gridfile>  (1) 
gpcr_5ht2c_6bqh_protein_autoprepared_prepared

>  <s_lp_Force_Field>  (1) 
S-OPLS

>  <s_lp_Variant>  (1) 
DiffSBDD_7_num_sample_50-4

>  <s_m_source_file>  (1) 
generated__ligand_DiffSBDD_2026-05-06_prepared.sdf

>  <GenAI_Model>  (1) 
DiffSBDD

>  <Protein>  (1) 
GPCR_5HT2C

$$$$
DiffSBDD_7_num_sample_50
     RDKit          3D

  0  0  0  0  0  0  0  0  0  0999 V3000
M  V30 BEGIN CTAB
M  V30 COUNTS 93 96 0 0 1
M  V30 BEGIN ATOM
M  V30 1 C 42.385901 26.619846 66.536377 0 CFG=1
M  V30 2 O 38.907443 31.034176 61.890565 0
M  V30 3 C 42.328136 29.950121 67.904389 0
M  V30 4 C 40.223723 34.257511 62.649143 0
M  V30 5 O 40.456824 25.221496 66.646749 0 CHG=-1
M  V30 6 N 35.715195 33.896537 59.284938 0
M  V30 7 S 38.064402 29.442410 59.074070 0
M  V30 8 N 40.209592 27.503629 56.985228 0
M  V30 9 N 40.793468 32.898515 62.844994 0 CFG=1 CHG=1
M  V30 10 S 37.748784 26.830318 57.446582 0
M  V30 11 C 35.139290 33.563946 60.445884 0
M  V30 12 C 42.255173 31.048695 70.335617 0
M  V30 13 C 39.274127 29.853310 62.568554 0
M  V30 14 C 39.837668 31.466676 60.914569 0 CFG=1
M  V30 15 C 38.127440 28.623182 57.396996 0 CFG=2
M  V30 16 N 34.714298 33.221427 61.459475 0
M  V30 17 O 38.631829 34.267496 60.788811 0
M  V30 18 C 41.740349 31.183117 67.252103 0
M  V30 19 O 37.685410 30.536318 54.795043 0
M  V30 20 C 44.670088 28.746331 68.368144 0
M  V30 21 C 39.067436 32.157566 59.752355 0 CFG=2
M  V30 22 C 39.095625 30.459134 54.735718 0 CFG=1
M  V30 23 O 41.425462 25.496281 64.661576 0
M  V30 24 C 39.563662 28.789213 56.786559 0 CFG=2
M  V30 25 O 39.867362 25.258174 57.453722 0
M  V30 26 C 37.967185 33.153540 60.199189 0 CFG=2
M  V30 27 C 42.010595 28.091392 66.377499 0
M  V30 28 C 41.330016 25.700813 65.892890 0
M  V30 29 C 41.485500 30.167341 64.997662 0
M  V30 30 C 42.131866 31.305982 65.778516 0 CFG=1
M  V30 31 C 41.660257 32.678779 65.221446 0
M  V30 32 C 41.053071 32.183585 61.565319 0
M  V30 33 C 41.948073 28.738362 65.193727 0
M  V30 34 C 39.608142 29.104771 55.272683 0
M  V30 35 C 43.768282 26.265796 65.955476 0
M  V30 36 C 43.737046 29.928457 68.474367 0 CFG=2
M  V30 37 C 38.761150 34.232238 62.199154 0
M  V30 38 C 37.114268 33.724257 59.039903 0
M  V30 39 C 41.996378 32.946755 63.733689 0
M  V30 40 O 39.207765 28.776310 59.839059 0
M  V30 41 C 38.616438 31.158252 58.640875 0
M  V30 42 C 39.488437 30.666231 53.268776 0
M  V30 43 C 42.548649 29.886499 69.407745 0 CFG=2
M  V30 44 C 39.461182 26.404847 57.294387 0
M  V30 45 O 38.632733 31.517504 57.472031 0
M  V30 46 O 37.589940 34.021433 57.952159 0
M  V30 47 O 41.698488 28.708953 67.569528 0
M  V30 48 H 42.399812 26.390631 67.603110 0
M  V30 49 H 40.836738 34.856468 61.974515 0
M  V30 50 H 40.251423 34.765381 63.615412 0
M  V30 51 H 35.119256 34.256297 58.553728 0
M  V30 52 H 41.206394 27.390496 56.873295 0
M  V30 53 H 42.656982 31.984694 69.948363 0
M  V30 54 H 41.178306 31.150767 70.460073 0
M  V30 55 H 42.704046 30.864430 71.311933 0
M  V30 56 H 39.067134 30.021417 63.617416 0
M  V30 57 H 38.667709 29.015946 62.241740 0
M  V30 58 H 40.315339 29.560873 62.444677 0
M  V30 59 H 40.329852 30.613271 60.459268 0
M  V30 60 H 37.366299 29.110661 56.794591 0
M  V30 61 H 42.102356 32.067724 67.775750 0
M  V30 62 H 40.655689 31.171569 67.374540 0
M  V30 63 H 37.434491 31.171028 55.457861 0
M  V30 64 H 44.136816 27.812633 68.540692 0
M  V30 65 H 45.134976 28.722828 67.382505 0
M  V30 66 H 45.457979 28.831052 69.113990 0
M  V30 67 H 39.780910 32.821390 59.255563 0
M  V30 68 H 39.545204 31.282274 55.286774 0
M  V30 69 H 40.179269 29.513503 57.313673 0
M  V30 70 H 37.315759 32.640019 60.902575 0
M  V30 71 H 40.416242 30.178792 65.196644 0
M  V30 72 H 41.631347 30.347570 63.938255 0
M  V30 73 H 43.217040 31.241662 65.681073 0
M  V30 74 H 42.135978 33.461936 65.814123 0
M  V30 75 H 40.590778 32.804694 65.394771 0
M  V30 76 H 41.575105 32.821462 60.868648 0
M  V30 77 H 41.761608 31.386340 61.780262 0
M  V30 78 H 42.191155 28.195115 64.290563 0
M  V30 79 H 39.162420 28.289230 54.701086 0
M  V30 80 H 40.667383 29.110136 55.053510 0
M  V30 81 H 43.900793 26.645802 64.943183 0
M  V30 82 H 44.584603 26.639988 66.567359 0
M  V30 83 H 43.867396 25.181021 65.909390 0
M  V30 84 H 44.267965 30.876335 68.413814 0
M  V30 85 H 38.274284 35.143138 62.552457 0
M  V30 86 H 38.267426 33.373933 62.653343 0
M  V30 87 H 42.757900 32.235282 63.417756 0
M  V30 88 H 42.484170 33.918204 63.635901 0
M  V30 89 H 40.571044 30.667109 53.144276 0
M  V30 90 H 39.079387 29.883529 52.628233 0
M  V30 91 H 39.123832 31.627174 52.905616 0
M  V30 92 H 42.321267 28.924074 69.863657 0
M  V30 93 H 40.108906 32.336086 63.333449 0
M  V30 END ATOM
M  V30 BEGIN BOND
M  V30 1 1 9 4
M  V30 2 1 11 6
M  V30 3 1 13 2
M  V30 4 1 14 2
M  V30 5 1 15 7
M  V30 6 1 15 10
M  V30 7 3 16 11
M  V30 8 1 18 3
M  V30 9 1 21 14
M  V30 10 1 22 19
M  V30 11 1 24 8
M  V30 12 1 24 15
M  V30 13 1 26 17
M  V30 14 1 26 21
M  V30 15 1 27 1
M  V30 16 1 28 1
M  V30 17 1 28 5
M  V30 18 2 28 23
M  V30 19 1 30 18
M  V30 20 1 30 29
M  V30 21 1 31 30
M  V30 22 1 32 9
M  V30 23 1 32 14
M  V30 24 2 33 27
M  V30 25 1 33 29
M  V30 26 1 34 22
M  V30 27 1 34 24
M  V30 28 1 35 1
M  V30 29 1 36 3
M  V30 30 1 36 20
M  V30 31 1 37 4
M  V30 32 1 37 17
M  V30 33 1 38 6
M  V30 34 1 38 26
M  V30 35 1 39 9
M  V30 36 1 39 31
M  V30 37 2 40 7
M  V30 38 1 7 41 CFG=3
M  V30 39 1 41 21
M  V30 40 1 42 22
M  V30 41 1 43 3
M  V30 42 1 43 12
M  V30 43 1 43 36
M  V30 44 1 44 8
M  V30 45 1 44 10
M  V30 46 2 44 25
M  V30 47 2 45 41
M  V30 48 2 46 38
M  V30 49 1 47 3
M  V30 50 1 47 27
M  V30 51 1 1 48 CFG=1
M  V30 52 1 49 4
M  V30 53 1 50 4
M  V30 54 1 51 6
M  V30 55 1 52 8
M  V30 56 1 53 12
M  V30 57 1 54 12
M  V30 58 1 55 12
M  V30 59 1 56 13
M  V30 60 1 57 13
M  V30 61 1 58 13
M  V30 62 1 14 59 CFG=3
M  V30 63 1 15 60 CFG=3
M  V30 64 1 61 18
M  V30 65 1 62 18
M  V30 66 1 63 19
M  V30 67 1 64 20
M  V30 68 1 65 20
M  V30 69 1 66 20
M  V30 70 1 21 67 CFG=3
M  V30 71 1 22 68 CFG=1
M  V30 72 1 24 69 CFG=1
M  V30 73 1 26 70 CFG=1
M  V30 74 1 71 29
M  V30 75 1 72 29
M  V30 76 1 30 73 CFG=1
M  V30 77 1 74 31
M  V30 78 1 75 31
M  V30 79 1 76 32
M  V30 80 1 77 32
M  V30 81 1 78 33
M  V30 82 1 79 34
M  V30 83 1 80 34
M  V30 84 1 81 35
M  V30 85 1 82 35
M  V30 86 1 83 35
M  V30 87 1 36 84 CFG=1
M  V30 88 1 85 37
M  V30 89 1 86 37
M  V30 90 1 87 39
M  V30 91 1 88 39
M  V30 92 1 89 42
M  V30 93 1 90 42
M  V30 94 1 91 42
M  V30 95 1 43 92 CFG=1
M  V30 96 1 9 93 CFG=1
M  V30 END BOND
M  V30 END CTAB
M  END
>  <i_epik_Tot_Q>  (1) 
0

>  <i_epik_Tot_abs_Q>  (1) 
2

>  <i_i_glide_confnum>  (1) 
3379

>  <i_i_glide_lignum>  (1) 
27

>  <i_i_glide_posenum>  (1) 
161

>  <i_i_glide_rotatable_bonds>  (1) 
14

>  <i_lp_mmshare_version>  (1) 
72125

>  <i_m_source_file_index>  (1) 
8

>  <i_f3d_flags>  (1) 
0

>  <num_sample>  (1) 
50

>  <b_lp_Chiralities_Consistent>  (1) 
1

>  <r_epik_Charging_Adjusted_Penalty>  (1) 
2.2678334573304797

>  <r_epik_Ionization_Penalty>  (1) 
1.1498882506810455

>  <r_epik_Ionization_Penalty_Charging>  (1) 
1.1031410554290029

>  <r_epik_Ionization_Penalty_Neutral>  (1) 
0.046747195252042517

>  <r_epik_State_Penalty>  (1) 
1.164692401901477

>  <r_glide_ring_energy>  (1) 
0

>  <r_i_docking_score>  (1) 
-3.0567857918286609

>  <r_i_glide_ecoul>  (1) 
-0.18799712370381694

>  <r_i_glide_eff_state_penalty>  (1) 
1.164692401901477

>  <r_i_glide_einternal>  (1) 
52.91209557649848

>  <r_i_glide_emodel>  (1) 
-29.58000171627414

>  <r_i_glide_emodel_strain>  (1) 
5.2592147770461395

>  <r_i_glide_energy>  (1) 
-47.95668516868691

>  <r_i_glide_erotb>  (1) 
0.2643022598508753

>  <r_i_glide_esite>  (1) 
-0.12016598859821755

>  <r_i_glide_evdw>  (1) 
-47.768688044983094

>  <r_i_glide_gscore>  (1) 
-4.221478193730138

>  <r_i_glide_gscore_strain>  (1) 
0.31480369426153487

>  <r_i_glide_hbond>  (1) 
0

>  <r_i_glide_ligand_efficiency>  (1) 
-0.065037995570822571

>  <r_i_glide_ligand_efficiency_ln>  (1) 
-0.63024593122710404

>  <r_i_glide_ligand_efficiency_sa>  (1) 
-0.23471081461592946

>  <r_i_glide_lipo>  (1) 
-2.5777447534575986

>  <r_i_glide_metal>  (1) 
-0

>  <r_i_glide_rewards>  (1) 
0.31396056501799618

>  <r_lp_Energy>  (1) 
32.883552999999999

>  <s_epik_Chemistry_Notes>  (1) 
This compound contains an acetal/aminal-like group ( X-CH(R)-Y where X, Y are N, S, or O) that may be acid/base labile, releasing an aldehyde.

>  <s_epik_cmdline>  (1) 
J2VwaWtfcHl0aG9uJywgJy1waHQnLCAnMS4wJywgJy1waCcsICc3LjQnLCAnLXRuJywgJzgnLCAnLW1hJywgJzUwMCcsICctaW1hZScsICc8aW5maWxlLm1hZT4nLCAnLW9tYWUnLCAnPG91dGZpbGUubWFlPic=

>  <s_epik_input>  (1) 
W09IXUMoPU8pW0NAQEhdKFtDSDNdKUMoTzEpPVtDSF1bQ0gyXVtDQEhdKFtDSDJdW0NAXTEyW0NASF0oW0NIM10pW0NAQEhdMltDSDNdKVtDSDJdW0NIMl1OM1tDSDJdW0NIMl1PW0NAQEhdKEMoPU8pW05IXUMjTilbQ0BASF0oW0NAQEhdKFtDSDJdMylPW0NIM10pQyg9TylTKD1PKVtDQEBIXTRTQyg9TylbTkhdW0NASF00W0NIMl1bQ0BIXShbT0hdKVtDSDNd

>  <s_glide_docking_method>  (1) 
confgen

>  <s_i_glide_gridfile>  (1) 
gpcr_5ht2c_6bqh_protein_autoprepared_prepared

>  <s_lp_Force_Field>  (1) 
S-OPLS

>  <s_lp_Variant>  (1) 
DiffSBDD_7_num_sample_50-5

>  <s_m_source_file>  (1) 
generated__ligand_DiffSBDD_2026-05-06_prepared.sdf

>  <GenAI_Model>  (1) 
DiffSBDD

>  <Protein>  (1) 
GPCR_5HT2C

$$$$
DiffSBDD_16_num_sample_50
     RDKit          3D

  0  0  0  0  0  0  0  0  0  0999 V3000
M  V30 BEGIN CTAB
M  V30 COUNTS 43 43 0 0 1
M  V30 BEGIN ATOM
M  V30 1 C 39.062128 27.783142 54.385216 0
M  V30 2 C 39.263141 27.755643 51.834634 0
M  V30 3 C 40.556413 31.064207 50.164803 0
M  V30 4 C 38.607486 25.465621 56.595436 0
M  V30 5 C 37.547802 26.351599 55.918852 0
M  V30 6 C 38.366632 27.470982 53.045363 0
M  V30 7 C 38.111595 27.761897 55.595353 0 CFG=1
M  V30 8 O 39.467418 31.620045 49.454720 0
M  V30 9 N 39.761113 27.495784 57.466235 0 CFG=2 CHG=1
M  V30 10 C 39.304629 29.242874 51.457474 0
M  V30 11 C 40.400557 29.566801 50.439826 0
M  V30 12 C 38.752413 28.411602 56.851675 0 CFG=2
M  V30 13 C 39.216391 26.161360 57.823172 0
M  V30 14 C 37.687972 28.914579 57.852270 0
M  V30 15 C 40.544764 28.107781 58.565590 0
M  V30 16 H 39.901188 27.106292 54.541760 0
M  V30 17 H 39.486846 28.783449 54.320611 0
M  V30 18 H 38.914460 27.178591 50.975784 0
M  V30 19 H 40.267032 27.401674 52.056077 0
M  V30 20 H 41.466703 31.221020 49.585611 0
M  V30 21 H 40.667387 31.599504 51.107607 0
M  V30 22 H 38.163831 24.515228 56.894296 0
M  V30 23 H 39.395039 25.216224 55.882800 0
M  V30 24 H 36.676828 26.421319 56.575035 0
M  V30 25 H 37.175537 25.861487 55.019252 0
M  V30 26 H 37.436958 28.033548 52.948441 0
M  V30 27 H 38.083666 26.421772 53.029011 0
M  V30 28 H 37.300079 28.412122 55.273616 0
M  V30 29 H 38.903936 30.923132 49.136464 0
M  V30 30 H 39.464804 29.853590 52.345847 0
M  V30 31 H 38.339535 29.533946 51.053461 0
M  V30 32 H 40.246826 29.020400 49.508718 0
M  V30 33 H 41.344325 29.221936 50.860144 0
M  V30 34 H 39.292737 29.302579 56.526579 0
M  V30 35 H 38.470336 26.262695 58.612318 0
M  V30 36 H 40.015645 25.539104 58.228466 0
M  V30 37 H 37.007893 29.621713 57.372729 0
M  V30 38 H 37.081235 28.105709 58.253502 0
M  V30 39 H 38.136277 29.444425 58.692904 0
M  V30 40 H 39.950044 28.205997 59.474594 0
M  V30 41 H 41.416545 27.496559 58.801956 0
M  V30 42 H 40.905955 29.097512 58.285231 0
M  V30 43 H 40.430404 27.319673 56.730319 0
M  V30 END ATOM
M  V30 BEGIN BOND
M  V30 1 1 5 4
M  V30 2 1 6 1
M  V30 3 1 6 2
M  V30 4 1 7 1
M  V30 5 1 7 5
M  V30 6 1 8 3
M  V30 7 1 10 2
M  V30 8 1 11 3
M  V30 9 1 11 10
M  V30 10 1 12 7
M  V30 11 1 12 9
M  V30 12 1 13 4
M  V30 13 1 13 9
M  V30 14 1 14 12
M  V30 15 1 15 9
M  V30 16 1 16 1
M  V30 17 1 17 1
M  V30 18 1 18 2
M  V30 19 1 19 2
M  V30 20 1 20 3
M  V30 21 1 21 3
M  V30 22 1 22 4
M  V30 23 1 23 4
M  V30 24 1 24 5
M  V30 25 1 25 5
M  V30 26 1 26 6
M  V30 27 1 27 6
M  V30 28 1 7 28 CFG=3
M  V30 29 1 29 8
M  V30 30 1 30 10
M  V30 31 1 31 10
M  V30 32 1 32 11
M  V30 33 1 33 11
M  V30 34 1 12 34 CFG=3
M  V30 35 1 35 13
M  V30 36 1 36 13
M  V30 37 1 37 14
M  V30 38 1 38 14
M  V30 39 1 39 14
M  V30 40 1 40 15
M  V30 41 1 41 15
M  V30 42 1 42 15
M  V30 43 1 9 43 CFG=3
M  V30 END BOND
M  V30 END CTAB
M  END
>  <i_epik_Tot_Q>  (1) 
1

>  <i_epik_Tot_abs_Q>  (1) 
1

>  <i_i_glide_confnum>  (1) 
97

>  <i_i_glide_lignum>  (1) 
47

>  <i_i_glide_posenum>  (1) 
332

>  <i_i_glide_rotatable_bonds>  (1) 
7

>  <i_lp_mmshare_version>  (1) 
72125

>  <i_m_source_file_index>  (1) 
17

>  <i_f3d_flags>  (1) 
0

>  <num_sample>  (1) 
50

>  <b_lp_Chiralities_Consistent>  (1) 
1

>  <r_epik_Charging_Adjusted_Penalty>  (1) 
0.0018248254832493158

>  <r_epik_Ionization_Penalty>  (1) 
0.0018251261234076507

>  <r_epik_Ionization_Penalty_Charging>  (1) 
0.0018248254832493158

>  <r_epik_Ionization_Penalty_Neutral>  (1) 
3.0064015833489429e-07

>  <r_epik_State_Penalty>  (1) 
-0

>  <r_glide_ring_energy>  (1) 
0

>  <r_i_docking_score>  (1) 
-2.9131715876985651

>  <r_i_glide_ecoul>  (1) 
-3.1790880257424607

>  <r_i_glide_eff_state_penalty>  (1) 
-0

>  <r_i_glide_einternal>  (1) 
4.5221346223864494

>  <r_i_glide_emodel>  (1) 
-26.104843828159165

>  <r_i_glide_emodel_strain>  (1) 
0.91776371423476988

>  <r_i_glide_energy>  (1) 
-23.266751307823924

>  <r_i_glide_erotb>  (1) 
4.3624240847918374

>  <r_i_glide_esite>  (1) 
0

>  <r_i_glide_evdw>  (1) 
-20.087663282081465

>  <r_i_glide_gscore>  (1) 
-2.9131715876985651

>  <r_i_glide_gscore_strain>  (1) 
0

>  <r_i_glide_hbond>  (1) 
-0.32000000000000001

>  <r_i_glide_ligand_efficiency>  (1) 
-0.19421143917990433

>  <r_i_glide_ligand_efficiency_ln>  (1) 
-0.78563434411773359

>  <r_i_glide_ligand_efficiency_sa>  (1) 
-0.47896659627857791

>  <r_i_glide_lipo>  (1) 
-3.2221469836805983

>  <r_i_glide_metal>  (1) 
-0

>  <r_i_glide_rewards>  (1) 
-2.2522023208443618

>  <r_lp_Energy>  (1) 
24.512706999999999

>  <r_lp_tautomer_probability>  (1) 
1

>  <s_epik_cmdline>  (1) 
J2VwaWtfcHl0aG9uJywgJy1waHQnLCAnMS4wJywgJy1waCcsICc3LjQnLCAnLXRuJywgJzgnLCAnLW1hJywgJzUwMCcsICctaW1hZScsICc8aW5maWxlLm1hZT4nLCAnLW9tYWUnLCAnPG91dGZpbGUubWFlPic=

>  <s_epik_input>  (1) 
W09IXVtDSDJdW0NIMl1bQ0gyXVtDSDJdW0NIMl1bQ0gyXVtDQEhdMVtDSDJdW0NIMl1bQ0gyXU4oW0NIM10pW0NAQEhdMVtDSDNd

>  <s_glide_docking_method>  (1) 
confgen

>  <s_i_glide_gridfile>  (1) 
gpcr_5ht2c_6bqh_protein_autoprepared_prepared

>  <s_lp_Force_Field>  (1) 
S-OPLS

>  <s_lp_Variant>  (1) 
DiffSBDD_16_num_sample_50-2

>  <s_m_source_file>  (1) 
generated__ligand_DiffSBDD_2026-05-06_prepared.sdf

>  <GenAI_Model>  (1) 
DiffSBDD

>  <Protein>  (1) 
GPCR_5HT2C

$$$$
DiffSBDD_16_num_sample_50
     RDKit          3D

  0  0  0  0  0  0  0  0  0  0999 V3000
M  V30 BEGIN CTAB
M  V30 COUNTS 43 43 0 0 1
M  V30 BEGIN ATOM
M  V30 1 C 38.216626 28.688564 55.265558 0
M  V30 2 C 39.090562 29.713598 53.086495 0
M  V30 3 C 40.645026 29.519917 50.410237 0
M  V30 4 C 39.588059 27.711685 57.993994 0
M  V30 5 C 40.230398 27.759169 56.599592 0
M  V30 6 C 38.839386 29.920871 54.587337 0
M  V30 7 C 39.190272 27.500610 55.486071 0 CFG=1
M  V30 8 O 39.688665 28.484527 50.325142 0
M  V30 9 N 37.811508 26.195870 57.108883 0 CFG=2 CHG=1
M  V30 10 C 39.789295 30.915219 52.434610 0
M  V30 11 C 39.992651 30.811358 50.905283 0
M  V30 12 C 38.423881 26.181922 55.750621 0 CFG=2
M  V30 13 C 38.795793 26.411697 58.200999 0
M  V30 14 C 39.292258 24.932769 55.501880 0
M  V30 15 C 36.909914 25.049329 57.362219 0
M  V30 16 H 37.779064 28.996273 56.214781 0
M  V30 17 H 37.372664 28.368049 54.653452 0
M  V30 18 H 38.144207 29.510035 52.588163 0
M  V30 19 H 39.703815 28.829208 52.934021 0
M  V30 20 H 41.467275 29.221873 51.061049 0
M  V30 21 H 41.056984 29.678740 49.413012 0
M  V30 22 H 40.360653 27.798282 58.759057 0
M  V30 23 H 38.931938 28.571117 58.133835 0
M  V30 24 H 41.017340 27.005432 56.545366 0
M  V30 25 H 40.733686 28.713560 56.452143 0
M  V30 26 H 39.761731 30.212460 55.088971 0
M  V30 27 H 38.157961 30.764614 54.708791 0
M  V30 28 H 39.740325 27.356990 54.557521 0
M  V30 29 H 38.988958 28.769204 49.752716 0
M  V30 30 H 40.743252 31.077948 52.925660 0
M  V30 31 H 39.209478 31.812353 52.653500 0
M  V30 32 H 40.648771 31.621429 50.605043 0
M  V30 33 H 39.067404 30.981603 50.355722 0
M  V30 34 H 37.608055 26.127922 55.027556 0
M  V30 35 H 39.476927 25.563725 58.272795 0
M  V30 36 H 38.267422 26.466167 59.150839 0
M  V30 37 H 39.772479 24.985612 54.526327 0
M  V30 38 H 40.089819 24.821429 56.235509 0
M  V30 39 H 38.688856 24.023444 55.513788 0
M  V30 40 H 37.467147 24.123340 57.510419 0
M  V30 41 H 36.309518 25.221429 58.253494 0
M  V30 42 H 36.221301 24.906373 56.528849 0
M  V30 43 H 37.219097 27.014498 57.115780 0
M  V30 END ATOM
M  V30 BEGIN BOND
M  V30 1 1 5 4
M  V30 2 1 6 1
M  V30 3 1 6 2
M  V30 4 1 7 1
M  V30 5 1 7 5
M  V30 6 1 8 3
M  V30 7 1 10 2
M  V30 8 1 11 3
M  V30 9 1 11 10
M  V30 10 1 12 7
M  V30 11 1 12 9
M  V30 12 1 13 4
M  V30 13 1 13 9
M  V30 14 1 14 12
M  V30 15 1 15 9
M  V30 16 1 16 1
M  V30 17 1 17 1
M  V30 18 1 18 2
M  V30 19 1 19 2
M  V30 20 1 20 3
M  V30 21 1 21 3
M  V30 22 1 22 4
M  V30 23 1 23 4
M  V30 24 1 24 5
M  V30 25 1 25 5
M  V30 26 1 26 6
M  V30 27 1 27 6
M  V30 28 1 7 28 CFG=3
M  V30 29 1 29 8
M  V30 30 1 30 10
M  V30 31 1 31 10
M  V30 32 1 32 11
M  V30 33 1 33 11
M  V30 34 1 12 34 CFG=3
M  V30 35 1 35 13
M  V30 36 1 36 13
M  V30 37 1 37 14
M  V30 38 1 38 14
M  V30 39 1 39 14
M  V30 40 1 40 15
M  V30 41 1 41 15
M  V30 42 1 42 15
M  V30 43 1 9 43 CFG=3
M  V30 END BOND
M  V30 END CTAB
M  END
>  <i_epik_Tot_Q>  (1) 
1

>  <i_epik_Tot_abs_Q>  (1) 
1

>  <i_i_glide_confnum>  (1) 
119

>  <i_i_glide_lignum>  (1) 
47

>  <i_i_glide_posenum>  (1) 
191

>  <i_i_glide_rotatable_bonds>  (1) 
7

>  <i_lp_mmshare_version>  (1) 
72125

>  <i_m_source_file_index>  (1) 
17

>  <i_f3d_flags>  (1) 
0

>  <num_sample>  (1) 
50

>  <b_lp_Chiralities_Consistent>  (1) 
1

>  <r_epik_Charging_Adjusted_Penalty>  (1) 
0.0018248254832493158

>  <r_epik_Ionization_Penalty>  (1) 
0.0018251261234076507

>  <r_epik_Ionization_Penalty_Charging>  (1) 
0.0018248254832493158

>  <r_epik_Ionization_Penalty_Neutral>  (1) 
3.0064015833489429e-07

>  <r_epik_State_Penalty>  (1) 
-0

>  <r_glide_ring_energy>  (1) 
0

>  <r_i_docking_score>  (1) 
-2.7494491802726362

>  <r_i_glide_ecoul>  (1) 
-0.7740005275188484

>  <r_i_glide_eff_state_penalty>  (1) 
-0

>  <r_i_glide_einternal>  (1) 
4.637851833309691

>  <r_i_glide_emodel>  (1) 
-25.936124928701979

>  <r_i_glide_emodel_strain>  (1) 
0.16365342928063953

>  <r_i_glide_energy>  (1) 
-22.739936302122953

>  <r_i_glide_erotb>  (1) 
4.3624240847918374

>  <r_i_glide_esite>  (1) 
0

>  <r_i_glide_evdw>  (1) 
-21.965935774604105

>  <r_i_glide_gscore>  (1) 
-2.7494491802726362

>  <r_i_glide_gscore_strain>  (1) 
0

>  <r_i_glide_hbond>  (1) 
-0.16217408416354437

>  <r_i_glide_ligand_efficiency>  (1) 
-0.18329661201817574

>  <r_i_glide_ligand_efficiency_ln>  (1) 
-0.7414811103299972

>  <r_i_glide_ligand_efficiency_sa>  (1) 
-0.45204831774309268

>  <r_i_glide_lipo>  (1) 
-3.2160282169709635

>  <r_i_glide_metal>  (1) 
-0

>  <r_i_glide_rewards>  (1) 
-2.5192740960719338

>  <r_lp_Energy>  (1) 
24.512706999999999

>  <r_lp_tautomer_probability>  (1) 
1

>  <s_epik_cmdline>  (1) 
J2VwaWtfcHl0aG9uJywgJy1waHQnLCAnMS4wJywgJy1waCcsICc3LjQnLCAnLXRuJywgJzgnLCAnLW1hJywgJzUwMCcsICctaW1hZScsICc8aW5maWxlLm1hZT4nLCAnLW9tYWUnLCAnPG91dGZpbGUubWFlPic=

>  <s_epik_input>  (1) 
W09IXVtDSDJdW0NIMl1bQ0gyXVtDSDJdW0NIMl1bQ0gyXVtDQEhdMVtDSDJdW0NIMl1bQ0gyXU4oW0NIM10pW0NAQEhdMVtDSDNd

>  <s_glide_docking_method>  (1) 
confgen

>  <s_i_glide_gridfile>  (1) 
gpcr_5ht2c_6bqh_protein_autoprepared_prepared

>  <s_lp_Force_Field>  (1) 
S-OPLS

>  <s_lp_Variant>  (1) 
DiffSBDD_16_num_sample_50-2

>  <s_m_source_file>  (1) 
generated__ligand_DiffSBDD_2026-05-06_prepared.sdf

>  <GenAI_Model>  (1) 
DiffSBDD

>  <Protein>  (1) 
GPCR_5HT2C

$$$$
DiffSBDD_16_num_sample_50
     RDKit          3D

  0  0  0  0  0  0  0  0  0  0999 V3000
M  V30 BEGIN CTAB
M  V30 COUNTS 43 43 0 0 1
M  V30 BEGIN ATOM
M  V30 1 C 38.824422 29.634432 55.127613 0
M  V30 2 C 38.308681 30.936715 57.299896 0
M  V30 3 C 36.569969 31.613560 59.892564 0
M  V30 4 C 40.221640 30.493887 51.584731 0
M  V30 5 C 39.947347 30.589464 53.086103 0
M  V30 6 C 38.302115 30.935317 55.764142 0
M  V30 7 C 38.802506 29.674878 53.577685 0 CFG=1
M  V30 8 O 35.260420 31.922255 59.453581 0
M  V30 9 N 39.065375 28.288908 51.461882 0 CFG=1 CHG=1
M  V30 10 C 37.281459 29.982082 57.949312 0
M  V30 11 C 37.062030 30.213350 59.460191 0
M  V30 12 C 38.793529 28.252006 52.936024 0 CFG=2
M  V30 13 C 40.287908 29.046679 51.100807 0
M  V30 14 C 37.431035 27.563051 53.192383 0
M  V30 15 C 39.088962 26.943917 50.837340 0
M  V30 16 H 39.833922 29.416772 55.482442 0
M  V30 17 H 38.218820 28.818628 55.513232 0
M  V30 18 H 38.103973 31.960972 57.605207 0
M  V30 19 H 39.314507 30.709849 57.658625 0
M  V30 20 H 37.250378 32.404892 59.579449 0
M  V30 21 H 36.546475 31.647749 60.980220 0
M  V30 22 H 39.466446 31.033036 51.023977 0
M  V30 23 H 41.150896 31.009437 51.345022 0
M  V30 24 H 39.683956 31.620315 53.304825 0
M  V30 25 H 40.855673 30.415552 53.662429 0
M  V30 26 H 37.292262 31.136114 55.410591 0
M  V30 27 H 38.903914 31.778467 55.424532 0
M  V30 28 H 37.866354 30.143347 53.285857 0
M  V30 29 H 35.259537 32.021336 58.480012 0
M  V30 30 H 37.618922 28.955312 57.805586 0
M  V30 31 H 36.325221 30.019675 57.428513 0
M  V30 32 H 38.000777 30.007850 59.973267 0
M  V30 33 H 36.359735 29.471968 59.842503 0
M  V30 34 H 39.574939 27.654215 53.410637 0
M  V30 35 H 40.395986 29.059204 50.016580 0
M  V30 36 H 41.169239 28.549061 51.501352 0
M  V30 37 H 37.131097 27.568739 54.239202 0
M  V30 38 H 36.635302 28.058575 52.637072 0
M  V30 39 H 37.447566 26.513368 52.905558 0
M  V30 40 H 39.653647 26.242647 51.454305 0
M  V30 41 H 38.095276 26.547084 50.656746 0
M  V30 42 H 39.548482 26.967156 49.854614 0
M  V30 43 H 38.293497 28.783144 51.033261 0
M  V30 END ATOM
M  V30 BEGIN BOND
M  V30 1 1 5 4
M  V30 2 1 6 1
M  V30 3 1 6 2
M  V30 4 1 7 1
M  V30 5 1 7 5
M  V30 6 1 8 3
M  V30 7 1 10 2
M  V30 8 1 11 3
M  V30 9 1 11 10
M  V30 10 1 12 7
M  V30 11 1 12 9
M  V30 12 1 13 4
M  V30 13 1 13 9
M  V30 14 1 14 12
M  V30 15 1 15 9
M  V30 16 1 16 1
M  V30 17 1 17 1
M  V30 18 1 18 2
M  V30 19 1 19 2
M  V30 20 1 20 3
M  V30 21 1 21 3
M  V30 22 1 22 4
M  V30 23 1 23 4
M  V30 24 1 24 5
M  V30 25 1 25 5
M  V30 26 1 26 6
M  V30 27 1 27 6
M  V30 28 1 7 28 CFG=1
M  V30 29 1 29 8
M  V30 30 1 30 10
M  V30 31 1 31 10
M  V30 32 1 32 11
M  V30 33 1 33 11
M  V30 34 1 12 34 CFG=1
M  V30 35 1 35 13
M  V30 36 1 36 13
M  V30 37 1 37 14
M  V30 38 1 38 14
M  V30 39 1 39 14
M  V30 40 1 40 15
M  V30 41 1 41 15
M  V30 42 1 42 15
M  V30 43 1 9 43 CFG=3
M  V30 END BOND
M  V30 END CTAB
M  END
>  <i_epik_Tot_Q>  (1) 
1

>  <i_epik_Tot_abs_Q>  (1) 
1

>  <i_i_glide_confnum>  (1) 
40

>  <i_i_glide_lignum>  (1) 
46

>  <i_i_glide_posenum>  (1) 
179

>  <i_i_glide_rotatable_bonds>  (1) 
7

>  <i_lp_mmshare_version>  (1) 
72125

>  <i_m_source_file_index>  (1) 
17

>  <i_f3d_flags>  (1) 
0

>  <num_sample>  (1) 
50

>  <b_lp_Chiralities_Consistent>  (1) 
1

>  <r_epik_Charging_Adjusted_Penalty>  (1) 
0.0018248254832493158

>  <r_epik_Ionization_Penalty>  (1) 
0.0018251261234076507

>  <r_epik_Ionization_Penalty_Charging>  (1) 
0.0018248254832493158

>  <r_epik_Ionization_Penalty_Neutral>  (1) 
3.0064015833489429e-07

>  <r_epik_State_Penalty>  (1) 
-0

>  <r_glide_ring_energy>  (1) 
0

>  <r_i_docking_score>  (1) 
-2.7174839694335318

>  <r_i_glide_ecoul>  (1) 
-8.3203831398131989

>  <r_i_glide_eff_state_penalty>  (1) 
-0

>  <r_i_glide_einternal>  (1) 
3.6673772576036421

>  <r_i_glide_emodel>  (1) 
-29.144268641697639

>  <r_i_glide_emodel_strain>  (1) 
0.052831880236215767

>  <r_i_glide_energy>  (1) 
-25.884325310723629

>  <r_i_glide_erotb>  (1) 
4.3624240847918374

>  <r_i_glide_esite>  (1) 
0

>  <r_i_glide_evdw>  (1) 
-17.56394217091043

>  <r_i_glide_gscore>  (1) 
-2.7174839694335318

>  <r_i_glide_gscore_strain>  (1) 
0

>  <r_i_glide_hbond>  (1) 
-0.16

>  <r_i_glide_ligand_efficiency>  (1) 
-0.18116559796223544

>  <r_i_glide_ligand_efficiency_ln>  (1) 
-0.73286062001689334

>  <r_i_glide_ligand_efficiency_sa>  (1) 
-0.44679278514776477

>  <r_i_glide_lipo>  (1) 
-2.2339282277393617

>  <r_i_glide_metal>  (1) 
-0

>  <r_i_glide_rewards>  (1) 
-2.5597252469685059

>  <r_lp_Energy>  (1) 
22.823791999999997

>  <r_lp_tautomer_probability>  (1) 
1

>  <s_epik_cmdline>  (1) 
J2VwaWtfcHl0aG9uJywgJy1waHQnLCAnMS4wJywgJy1waCcsICc3LjQnLCAnLXRuJywgJzgnLCAnLW1hJywgJzUwMCcsICctaW1hZScsICc8aW5maWxlLm1hZT4nLCAnLW9tYWUnLCAnPG91dGZpbGUubWFlPic=

>  <s_epik_input>  (1) 
W09IXVtDSDJdW0NIMl1bQ0gyXVtDSDJdW0NIMl1bQ0gyXVtDQEhdMVtDSDJdW0NIMl1bQ0gyXU4oW0NIM10pW0NAQEhdMVtDSDNd

>  <s_glide_docking_method>  (1) 
confgen

>  <s_i_glide_gridfile>  (1) 
gpcr_5ht2c_6bqh_protein_autoprepared_prepared

>  <s_lp_Force_Field>  (1) 
S-OPLS

>  <s_lp_Variant>  (1) 
DiffSBDD_16_num_sample_50-1

>  <s_m_source_file>  (1) 
generated__ligand_DiffSBDD_2026-05-06_prepared.sdf

>  <GenAI_Model>  (1) 
DiffSBDD

>  <Protein>  (1) 
GPCR_5HT2C

$$$$
DiffSBDD_16_num_sample_50
     RDKit          3D

  0  0  0  0  0  0  0  0  0  0999 V3000
M  V30 BEGIN CTAB
M  V30 COUNTS 43 43 0 0 1
M  V30 BEGIN ATOM
M  V30 1 C 38.213407 28.663686 55.077957 0
M  V30 2 C 39.284114 29.656274 52.953634 0
M  V30 3 C 39.912295 30.320242 49.870243 0
M  V30 4 C 39.562821 27.800485 57.876387 0
M  V30 5 C 40.213259 27.789624 56.486214 0
M  V30 6 C 38.865066 29.892619 54.414927 0
M  V30 7 C 39.179447 27.485024 55.378314 0 CFG=1
M  V30 8 O 39.467403 31.595249 49.453517 0
M  V30 9 N 37.805527 26.229811 57.058727 0 CFG=2 CHG=1
M  V30 10 C 40.105485 30.821429 52.375880 0
M  V30 11 C 40.840896 30.462436 51.069836 0
M  V30 12 C 38.410416 26.178875 55.696287 0 CFG=2
M  V30 13 C 38.791057 26.498363 58.138014 0
M  V30 14 C 39.278376 24.924073 55.480795 0
M  V30 15 C 36.928141 25.074481 57.357149 0
M  V30 16 H 37.722149 28.984146 55.996688 0
M  V30 17 H 37.408413 28.324035 54.424788 0
M  V30 18 H 38.396201 29.480295 52.348011 0
M  V30 19 H 39.867403 28.744713 52.868286 0
M  V30 20 H 39.067403 29.682877 50.125659 0
M  V30 21 H 40.439842 29.832266 49.053501 0
M  V30 22 H 40.328739 27.935478 58.641103 0
M  V30 23 H 38.891815 28.655007 57.968603 0
M  V30 24 H 40.997217 27.031005 56.469351 0
M  V30 25 H 40.723770 28.733697 56.302840 0
M  V30 26 H 39.718945 30.227370 55.002608 0
M  V30 27 H 38.155313 30.721237 54.438318 0
M  V30 28 H 39.739576 27.292552 54.465176 0
M  V30 29 H 38.712338 31.456458 48.897294 0
M  V30 30 H 40.828912 31.152706 53.119617 0
M  V30 31 H 39.467403 31.686017 52.213897 0
M  V30 32 H 41.390549 29.530342 51.202271 0
M  V30 33 H 41.587754 31.221416 50.843523 0
M  V30 34 H 37.589441 26.101264 54.981196 0
M  V30 35 H 39.482699 25.661446 58.241634 0
M  V30 36 H 38.267409 26.582072 59.088612 0
M  V30 37 H 39.772434 24.954312 54.511320 0
M  V30 38 H 40.064852 24.821430 56.227586 0
M  V30 39 H 38.667405 24.021433 55.500357 0
M  V30 40 H 37.503905 24.162609 57.521468 0
M  V30 41 H 36.337730 25.255107 58.253485 0
M  V30 42 H 36.231729 24.896330 56.537273 0
M  V30 43 H 37.198656 27.037681 57.044237 0
M  V30 END ATOM
M  V30 BEGIN BOND
M  V30 1 1 5 4
M  V30 2 1 6 1
M  V30 3 1 6 2
M  V30 4 1 7 1
M  V30 5 1 7 5
M  V30 6 1 8 3
M  V30 7 1 10 2
M  V30 8 1 11 3
M  V30 9 1 11 10
M  V30 10 1 12 7
M  V30 11 1 12 9
M  V30 12 1 13 4
M  V30 13 1 13 9
M  V30 14 1 14 12
M  V30 15 1 15 9
M  V30 16 1 16 1
M  V30 17 1 17 1
M  V30 18 1 18 2
M  V30 19 1 19 2
M  V30 20 1 20 3
M  V30 21 1 21 3
M  V30 22 1 22 4
M  V30 23 1 23 4
M  V30 24 1 24 5
M  V30 25 1 25 5
M  V30 26 1 26 6
M  V30 27 1 27 6
M  V30 28 1 7 28 CFG=3
M  V30 29 1 29 8
M  V30 30 1 30 10
M  V30 31 1 31 10
M  V30 32 1 32 11
M  V30 33 1 33 11
M  V30 34 1 12 34 CFG=3
M  V30 35 1 35 13
M  V30 36 1 36 13
M  V30 37 1 37 14
M  V30 38 1 38 14
M  V30 39 1 39 14
M  V30 40 1 40 15
M  V30 41 1 41 15
M  V30 42 1 42 15
M  V30 43 1 9 43 CFG=3
M  V30 END BOND
M  V30 END CTAB
M  END
>  <i_epik_Tot_Q>  (1) 
1

>  <i_epik_Tot_abs_Q>  (1) 
1

>  <i_i_glide_confnum>  (1) 
119

>  <i_i_glide_lignum>  (1) 
47

>  <i_i_glide_posenum>  (1) 
191

>  <i_i_glide_rotatable_bonds>  (1) 
7

>  <i_lp_mmshare_version>  (1) 
72125

>  <i_m_source_file_index>  (1) 
17

>  <i_f3d_flags>  (1) 
0

>  <num_sample>  (1) 
50

>  <b_lp_Chiralities_Consistent>  (1) 
1

>  <r_epik_Charging_Adjusted_Penalty>  (1) 
0.0018248254832493158

>  <r_epik_Ionization_Penalty>  (1) 
0.0018251261234076507

>  <r_epik_Ionization_Penalty_Charging>  (1) 
0.0018248254832493158

>  <r_epik_Ionization_Penalty_Neutral>  (1) 
3.0064015833489429e-07

>  <r_epik_State_Penalty>  (1) 
-0

>  <r_glide_ring_energy>  (1) 
0

>  <r_i_docking_score>  (1) 
-2.6911931853964961

>  <r_i_glide_ecoul>  (1) 
-0.76806761855325079

>  <r_i_glide_eff_state_penalty>  (1) 
-0

>  <r_i_glide_einternal>  (1) 
5.8498673277783642

>  <r_i_glide_emodel>  (1) 
-24.032677311658404

>  <r_i_glide_emodel_strain>  (1) 
0.10655595818309394

>  <r_i_glide_energy>  (1) 
-21.505722071853477

>  <r_i_glide_erotb>  (1) 
4.3624240847918374

>  <r_i_glide_esite>  (1) 
0

>  <r_i_glide_evdw>  (1) 
-20.737654453300227

>  <r_i_glide_gscore>  (1) 
-2.6911931853964961

>  <r_i_glide_gscore_strain>  (1) 
0

>  <r_i_glide_hbond>  (1) 
-0.22265402058014261

>  <r_i_glide_ligand_efficiency>  (1) 
-0.17941287902643308

>  <r_i_glide_ligand_efficiency_ln>  (1) 
-0.72577042905097255

>  <r_i_glide_ligand_efficiency_sa>  (1) 
-0.44247020854538127

>  <r_i_glide_lipo>  (1) 
-3.2108116888608156

>  <r_i_glide_metal>  (1) 
-0

>  <r_i_glide_rewards>  (1) 
-2.4680586952993768

>  <r_lp_Energy>  (1) 
24.512706999999999

>  <r_lp_tautomer_probability>  (1) 
1

>  <s_epik_cmdline>  (1) 
J2VwaWtfcHl0aG9uJywgJy1waHQnLCAnMS4wJywgJy1waCcsICc3LjQnLCAnLXRuJywgJzgnLCAnLW1hJywgJzUwMCcsICctaW1hZScsICc8aW5maWxlLm1hZT4nLCAnLW9tYWUnLCAnPG91dGZpbGUubWFlPic=

>  <s_epik_input>  (1) 
W09IXVtDSDJdW0NIMl1bQ0gyXVtDSDJdW0NIMl1bQ0gyXVtDQEhdMVtDSDJdW0NIMl1bQ0gyXU4oW0NIM10pW0NAQEhdMVtDSDNd

>  <s_glide_docking_method>  (1) 
confgen

>  <s_i_glide_gridfile>  (1) 
gpcr_5ht2c_6bqh_protein_autoprepared_prepared

>  <s_lp_Force_Field>  (1) 
S-OPLS

>  <s_lp_Variant>  (1) 
DiffSBDD_16_num_sample_50-2

>  <s_m_source_file>  (1) 
generated__ligand_DiffSBDD_2026-05-06_prepared.sdf

>  <GenAI_Model>  (1) 
DiffSBDD

>  <Protein>  (1) 
GPCR_5HT2C

$$$$
DiffSBDD_39_num_sample_50
     RDKit          3D

  0  0  0  0  0  0  0  0  0  0999 V3000
M  V30 BEGIN CTAB
M  V30 COUNTS 88 94 0 0 1
M  V30 BEGIN ATOM
M  V30 1 C 38.998421 30.991466 57.016265 0 CFG=2
M  V30 2 C 38.249528 28.167627 54.583534 0
M  V30 3 C 38.486216 32.133022 62.331176 0
M  V30 4 C 39.694419 31.449494 62.952871 0
M  V30 5 C 39.244340 27.963101 56.916619 0
M  V30 6 O 38.945766 36.830642 63.180748 0
M  V30 7 N 38.285477 30.095497 56.125081 0
M  V30 8 C 39.067306 32.289377 49.078098 0
M  V30 9 C 38.833730 32.935696 61.060094 0 CFG=2
M  V30 10 C 37.023345 37.005389 60.989705 0
M  V30 11 C 36.942321 33.297610 59.270229 0 CFG=2
M  V30 12 S 37.260828 30.219166 59.152375 0
M  V30 13 C 40.101761 26.510492 53.814011 0
M  V30 14 C 40.154687 37.527310 62.953425 0
M  V30 15 C 41.302838 36.529415 63.161112 0
M  V30 16 O 35.785320 32.558377 59.579989 0
M  V30 17 O 38.263106 29.797775 60.143766 0
M  V30 18 C 39.596533 28.330979 51.044651 0
M  V30 19 O 38.123023 35.086873 60.038958 0
M  V30 20 C 37.245358 30.721311 55.307893 0
M  V30 21 O 40.118239 31.585052 49.453503 0
M  V30 22 C 39.867461 31.008131 51.758304 0
M  V30 23 C 38.594539 33.566212 57.329701 0
M  V30 24 C 38.073298 31.408622 58.079879 0
M  V30 25 C 39.301639 32.457927 56.431463 0
M  V30 26 C 38.789022 35.727608 62.301261 0 CFG=2
M  V30 27 C 41.317217 32.737246 61.539431 0
M  V30 28 C 35.959034 31.213516 59.961936 0
M  V30 29 N 38.308567 33.056279 48.653638 0
M  V30 30 C 38.832387 26.350248 53.051887 0
M  V30 31 O 41.212981 35.554095 62.161484 0
M  V30 32 O 36.584664 29.214441 58.322714 0
M  V30 33 C 40.139604 33.714502 61.253974 0 CFG=2
M  V30 34 C 39.630442 30.061805 52.748917 0
M  V30 35 C 37.861858 32.676928 58.229183 0
M  V30 36 C 40.038470 34.794469 62.340669 0 CFG=2
M  V30 37 C 39.839006 29.297412 50.062561 0
M  V30 38 C 39.942734 30.637499 50.415278 0
M  V30 39 C 39.176800 27.682042 53.504018 0
M  V30 40 C 37.661911 33.826654 60.515629 0 CFG=2
M  V30 41 C 39.003250 28.899627 55.705969 0 CFG=2
M  V30 42 C 38.305381 36.170785 60.933965 0 CFG=2
M  V30 43 C 40.955953 31.721691 62.600163 0
M  V30 44 C 39.467291 28.709381 52.414713 0
M  V30 45 H 39.870287 30.539518 57.470362 0
M  V30 46 H 37.740828 27.323657 55.048867 0
M  V30 47 H 37.440946 28.686097 54.081116 0
M  V30 48 H 38.072084 32.820437 63.053456 0
M  V30 49 H 37.732831 31.377603 62.147204 0
M  V30 50 H 39.497747 30.713142 63.719012 0
M  V30 51 H 39.828965 27.088766 56.635844 0
M  V30 52 H 39.801503 28.438515 57.721960 0
M  V30 53 H 38.304371 27.599790 57.334270 0
M  V30 54 H 39.108997 32.193449 60.321063 0
M  V30 55 H 37.206139 37.970577 61.461302 0
M  V30 56 H 36.629191 37.192123 59.991315 0
M  V30 57 H 36.267430 36.491662 61.574038 0
M  V30 58 H 36.487684 34.156136 58.767326 0
M  V30 59 H 41.029796 26.416014 53.262237 0
M  V30 60 H 40.099978 26.036066 54.789056 0
M  V30 61 H 40.199110 38.360584 63.645356 0
M  V30 62 H 40.188057 37.962158 61.953741 0
M  V30 63 H 41.277961 36.089279 64.158570 0
M  V30 64 H 42.267285 36.998549 63.053423 0
M  V30 65 H 39.502292 27.308977 50.738949 0
M  V30 66 H 36.313874 30.158984 55.374535 0
M  V30 67 H 37.067397 31.729820 55.659035 0
M  V30 68 H 37.520340 30.836923 54.261546 0
M  V30 69 H 39.966457 32.021429 52.030494 0
M  V30 70 H 37.965196 34.273814 56.790392 0
M  V30 71 H 39.298589 34.021012 58.012337 0
M  V30 72 H 38.979064 32.571108 55.397649 0
M  V30 73 H 40.362388 32.658569 56.362094 0
M  V30 74 H 37.924053 35.221467 62.653497 0
M  V30 75 H 42.219909 33.267390 61.842237 0
M  V30 76 H 41.578600 32.166087 60.653606 0
M  V30 77 H 35.067459 30.782798 59.554125 0
M  V30 78 H 35.953426 31.053010 61.035201 0
M  V30 79 H 38.028930 25.805299 53.543117 0
M  V30 80 H 39.067354 26.021445 52.059837 0
M  V30 81 H 40.329857 34.224115 60.312332 0
M  V30 82 H 39.561347 30.384978 53.769268 0
M  V30 83 H 40.077156 34.319940 63.323521 0
M  V30 84 H 39.915635 29.007832 49.032637 0
M  V30 85 H 36.894329 33.979107 61.274375 0
M  V30 86 H 39.986906 29.208420 55.356295 0
M  V30 87 H 39.067135 36.796161 60.529969 0
M  V30 88 H 41.773439 31.200942 63.078554 0
M  V30 END ATOM
M  V30 BEGIN BOND
M  V30 1 1 4 3
M  V30 2 1 7 1
M  V30 3 1 9 3
M  V30 4 1 14 6
M  V30 5 1 15 14
M  V30 6 1 16 11
M  V30 7 2 17 12
M  V30 8 1 20 7
M  V30 9 1 21 8
M  V30 10 1 24 1
M  V30 11 1 24 12
M  V30 12 1 25 1
M  V30 13 1 25 23
M  V30 14 1 26 6
M  V30 15 1 28 12
M  V30 16 1 28 16
M  V30 17 3 29 8
M  V30 18 1 30 13
M  V30 19 1 31 15
M  V30 20 2 32 12
M  V30 21 1 33 9
M  V30 22 1 33 27
M  V30 23 2 34 22
M  V30 24 1 35 11
M  V30 25 1 35 23
M  V30 26 2 35 24
M  V30 27 1 36 26
M  V30 28 1 36 31
M  V30 29 1 36 33
M  V30 30 1 37 18
M  V30 31 1 38 21
M  V30 32 1 38 22
M  V30 33 2 38 37
M  V30 34 1 39 2
M  V30 35 1 39 13
M  V30 36 1 39 30
M  V30 37 1 40 9
M  V30 38 1 40 11
M  V30 39 1 40 19
M  V30 40 1 41 2
M  V30 41 1 41 5
M  V30 42 1 41 7
M  V30 43 1 42 10
M  V30 44 1 42 19
M  V30 45 1 42 26
M  V30 46 2 43 4
M  V30 47 1 43 27
M  V30 48 2 44 18
M  V30 49 1 44 34
M  V30 50 1 44 39
M  V30 51 1 1 45 CFG=1
M  V30 52 1 46 2
M  V30 53 1 47 2
M  V30 54 1 48 3
M  V30 55 1 49 3
M  V30 56 1 50 4
M  V30 57 1 51 5
M  V30 58 1 52 5
M  V30 59 1 53 5
M  V30 60 1 9 54 CFG=3
M  V30 61 1 55 10
M  V30 62 1 56 10
M  V30 63 1 57 10
M  V30 64 1 11 58 CFG=3
M  V30 65 1 59 13
M  V30 66 1 60 13
M  V30 67 1 61 14
M  V30 68 1 62 14
M  V30 69 1 63 15
M  V30 70 1 64 15
M  V30 71 1 65 18
M  V30 72 1 66 20
M  V30 73 1 67 20
M  V30 74 1 68 20
M  V30 75 1 69 22
M  V30 76 1 70 23
M  V30 77 1 71 23
M  V30 78 1 72 25
M  V30 79 1 73 25
M  V30 80 1 26 74 CFG=1
M  V30 81 1 75 27
M  V30 82 1 76 27
M  V30 83 1 77 28
M  V30 84 1 78 28
M  V30 85 1 79 30
M  V30 86 1 80 30
M  V30 87 1 33 81 CFG=3
M  V30 88 1 82 34
M  V30 89 1 36 83 CFG=1
M  V30 90 1 84 37
M  V30 91 1 40 85 CFG=1
M  V30 92 1 41 86 CFG=3
M  V30 93 1 42 87 CFG=3
M  V30 94 1 88 43
M  V30 END BOND
M  V30 END CTAB
M  END
>  <i_epik_Tot_Q>  (1) 
0

>  <i_epik_Tot_abs_Q>  (1) 
0

>  <i_i_glide_confnum>  (1) 
104

>  <i_i_glide_lignum>  (1) 
93

>  <i_i_glide_posenum>  (1) 
391

>  <i_i_glide_rotatable_bonds>  (1) 
7

>  <i_lp_mmshare_version>  (1) 
72125

>  <i_m_source_file_index>  (1) 
40

>  <i_f3d_flags>  (1) 
0

>  <num_sample>  (1) 
50

>  <b_lp_Chiralities_Consistent>  (1) 
1

>  <r_epik_Charging_Adjusted_Penalty>  (1) 
0

>  <r_epik_Ionization_Penalty>  (1) 
0.0018775400200383807

>  <r_epik_Ionization_Penalty_Charging>  (1) 
0

>  <r_epik_Ionization_Penalty_Neutral>  (1) 
0.0018775400200383807

>  <r_epik_State_Penalty>  (1) 
-0

>  <r_glide_ring_energy>  (1) 
0

>  <r_i_docking_score>  (1) 
-2.6782522926135952

>  <r_i_glide_ecoul>  (1) 
-0.0071475701997850694

>  <r_i_glide_eff_state_penalty>  (1) 
-0

>  <r_i_glide_einternal>  (1) 
12.424602536047942

>  <r_i_glide_emodel>  (1) 
-3.4248828112234513

>  <r_i_glide_emodel_strain>  (1) 
11.563924473845233

>  <r_i_glide_energy>  (1) 
-20.345090191997521

>  <r_i_glide_erotb>  (1) 
0.2436664055198263

>  <r_i_glide_esite>  (1) 
-0.10367250111104059

>  <r_i_glide_evdw>  (1) 
-20.337942621797737

>  <r_i_glide_gscore>  (1) 
-2.6782522926135952

>  <r_i_glide_gscore_strain>  (1) 
1.8909811184613083

>  <r_i_glide_hbond>  (1) 
0

>  <r_i_glide_ligand_efficiency>  (1) 
-0.060869370286672615

>  <r_i_glide_ligand_efficiency_ln>  (1) 
-0.55981315490207706

>  <r_i_glide_ligand_efficiency_sa>  (1) 
-0.21489008006390045

>  <r_i_glide_lipo>  (1) 
-4.7116376807822391

>  <r_i_glide_metal>  (1) 
-0

>  <r_i_glide_rewards>  (1) 
1.0203796319184035

>  <r_lp_Energy>  (1) 
39.908791999999998

>  <r_lp_tautomer_probability>  (1) 
1

>  <s_epik_cmdline>  (1) 
J2VwaWtfcHl0aG9uJywgJy1waHQnLCAnMS4wJywgJy1waCcsICc3LjQnLCAnLXRuJywgJzgnLCAnLW1hJywgJzUwMCcsICctaW1hZScsICc8aW5maWxlLm1hZT4nLCAnLW9tYWUnLCAnPG91dGZpbGUubWFlPic=

>  <s_epik_input>  (1) 
TiNDT2MxW2NIXVtjSF1jKFtjSF1bY0hdMSlDMihbQ0gyXVtDSDJdMilbQ0gyXVtDQEhdKFtDSDNdKU4oW0NIM10pW0NASF0zW0NIMl1bQ0gyXUMoPUMzNClbQ0BASF0oT1tDSDJdUzQoPU8pPU8pW0NAQEhdNU9bQ0BASF0oW0NIM10pW0NASF0oT1tDSDJdW0NIMl1PNilbQ0BIXTZbQ0BIXShbQ0BIXTU3KVtDSDJdW0NIXT1bQ0hdW0NIMl03

>  <s_glide_docking_method>  (1) 
confgen

>  <s_i_glide_gridfile>  (1) 
gpcr_5ht2c_6bqh_protein_autoprepared_prepared

>  <s_lp_Force_Field>  (1) 
S-OPLS

>  <s_lp_Variant>  (1) 
DiffSBDD_39_num_sample_50-1

>  <s_m_source_file>  (1) 
generated__ligand_DiffSBDD_2026-05-06_prepared.sdf

>  <GenAI_Model>  (1) 
DiffSBDD

>  <Protein>  (1) 
GPCR_5HT2C

$$$$
DiffSBDD_7_num_sample_50
     RDKit          3D

  0  0  0  0  0  0  0  0  0  0999 V3000
M  V30 BEGIN CTAB
M  V30 COUNTS 93 96 0 0 1
M  V30 BEGIN ATOM
M  V30 1 C 37.079951 25.515531 55.629500 0 CFG=1
M  V30 2 O 37.435058 31.532498 62.277436 0
M  V30 3 C 38.741759 28.514633 54.650908 0 CFG=1
M  V30 4 C 39.736022 33.437213 59.316396 0
M  V30 5 O 38.846926 24.155223 56.253513 0 CHG=-1
M  V30 6 N 38.916284 36.693701 63.924774 0
M  V30 7 S 40.876562 30.892950 63.902294 0
M  V30 8 N 43.277797 30.869102 66.352703 0
M  V30 9 N 38.648444 32.456814 59.466952 0 CFG=2 CHG=1
M  V30 10 S 41.988129 33.082087 65.914425 0
M  V30 11 C 39.827654 36.406158 64.877803 0
M  V30 12 C 39.514837 27.885175 52.147511 0
M  V30 13 C 36.359308 31.166466 61.339367 0
M  V30 14 C 38.398903 32.456280 61.798853 0 CFG=1
M  V30 15 C 41.098712 31.504404 65.648490 0 CFG=2
M  V30 16 N 40.527491 36.053437 65.731555 0
M  V30 17 O 40.360073 34.901020 61.213941 0
M  V30 18 C 39.380756 29.449926 55.613479 0
M  V30 19 O 41.687257 28.734825 69.762087 0
M  V30 20 C 36.682586 27.921758 53.056364 0
M  V30 21 C 39.453478 33.179925 62.756293 0 CFG=2
M  V30 22 C 41.912739 28.743046 68.365833 0 CFG=1
M  V30 23 O 37.463952 23.447067 54.653767 0
M  V30 24 C 41.914036 30.374488 66.352314 0 CFG=2
M  V30 25 O 44.597708 32.767085 66.258529 0
M  V30 26 C 39.760750 34.721939 62.480314 0 CFG=2
M  V30 27 C 37.987141 26.653252 56.039289 0
M  V30 28 C 37.868442 24.282263 55.488672 0
M  V30 29 C 38.965163 28.248142 57.741638 0
M  V30 30 C 38.680383 29.528788 56.956589 0 CFG=1
M  V30 31 C 39.217321 30.742855 57.702980 0
M  V30 32 C 38.994872 31.655459 60.633901 0
M  V30 33 C 38.063074 27.140730 57.295365 0
M  V30 34 C 41.501992 30.131762 67.823176 0
M  V30 35 C 36.104476 24.979365 56.691371 0
M  V30 36 C 37.619024 28.885836 53.719352 0 CFG=2
M  V30 37 C 39.595001 34.771321 60.027586 0
M  V30 38 C 38.750918 35.902545 62.714165 0
M  V30 39 C 38.165856 31.689183 58.282994 0
M  V30 40 O 39.436354 30.425842 63.791100 0
M  V30 41 C 40.815206 32.437112 62.952944 0
M  V30 42 C 43.382150 28.357842 68.118691 0
M  V30 43 C 39.037218 28.880048 53.195001 0 CFG=1
M  V30 44 C 43.510520 32.202003 66.208576 0
M  V30 45 O 41.846026 32.888356 62.451027 0
M  V30 46 O 37.851117 36.172920 61.926050 0
M  V30 47 O 38.776763 27.129965 54.997467 0
M  V30 48 H 36.668104 25.736343 54.656944 0
M  V30 49 H 39.892314 33.612580 58.260416 0
M  V30 50 H 40.642879 33.100800 59.848274 0
M  V30 51 H 38.292744 37.464755 64.099983 0
M  V30 52 H 44.065026 30.255437 66.518958 0
M  V30 53 H 39.492692 26.862722 52.520857 0
M  V30 54 H 38.870608 27.947315 51.269592 0
M  V30 55 H 40.528957 28.118495 51.821379 0
M  V30 56 H 35.512128 30.562500 61.675975 0
M  V30 57 H 35.942513 32.036810 60.827715 0
M  V30 58 H 36.683545 30.469748 60.576903 0
M  V30 59 H 37.751998 33.271883 61.458074 0
M  V30 60 H 40.098250 31.576416 66.076415 0
M  V30 61 H 39.354484 30.430376 55.135139 0
M  V30 62 H 40.423773 29.163532 55.731733 0
M  V30 63 H 42.211156 29.410015 70.164395 0
M  V30 64 H 37.194004 27.006585 52.757422 0
M  V30 65 H 35.881785 27.621823 53.712008 0
M  V30 66 H 36.283895 28.421506 52.174793 0
M  V30 67 H 39.078037 33.114052 63.758253 0
M  V30 68 H 41.275588 27.984319 67.902867 0
M  V30 69 H 41.841105 29.429003 65.811932 0
M  V30 70 H 40.592124 34.950398 63.145778 0
M  V30 71 H 40.005679 27.926877 57.651601 0
M  V30 72 H 38.768336 28.401874 58.806623 0
M  V30 73 H 37.604983 29.630663 56.786610 0
M  V30 74 H 39.867112 31.310728 57.033260 0
M  V30 75 H 39.861825 30.374776 58.494973 0
M  V30 76 H 38.656318 30.631622 60.527727 0
M  V30 77 H 40.051760 31.422329 60.741557 0
M  V30 78 H 37.440199 26.707186 58.057932 0
M  V30 79 H 40.417074 30.214286 67.907585 0
M  V30 80 H 41.913052 30.923383 68.459267 0
M  V30 81 H 36.651982 24.513293 57.518282 0
M  V30 82 H 35.438120 25.621221 57.215055 0
M  V30 83 H 35.469947 24.216181 56.251619 0
M  V30 84 H 37.168500 29.856002 53.912595 0
M  V30 85 H 38.606054 35.216239 59.956856 0
M  V30 86 H 40.266786 35.387348 59.453508 0
M  V30 87 H 37.297893 31.107650 58.599198 0
M  V30 88 H 37.792629 32.378560 57.522716 0
M  V30 89 H 43.579306 28.217466 67.055433 0
M  V30 90 H 44.068138 29.122149 68.483853 0
M  V30 91 H 43.635341 27.416449 68.604962 0
M  V30 92 H 39.418321 29.882343 52.993526 0
M  V30 93 H 37.821524 32.975362 59.730650 0
M  V30 END ATOM
M  V30 BEGIN BOND
M  V30 1 1 9 4
M  V30 2 1 11 6
M  V30 3 1 13 2
M  V30 4 1 14 2
M  V30 5 1 15 7
M  V30 6 1 15 10
M  V30 7 3 16 11
M  V30 8 1 18 3
M  V30 9 1 21 14
M  V30 10 1 22 19
M  V30 11 1 24 8
M  V30 12 1 24 15
M  V30 13 1 26 17
M  V30 14 1 26 21
M  V30 15 1 27 1
M  V30 16 1 28 1
M  V30 17 1 28 5
M  V30 18 2 28 23
M  V30 19 1 30 18
M  V30 20 1 30 29
M  V30 21 1 31 30
M  V30 22 1 32 9
M  V30 23 1 32 14
M  V30 24 2 33 27
M  V30 25 1 33 29
M  V30 26 1 34 22
M  V30 27 1 34 24
M  V30 28 1 35 1
M  V30 29 1 36 3
M  V30 30 1 36 20
M  V30 31 1 37 4
M  V30 32 1 37 17
M  V30 33 1 38 6
M  V30 34 1 38 26
M  V30 35 1 39 9
M  V30 36 1 39 31
M  V30 37 2 40 7
M  V30 38 1 7 41 CFG=3
M  V30 39 1 41 21
M  V30 40 1 42 22
M  V30 41 1 43 3
M  V30 42 1 43 12
M  V30 43 1 43 36
M  V30 44 1 44 8
M  V30 45 1 44 10
M  V30 46 2 44 25
M  V30 47 2 45 41
M  V30 48 2 46 38
M  V30 49 1 3 47 CFG=1
M  V30 50 1 47 27
M  V30 51 1 1 48 CFG=3
M  V30 52 1 49 4
M  V30 53 1 50 4
M  V30 54 1 51 6
M  V30 55 1 52 8
M  V30 56 1 53 12
M  V30 57 1 54 12
M  V30 58 1 55 12
M  V30 59 1 56 13
M  V30 60 1 57 13
M  V30 61 1 58 13
M  V30 62 1 14 59 CFG=3
M  V30 63 1 15 60 CFG=1
M  V30 64 1 61 18
M  V30 65 1 62 18
M  V30 66 1 63 19
M  V30 67 1 64 20
M  V30 68 1 65 20
M  V30 69 1 66 20
M  V30 70 1 21 67 CFG=1
M  V30 71 1 22 68 CFG=3
M  V30 72 1 24 69 CFG=3
M  V30 73 1 26 70 CFG=1
M  V30 74 1 71 29
M  V30 75 1 72 29
M  V30 76 1 30 73 CFG=3
M  V30 77 1 74 31
M  V30 78 1 75 31
M  V30 79 1 76 32
M  V30 80 1 77 32
M  V30 81 1 78 33
M  V30 82 1 79 34
M  V30 83 1 80 34
M  V30 84 1 81 35
M  V30 85 1 82 35
M  V30 86 1 83 35
M  V30 87 1 36 84 CFG=1
M  V30 88 1 85 37
M  V30 89 1 86 37
M  V30 90 1 87 39
M  V30 91 1 88 39
M  V30 92 1 89 42
M  V30 93 1 90 42
M  V30 94 1 91 42
M  V30 95 1 43 92 CFG=1
M  V30 96 1 9 93 CFG=1
M  V30 END BOND
M  V30 END CTAB
M  END
>  <i_epik_Tot_Q>  (1) 
0

>  <i_epik_Tot_abs_Q>  (1) 
2

>  <i_i_glide_confnum>  (1) 
1048

>  <i_i_glide_lignum>  (1) 
26

>  <i_i_glide_posenum>  (1) 
197

>  <i_i_glide_rotatable_bonds>  (1) 
14

>  <i_lp_mmshare_version>  (1) 
72125

>  <i_m_source_file_index>  (1) 
8

>  <i_f3d_flags>  (1) 
0

>  <num_sample>  (1) 
50

>  <b_lp_Chiralities_Consistent>  (1) 
1

>  <r_epik_Charging_Adjusted_Penalty>  (1) 
2.2678334573304797

>  <r_epik_Ionization_Penalty>  (1) 
1.1498882506810455

>  <r_epik_Ionization_Penalty_Charging>  (1) 
1.1031410554290029

>  <r_epik_Ionization_Penalty_Neutral>  (1) 
0.046747195252042517

>  <r_epik_State_Penalty>  (1) 
1.164692401901477

>  <r_glide_ring_energy>  (1) 
0

>  <r_i_docking_score>  (1) 
-2.6679323313625352

>  <r_i_glide_ecoul>  (1) 
-1.0651206963993736

>  <r_i_glide_eff_state_penalty>  (1) 
1.164692401901477

>  <r_i_glide_einternal>  (1) 
36.830059563899908

>  <r_i_glide_emodel>  (1) 
13.179883602860793

>  <r_i_glide_emodel_strain>  (1) 
7.6359160394677161

>  <r_i_glide_energy>  (1) 
-10.388641058756734

>  <r_i_glide_erotb>  (1) 
0.2643022598508753

>  <r_i_glide_esite>  (1) 
-0.038572330965668047

>  <r_i_glide_evdw>  (1) 
-9.3235203623573604

>  <r_i_glide_gscore>  (1) 
-3.8326247332640122

>  <r_i_glide_gscore_strain>  (1) 
0.90897900986692903

>  <r_i_glide_hbond>  (1) 
-0.2740008294425621

>  <r_i_glide_ligand_efficiency>  (1) 
-0.056764517688564581

>  <r_i_glide_ligand_efficiency_ln>  (1) 
-0.55007239994549428

>  <r_i_glide_ligand_efficiency_sa>  (1) 
-0.20485327186098615

>  <r_i_glide_lipo>  (1) 
-3.5914036787682009

>  <r_i_glide_metal>  (1) 
-0

>  <r_i_glide_rewards>  (1) 
-0.47598504122761076

>  <r_lp_Energy>  (1) 
34.071460000000002

>  <s_epik_Chemistry_Notes>  (1) 
This compound contains an acetal/aminal-like group ( X-CH(R)-Y where X, Y are N, S, or O) that may be acid/base labile, releasing an aldehyde.

>  <s_epik_cmdline>  (1) 
J2VwaWtfcHl0aG9uJywgJy1waHQnLCAnMS4wJywgJy1waCcsICc3LjQnLCAnLXRuJywgJzgnLCAnLW1hJywgJzUwMCcsICctaW1hZScsICc8aW5maWxlLm1hZT4nLCAnLW9tYWUnLCAnPG91dGZpbGUubWFlPic=

>  <s_epik_input>  (1) 
W09IXUMoPU8pW0NAQEhdKFtDSDNdKUMoTzEpPVtDSF1bQ0gyXVtDQEhdKFtDSDJdW0NAXTEyW0NASF0oW0NIM10pW0NAQEhdMltDSDNdKVtDSDJdW0NIMl1OM1tDSDJdW0NIMl1PW0NAQEhdKEMoPU8pW05IXUMjTilbQ0BASF0oW0NAQEhdKFtDSDJdMylPW0NIM10pQyg9TylTKD1PKVtDQEBIXTRTQyg9TylbTkhdW0NASF00W0NIMl1bQ0BIXShbT0hdKVtDSDNd

>  <s_glide_docking_method>  (1) 
confgen

>  <s_i_glide_gridfile>  (1) 
gpcr_5ht2c_6bqh_protein_autoprepared_prepared

>  <s_lp_Force_Field>  (1) 
S-OPLS

>  <s_lp_Variant>  (1) 
DiffSBDD_7_num_sample_50-4

>  <s_m_source_file>  (1) 
generated__ligand_DiffSBDD_2026-05-06_prepared.sdf

>  <GenAI_Model>  (1) 
DiffSBDD

>  <Protein>  (1) 
GPCR_5HT2C

$$$$
DiffSBDD_1_num_sample_50
     RDKit          3D

  0  0  0  0  0  0  0  0  0  0999 V3000
M  V30 BEGIN CTAB
M  V30 COUNTS 31 30 0 0 1
M  V30 BEGIN ATOM
M  V30 1 C 39.799727 29.887437 50.036907 0
M  V30 2 C 40.667655 29.999763 51.285949 0
M  V30 3 C 37.596857 30.321029 54.854840 0
M  V30 4 C 38.482679 29.134948 54.427183 0
M  V30 5 N 37.867440 33.221529 57.664823 0
M  V30 6 C 38.893776 29.156003 52.946012 0
M  V30 7 C 39.905255 30.268380 52.593853 0
M  V30 8 C 38.641126 30.990327 57.030841 0
M  V30 9 N 37.467423 30.421444 56.327056 0 CHG=1
M  V30 10 C 38.789611 32.506651 56.808407 0
M  V30 11 H 40.408100 29.668171 49.158809 0
M  V30 12 H 39.067405 29.085933 50.133322 0
M  V30 13 H 39.267850 30.821430 49.853367 0
M  V30 14 H 41.389410 30.799949 51.112963 0
M  V30 15 H 41.251466 29.085958 51.396860 0
M  V30 16 H 36.598216 30.188668 54.440158 0
M  V30 17 H 37.967044 31.257696 54.441385 0
M  V30 18 H 39.391792 29.084203 55.024604 0
M  V30 19 H 37.946084 28.207627 54.632946 0
M  V30 20 H 37.914641 34.213615 57.473544 0
M  V30 21 H 36.908752 32.946722 57.452811 0
M  V30 22 H 39.350865 28.192009 52.717082 0
M  V30 23 H 38.011169 29.221377 52.309287 0
M  V30 24 H 39.435436 31.249260 52.552195 0
M  V30 25 H 40.639108 30.352986 53.396247 0
M  V30 26 H 39.550774 30.484086 56.709803 0
M  V30 27 H 38.546079 30.779152 58.097244 0
M  V30 28 H 37.267582 29.505830 56.699689 0
M  V30 29 H 38.628090 32.796885 55.770997 0
M  V30 30 H 39.801088 32.822868 57.063503 0
M  V30 31 H 36.668398 31.024864 56.548866 0
M  V30 END ATOM
M  V30 BEGIN BOND
M  V30 1 1 2 1
M  V30 2 1 4 3
M  V30 3 1 6 4
M  V30 4 1 7 2
M  V30 5 1 7 6
M  V30 6 1 9 3
M  V30 7 1 9 8
M  V30 8 1 10 5
M  V30 9 1 10 8
M  V30 10 1 11 1
M  V30 11 1 12 1
M  V30 12 1 13 1
M  V30 13 1 14 2
M  V30 14 1 15 2
M  V30 15 1 16 3
M  V30 16 1 17 3
M  V30 17 1 18 4
M  V30 18 1 19 4
M  V30 19 1 20 5
M  V30 20 1 21 5
M  V30 21 1 22 6
M  V30 22 1 23 6
M  V30 23 1 24 7
M  V30 24 1 25 7
M  V30 25 1 26 8
M  V30 26 1 27 8
M  V30 27 1 28 9
M  V30 28 1 29 10
M  V30 29 1 30 10
M  V30 30 1 31 9
M  V30 END BOND
M  V30 END CTAB
M  END
>  <i_epik_Tot_Q>  (1) 
1

>  <i_epik_Tot_abs_Q>  (1) 
1

>  <i_i_glide_confnum>  (1) 
224

>  <i_i_glide_lignum>  (1) 
5

>  <i_i_glide_posenum>  (1) 
278

>  <i_i_glide_rotatable_bonds>  (1) 
7

>  <i_lp_mmshare_version>  (1) 
72125

>  <i_m_source_file_index>  (1) 
2

>  <i_f3d_flags>  (1) 
0

>  <num_sample>  (1) 
50

>  <b_lp_Chiralities_Consistent>  (1) 
1

>  <r_epik_Charging_Adjusted_Penalty>  (1) 
0.30664254943221692

>  <r_epik_Ionization_Penalty>  (1) 
0.19742572041850767

>  <r_epik_Ionization_Penalty_Charging>  (1) 
0.0017778986639453492

>  <r_epik_Ionization_Penalty_Neutral>  (1) 
0.19564782175456233

>  <r_epik_State_Penalty>  (1) 
0.30486465076827157

>  <r_glide_ring_energy>  (1) 
0

>  <r_i_docking_score>  (1) 
-2.6245815042329026

>  <r_i_glide_ecoul>  (1) 
-6.0574471916055774

>  <r_i_glide_eff_state_penalty>  (1) 
0.30486465076827157

>  <r_i_glide_einternal>  (1) 
6.7905673572892162

>  <r_i_glide_emodel>  (1) 
-25.468549113692283

>  <r_i_glide_emodel_strain>  (1) 
0.033460606122893477

>  <r_i_glide_energy>  (1) 
-22.387345836504764

>  <r_i_glide_erotb>  (1) 
3.4380790968712875

>  <r_i_glide_esite>  (1) 
-0.095672946280605534

>  <r_i_glide_evdw>  (1) 
-16.329898644899188

>  <r_i_glide_gscore>  (1) 
-2.9294461550011741

>  <r_i_glide_gscore_strain>  (1) 
0

>  <r_i_glide_hbond>  (1) 
-0.35999999999999999

>  <r_i_glide_ligand_efficiency>  (1) 
-0.26245815042329024

>  <r_i_glide_ligand_efficiency_ln>  (1) 
-0.79470518709739546

>  <r_i_glide_ligand_efficiency_sa>  (1) 
-0.56544894395354295

>  <r_i_glide_lipo>  (1) 
-1.5013116843309857

>  <r_i_glide_metal>  (1) 
-0

>  <r_i_glide_rewards>  (1) 
-2.6854286102750731

>  <r_lp_Energy>  (1) 
8.729457

>  <s_epik_cmdline>  (1) 
J2VwaWtfcHl0aG9uJywgJy1waHQnLCAnMS4wJywgJy1waCcsICc3LjQnLCAnLXRuJywgJzgnLCAnLW1hJywgJzUwMCcsICctaW1hZScsICc8aW5maWxlLm1hZT4nLCAnLW9tYWUnLCAnPG91dGZpbGUubWFlPic=

>  <s_epik_input>  (1) 
W0NIM11bQ0gyXVtDSDJdW0NIMl1bQ0gyXVtDSDJdW05IXVtDSDJdW0NIMl1bTkgyXQ==

>  <s_glide_docking_method>  (1) 
confgen

>  <s_i_glide_gridfile>  (1) 
gpcr_5ht2c_6bqh_protein_autoprepared_prepared

>  <s_lp_Force_Field>  (1) 
S-OPLS

>  <s_lp_Variant>  (1) 
DiffSBDD_1_num_sample_50-1

>  <s_m_source_file>  (1) 
generated__ligand_DiffSBDD_2026-05-06_prepared.sdf

>  <GenAI_Model>  (1) 
DiffSBDD

>  <Protein>  (1) 
GPCR_5HT2C

$$$$
DiffSBDD_1_num_sample_50
     RDKit          3D

  0  0  0  0  0  0  0  0  0  0999 V3000
M  V30 BEGIN CTAB
M  V30 COUNTS 31 30 0 0 1
M  V30 BEGIN ATOM
M  V30 1 C 41.143794 30.328397 49.853507 0
M  V30 2 C 39.947835 30.342730 50.797166 0
M  V30 3 C 37.643417 29.960019 54.695789 0
M  V30 4 C 38.747920 29.982293 53.620801 0
M  V30 5 N 37.867403 32.658485 58.189428 0
M  V30 6 C 38.574762 28.937601 52.500398 0
M  V30 7 C 39.690950 28.964641 51.433244 0
M  V30 8 C 38.807118 31.545417 56.230220 0
M  V30 9 N 37.588793 31.230065 55.453502 0 CHG=1
M  V30 10 C 38.658513 32.865150 56.994967 0
M  V30 11 H 41.302128 31.312771 49.425806 0
M  V30 12 H 42.051983 30.061965 50.391867 0
M  V30 13 H 41.000058 29.621429 49.037793 0
M  V30 14 H 39.067403 30.679337 50.253497 0
M  V30 15 H 40.158669 31.093949 51.556833 0
M  V30 16 H 37.784437 29.119529 55.376644 0
M  V30 17 H 36.667404 29.824389 54.234613 0
M  V30 18 H 38.762546 30.980360 53.187413 0
M  V30 19 H 39.723459 29.842853 54.087782 0
M  V30 20 H 37.796528 33.525041 58.704415 0
M  V30 21 H 36.909984 32.421422 57.927530 0
M  V30 22 H 38.535422 27.939990 52.939755 0
M  V30 23 H 37.612827 29.080060 52.009172 0
M  V30 24 H 40.624674 28.595970 51.853503 0
M  V30 25 H 39.433711 28.255274 50.645001 0
M  V30 26 H 39.651416 31.645809 55.548648 0
M  V30 27 H 39.046498 30.726232 56.910373 0
M  V30 28 H 36.797811 31.221399 56.100170 0
M  V30 29 H 38.213960 33.642912 56.371839 0
M  V30 30 H 39.640939 33.221416 57.304167 0
M  V30 31 H 37.409598 31.992659 54.815827 0
M  V30 END ATOM
M  V30 BEGIN BOND
M  V30 1 1 2 1
M  V30 2 1 4 3
M  V30 3 1 6 4
M  V30 4 1 7 2
M  V30 5 1 7 6
M  V30 6 1 9 3
M  V30 7 1 9 8
M  V30 8 1 10 5
M  V30 9 1 10 8
M  V30 10 1 11 1
M  V30 11 1 12 1
M  V30 12 1 13 1
M  V30 13 1 14 2
M  V30 14 1 15 2
M  V30 15 1 16 3
M  V30 16 1 17 3
M  V30 17 1 18 4
M  V30 18 1 19 4
M  V30 19 1 20 5
M  V30 20 1 21 5
M  V30 21 1 22 6
M  V30 22 1 23 6
M  V30 23 1 24 7
M  V30 24 1 25 7
M  V30 25 1 26 8
M  V30 26 1 27 8
M  V30 27 1 28 9
M  V30 28 1 29 10
M  V30 29 1 30 10
M  V30 30 1 31 9
M  V30 END BOND
M  V30 END CTAB
M  END
>  <i_epik_Tot_Q>  (1) 
1

>  <i_epik_Tot_abs_Q>  (1) 
1

>  <i_i_glide_confnum>  (1) 
64

>  <i_i_glide_lignum>  (1) 
5

>  <i_i_glide_posenum>  (1) 
350

>  <i_i_glide_rotatable_bonds>  (1) 
7

>  <i_lp_mmshare_version>  (1) 
72125

>  <i_m_source_file_index>  (1) 
2

>  <i_f3d_flags>  (1) 
0

>  <num_sample>  (1) 
50

>  <b_lp_Chiralities_Consistent>  (1) 
1

>  <r_epik_Charging_Adjusted_Penalty>  (1) 
0.30664254943221692

>  <r_epik_Ionization_Penalty>  (1) 
0.19742572041850767

>  <r_epik_Ionization_Penalty_Charging>  (1) 
0.0017778986639453492

>  <r_epik_Ionization_Penalty_Neutral>  (1) 
0.19564782175456233

>  <r_epik_State_Penalty>  (1) 
0.30486465076827157

>  <r_glide_ring_energy>  (1) 
0

>  <r_i_docking_score>  (1) 
-2.60088697238713

>  <r_i_glide_ecoul>  (1) 
-5.5248247589353054

>  <r_i_glide_eff_state_penalty>  (1) 
0.30486465076827157

>  <r_i_glide_einternal>  (1) 
4.3389927200327207

>  <r_i_glide_emodel>  (1) 
-26.755086389562276

>  <r_i_glide_emodel_strain>  (1) 
0.040712901519587286

>  <r_i_glide_energy>  (1) 
-22.508003148038114

>  <r_i_glide_erotb>  (1) 
3.4380790968712875

>  <r_i_glide_esite>  (1) 
-0.09401534789370769

>  <r_i_glide_evdw>  (1) 
-16.983178389102807

>  <r_i_glide_gscore>  (1) 
-2.9057516231554015

>  <r_i_glide_gscore_strain>  (1) 
0

>  <r_i_glide_hbond>  (1) 
-0.35999999999999999

>  <r_i_glide_ligand_efficiency>  (1) 
-0.26008869723871297

>  <r_i_glide_ligand_efficiency_ln>  (1) 
-0.7875306461912317

>  <r_i_glide_ligand_efficiency_sa>  (1) 
-0.56034411181628319

>  <r_i_glide_lipo>  (1) 
-1.5683180888957422

>  <r_i_glide_metal>  (1) 
-0

>  <r_i_glide_rewards>  (1) 
-2.6436146499418021

>  <r_lp_Energy>  (1) 
8.729457

>  <s_epik_cmdline>  (1) 
J2VwaWtfcHl0aG9uJywgJy1waHQnLCAnMS4wJywgJy1waCcsICc3LjQnLCAnLXRuJywgJzgnLCAnLW1hJywgJzUwMCcsICctaW1hZScsICc8aW5maWxlLm1hZT4nLCAnLW9tYWUnLCAnPG91dGZpbGUubWFlPic=

>  <s_epik_input>  (1) 
W0NIM11bQ0gyXVtDSDJdW0NIMl1bQ0gyXVtDSDJdW05IXVtDSDJdW0NIMl1bTkgyXQ==

>  <s_glide_docking_method>  (1) 
confgen

>  <s_i_glide_gridfile>  (1) 
gpcr_5ht2c_6bqh_protein_autoprepared_prepared

>  <s_lp_Force_Field>  (1) 
S-OPLS

>  <s_lp_Variant>  (1) 
DiffSBDD_1_num_sample_50-1

>  <s_m_source_file>  (1) 
generated__ligand_DiffSBDD_2026-05-06_prepared.sdf

>  <GenAI_Model>  (1) 
DiffSBDD

>  <Protein>  (1) 
GPCR_5HT2C

$$$$
DiffSBDD_16_num_sample_50
     RDKit          3D

  0  0  0  0  0  0  0  0  0  0999 V3000
M  V30 BEGIN CTAB
M  V30 COUNTS 43 43 0 0 1
M  V30 BEGIN ATOM
M  V30 1 C 38.276827 28.858105 55.276929 0
M  V30 2 C 39.232803 29.718316 53.057454 0
M  V30 3 C 39.973662 29.772584 49.983143 0
M  V30 4 C 39.535553 27.788075 58.086959 0
M  V30 5 C 40.213558 27.919441 56.717378 0
M  V30 6 C 38.935934 30.036495 54.532918 0
M  V30 7 C 39.229353 27.663890 55.556117 0 CFG=1
M  V30 8 O 39.467439 28.483132 50.253860 0
M  V30 9 N 37.832041 26.273228 57.098124 0 CFG=2 CHG=1
M  V30 10 C 40.084781 30.785232 52.347898 0
M  V30 11 C 40.858454 30.225177 51.137864 0
M  V30 12 C 38.464338 26.332949 55.749524 0 CFG=2
M  V30 13 C 38.798165 26.449242 58.212317 0
M  V30 14 C 39.355718 25.113136 55.445432 0
M  V30 15 C 36.936299 25.109278 57.286091 0
M  V30 16 H 37.847617 29.220289 56.211444 0
M  V30 17 H 37.426640 28.528521 54.678363 0
M  V30 18 H 38.298329 29.556187 52.520363 0
M  V30 19 H 39.753188 28.769717 52.978147 0
M  V30 20 H 40.541204 29.726496 49.053538 0
M  V30 21 H 39.172036 30.495713 49.853463 0
M  V30 22 H 40.280291 27.876288 58.879028 0
M  V30 23 H 38.835759 28.610636 58.237356 0
M  V30 24 H 41.037549 27.206342 56.657961 0
M  V30 25 H 40.664575 28.904193 56.623437 0
M  V30 26 H 39.849156 30.337849 55.045791 0
M  V30 27 H 38.273083 30.901914 54.574746 0
M  V30 28 H 39.842196 27.524477 54.669078 0
M  V30 29 H 38.791669 28.297727 49.618157 0
M  V30 30 H 40.792346 31.222656 53.052420 0
M  V30 31 H 39.467388 31.622339 52.035472 0
M  V30 32 H 41.468622 29.379525 51.452739 0
M  V30 33 H 41.536866 30.996695 50.772902 0
M  V30 34 H 37.659063 26.303496 55.013211 0
M  V30 35 H 39.507500 25.621394 58.244831 0
M  V30 36 H 38.267609 26.432126 59.160907 0
M  V30 37 H 39.835342 25.220915 54.472435 0
M  V30 38 H 40.151321 24.973863 56.176889 0
M  V30 39 H 38.764877 24.198743 55.405982 0
M  V30 40 H 37.497903 24.178168 57.369528 0
M  V30 41 H 36.346249 25.221095 58.194792 0
M  V30 42 H 36.239395 25.018365 56.452054 0
M  V30 43 H 37.231908 27.085588 57.135435 0
M  V30 END ATOM
M  V30 BEGIN BOND
M  V30 1 1 5 4
M  V30 2 1 6 1
M  V30 3 1 6 2
M  V30 4 1 7 1
M  V30 5 1 7 5
M  V30 6 1 8 3
M  V30 7 1 10 2
M  V30 8 1 11 3
M  V30 9 1 11 10
M  V30 10 1 12 7
M  V30 11 1 12 9
M  V30 12 1 13 4
M  V30 13 1 13 9
M  V30 14 1 14 12
M  V30 15 1 15 9
M  V30 16 1 16 1
M  V30 17 1 17 1
M  V30 18 1 18 2
M  V30 19 1 19 2
M  V30 20 1 20 3
M  V30 21 1 21 3
M  V30 22 1 22 4
M  V30 23 1 23 4
M  V30 24 1 24 5
M  V30 25 1 25 5
M  V30 26 1 26 6
M  V30 27 1 27 6
M  V30 28 1 7 28 CFG=3
M  V30 29 1 29 8
M  V30 30 1 30 10
M  V30 31 1 31 10
M  V30 32 1 32 11
M  V30 33 1 33 11
M  V30 34 1 12 34 CFG=3
M  V30 35 1 35 13
M  V30 36 1 36 13
M  V30 37 1 37 14
M  V30 38 1 38 14
M  V30 39 1 39 14
M  V30 40 1 40 15
M  V30 41 1 41 15
M  V30 42 1 42 15
M  V30 43 1 9 43 CFG=3
M  V30 END BOND
M  V30 END CTAB
M  END
>  <i_epik_Tot_Q>  (1) 
1

>  <i_epik_Tot_abs_Q>  (1) 
1

>  <i_i_glide_confnum>  (1) 
119

>  <i_i_glide_lignum>  (1) 
47

>  <i_i_glide_posenum>  (1) 
191

>  <i_i_glide_rotatable_bonds>  (1) 
7

>  <i_lp_mmshare_version>  (1) 
72125

>  <i_m_source_file_index>  (1) 
17

>  <i_f3d_flags>  (1) 
0

>  <num_sample>  (1) 
50

>  <b_lp_Chiralities_Consistent>  (1) 
1

>  <r_epik_Charging_Adjusted_Penalty>  (1) 
0.0018248254832493158

>  <r_epik_Ionization_Penalty>  (1) 
0.0018251261234076507

>  <r_epik_Ionization_Penalty_Charging>  (1) 
0.0018248254832493158

>  <r_epik_Ionization_Penalty_Neutral>  (1) 
3.0064015833489429e-07

>  <r_epik_State_Penalty>  (1) 
-0

>  <r_glide_ring_energy>  (1) 
0

>  <r_i_docking_score>  (1) 
-2.532143783716716

>  <r_i_glide_ecoul>  (1) 
-0.4765061728875708

>  <r_i_glide_eff_state_penalty>  (1) 
-0

>  <r_i_glide_einternal>  (1) 
5.2182086437071558

>  <r_i_glide_emodel>  (1) 
-25.819939268981667

>  <r_i_glide_emodel_strain>  (1) 
0.29413477095014429

>  <r_i_glide_energy>  (1) 
-23.493237352529739

>  <r_i_glide_erotb>  (1) 
4.3624240847918374

>  <r_i_glide_esite>  (1) 
0

>  <r_i_glide_evdw>  (1) 
-23.016731179642168

>  <r_i_glide_gscore>  (1) 
-2.532143783716716

>  <r_i_glide_gscore_strain>  (1) 
0

>  <r_i_glide_hbond>  (1) 
-0.039447965791746108

>  <r_i_glide_ligand_efficiency>  (1) 
-0.16880958558111439

>  <r_i_glide_ligand_efficiency_ln>  (1) 
-0.68287742786331251

>  <r_i_glide_ligand_efficiency_sa>  (1) 
-0.41632023822286723

>  <r_i_glide_lipo>  (1) 
-3.1827891241812925

>  <r_i_glide_metal>  (1) 
-0

>  <r_i_glide_rewards>  (1) 
-2.4500182936202712

>  <r_lp_Energy>  (1) 
24.512706999999999

>  <r_lp_tautomer_probability>  (1) 
1

>  <s_epik_cmdline>  (1) 
J2VwaWtfcHl0aG9uJywgJy1waHQnLCAnMS4wJywgJy1waCcsICc3LjQnLCAnLXRuJywgJzgnLCAnLW1hJywgJzUwMCcsICctaW1hZScsICc8aW5maWxlLm1hZT4nLCAnLW9tYWUnLCAnPG91dGZpbGUubWFlPic=

>  <s_epik_input>  (1) 
W09IXVtDSDJdW0NIMl1bQ0gyXVtDSDJdW0NIMl1bQ0gyXVtDQEhdMVtDSDJdW0NIMl1bQ0gyXU4oW0NIM10pW0NAQEhdMVtDSDNd

>  <s_glide_docking_method>  (1) 
confgen

>  <s_i_glide_gridfile>  (1) 
gpcr_5ht2c_6bqh_protein_autoprepared_prepared

>  <s_lp_Force_Field>  (1) 
S-OPLS

>  <s_lp_Variant>  (1) 
DiffSBDD_16_num_sample_50-2

>  <s_m_source_file>  (1) 
generated__ligand_DiffSBDD_2026-05-06_prepared.sdf

>  <GenAI_Model>  (1) 
DiffSBDD

>  <Protein>  (1) 
GPCR_5HT2C

$$$$
DiffSBDD_1_num_sample_50
     RDKit          3D

  0  0  0  0  0  0  0  0  0  0999 V3000
M  V30 BEGIN CTAB
M  V30 COUNTS 32 31 0 0 1
M  V30 BEGIN ATOM
M  V30 1 C 41.328337 30.420298 49.572346 0
M  V30 2 C 40.488670 29.699325 50.621708 0
M  V30 3 C 38.208082 30.656817 55.082484 0
M  V30 4 C 39.080959 31.127498 53.928652 0
M  V30 5 N 37.067404 32.821428 58.653501 0 CHG=1
M  V30 6 C 39.321823 30.053311 52.871494 0
M  V30 7 C 40.082404 30.688553 51.705765 0
M  V30 8 C 38.812135 32.122926 57.016731 0
M  V30 9 N 37.867403 31.806400 55.930798 0 CHG=1
M  V30 10 C 38.255374 33.251793 57.894892 0
M  V30 11 H 41.467407 29.795290 48.689957 0
M  V30 12 H 42.302386 30.687921 49.975417 0
M  V30 13 H 40.846014 31.350866 49.278932 0
M  V30 14 H 39.598718 29.272171 50.156920 0
M  V30 15 H 41.054705 28.872819 51.053531 0
M  V30 16 H 37.274761 30.253149 54.687281 0
M  V30 17 H 38.684085 29.859986 55.656205 0
M  V30 18 H 40.039591 31.478749 54.312571 0
M  V30 19 H 38.608365 31.989011 53.453493 0
M  V30 20 H 36.689123 33.604926 59.167258 0
M  V30 21 H 36.339506 32.472264 58.019106 0
M  V30 22 H 38.382088 29.621445 52.522962 0
M  V30 23 H 39.867402 29.221478 53.306529 0
M  V30 24 H 40.966963 31.207473 52.076802 0
M  V30 25 H 39.467409 31.467836 51.252888 0
M  V30 26 H 39.008894 31.233584 57.617471 0
M  V30 27 H 39.762460 32.430308 56.577911 0
M  V30 28 H 37.741917 32.615538 55.337221 0
M  V30 29 H 39.015554 33.586981 58.601896 0
M  V30 30 H 37.986916 34.112300 57.280388 0
M  V30 31 H 36.941102 31.621429 56.325697 0
M  V30 32 H 37.307458 32.086246 59.302289 0
M  V30 END ATOM
M  V30 BEGIN BOND
M  V30 1 1 2 1
M  V30 2 1 4 3
M  V30 3 1 6 4
M  V30 4 1 7 2
M  V30 5 1 7 6
M  V30 6 1 9 3
M  V30 7 1 9 8
M  V30 8 1 10 5
M  V30 9 1 10 8
M  V30 10 1 11 1
M  V30 11 1 12 1
M  V30 12 1 13 1
M  V30 13 1 14 2
M  V30 14 1 15 2
M  V30 15 1 16 3
M  V30 16 1 17 3
M  V30 17 1 18 4
M  V30 18 1 19 4
M  V30 19 1 20 5
M  V30 20 1 21 5
M  V30 21 1 22 6
M  V30 22 1 23 6
M  V30 23 1 24 7
M  V30 24 1 25 7
M  V30 25 1 26 8
M  V30 26 1 27 8
M  V30 27 1 28 9
M  V30 28 1 29 10
M  V30 29 1 30 10
M  V30 30 1 31 9
M  V30 31 1 32 5
M  V30 END BOND
M  V30 END CTAB
M  END
>  <i_epik_Tot_Q>  (1) 
2

>  <i_epik_Tot_abs_Q>  (1) 
2

>  <i_i_glide_confnum>  (1) 
217

>  <i_i_glide_lignum>  (1) 
6

>  <i_i_glide_posenum>  (1) 
277

>  <i_i_glide_rotatable_bonds>  (1) 
7

>  <i_lp_mmshare_version>  (1) 
72125

>  <i_m_source_file_index>  (1) 
2

>  <i_f3d_flags>  (1) 
0

>  <num_sample>  (1) 
50

>  <b_lp_Chiralities_Consistent>  (1) 
1

>  <r_epik_Charging_Adjusted_Penalty>  (1) 
1.9336856173291923

>  <r_epik_Ionization_Penalty>  (1) 
1.0728538162779453

>  <r_epik_Ionization_Penalty_Charging>  (1) 
1.0728538162779453

>  <r_epik_Ionization_Penalty_Neutral>  (1) 
0

>  <r_epik_State_Penalty>  (1) 
0.86083180105124713

>  <r_glide_ring_energy>  (1) 
0

>  <r_i_docking_score>  (1) 
-2.4930346108171784

>  <r_i_glide_ecoul>  (1) 
-9.153634410279853

>  <r_i_glide_eff_state_penalty>  (1) 
0.86083180105124713

>  <r_i_glide_einternal>  (1) 
2.4899282281059767

>  <r_i_glide_emodel>  (1) 
-31.983881402546757

>  <r_i_glide_emodel_strain>  (1) 
0.018206673598007206

>  <r_i_glide_energy>  (1) 
-22.700244858492827

>  <r_i_glide_erotb>  (1) 
3.4004135712287584

>  <r_i_glide_esite>  (1) 
-0.20000000000000001

>  <r_i_glide_evdw>  (1) 
-13.546610448212974

>  <r_i_glide_gscore>  (1) 
-3.3538664118684256

>  <r_i_glide_gscore_strain>  (1) 
0

>  <r_i_glide_hbond>  (1) 
-0.40000000000000002

>  <r_i_glide_ligand_efficiency>  (1) 
-0.24930346108171783

>  <r_i_glide_ligand_efficiency_ln>  (1) 
-0.75487369458119002

>  <r_i_glide_ligand_efficiency_sa>  (1) 
-0.53710802489946663

>  <r_i_glide_lipo>  (1) 
-1.2354053159326772

>  <r_i_glide_metal>  (1) 
-0

>  <r_i_glide_rewards>  (1) 
-2.8684989832118801

>  <r_lp_Energy>  (1) 
19.796144999999999

>  <s_epik_cmdline>  (1) 
J2VwaWtfcHl0aG9uJywgJy1waHQnLCAnMS4wJywgJy1waCcsICc3LjQnLCAnLXRuJywgJzgnLCAnLW1hJywgJzUwMCcsICctaW1hZScsICc8aW5maWxlLm1hZT4nLCAnLW9tYWUnLCAnPG91dGZpbGUubWFlPic=

>  <s_epik_input>  (1) 
W0NIM11bQ0gyXVtDSDJdW0NIMl1bQ0gyXVtDSDJdW05IXVtDSDJdW0NIMl1bTkgyXQ==

>  <s_glide_docking_method>  (1) 
confgen

>  <s_i_glide_gridfile>  (1) 
gpcr_5ht2c_6bqh_protein_autoprepared_prepared

>  <s_lp_Force_Field>  (1) 
S-OPLS

>  <s_lp_Variant>  (1) 
DiffSBDD_1_num_sample_50-2

>  <s_m_source_file>  (1) 
generated__ligand_DiffSBDD_2026-05-06_prepared.sdf

>  <GenAI_Model>  (1) 
DiffSBDD

>  <Protein>  (1) 
GPCR_5HT2C

$$$$
DiffSBDD_1_num_sample_50
     RDKit          3D

  0  0  0  0  0  0  0  0  0  0999 V3000
M  V30 BEGIN CTAB
M  V30 COUNTS 32 31 0 0 1
M  V30 BEGIN ATOM
M  V30 1 C 39.795417 28.016099 50.653191 0
M  V30 2 C 39.130468 27.644328 51.973885 0
M  V30 3 C 38.313334 30.839059 55.160721 0
M  V30 4 C 37.395234 29.647167 54.858200 0
M  V30 5 N 36.693763 33.627291 58.253640 0 CHG=1
M  V30 6 C 38.040237 28.493511 54.084663 0
M  V30 7 C 38.514896 28.854781 52.676548 0
M  V30 8 C 38.506045 32.764767 56.752600 0
M  V30 9 N 37.867777 31.477839 56.411576 0 CHG=1
M  V30 10 C 38.102000 33.197183 58.176406 0
M  V30 11 H 40.267477 27.128857 50.242023 0
M  V30 12 H 40.569537 28.771261 50.793805 0
M  V30 13 H 39.073363 28.396035 49.928656 0
M  V30 14 H 38.362964 26.889369 51.794048 0
M  V30 15 H 39.872933 27.178998 52.622523 0
M  V30 16 H 39.347005 30.514302 55.286778 0
M  V30 17 H 38.291540 31.551281 54.333707 0
M  V30 18 H 36.504243 30.006382 54.341516 0
M  V30 19 H 37.066974 29.218636 55.804193 0
M  V30 20 H 36.407321 33.715674 59.217377 0
M  V30 21 H 36.582336 34.525519 57.794957 0
M  V30 22 H 37.317030 27.678856 54.011897 0
M  V30 23 H 38.878030 28.100382 54.662156 0
M  V30 24 H 39.247711 29.660665 52.728229 0
M  V30 25 H 37.679784 29.220257 52.080749 0
M  V30 26 H 39.589244 32.641629 56.698335 0
M  V30 27 H 38.237010 33.525818 56.015835 0
M  V30 28 H 36.852887 31.621014 56.374521 0
M  V30 29 H 38.261169 32.377691 58.879348 0
M  V30 30 H 38.724703 34.021403 58.523624 0
M  V30 31 H 38.043665 30.821351 57.158015 0
M  V30 32 H 36.084535 32.943066 57.787740 0
M  V30 END ATOM
M  V30 BEGIN BOND
M  V30 1 1 2 1
M  V30 2 1 4 3
M  V30 3 1 6 4
M  V30 4 1 7 2
M  V30 5 1 7 6
M  V30 6 1 9 3
M  V30 7 1 9 8
M  V30 8 1 10 5
M  V30 9 1 10 8
M  V30 10 1 11 1
M  V30 11 1 12 1
M  V30 12 1 13 1
M  V30 13 1 14 2
M  V30 14 1 15 2
M  V30 15 1 16 3
M  V30 16 1 17 3
M  V30 17 1 18 4
M  V30 18 1 19 4
M  V30 19 1 20 5
M  V30 20 1 21 5
M  V30 21 1 22 6
M  V30 22 1 23 6
M  V30 23 1 24 7
M  V30 24 1 25 7
M  V30 25 1 26 8
M  V30 26 1 27 8
M  V30 27 1 28 9
M  V30 28 1 29 10
M  V30 29 1 30 10
M  V30 30 1 31 9
M  V30 31 1 32 5
M  V30 END BOND
M  V30 END CTAB
M  END
>  <i_epik_Tot_Q>  (1) 
2

>  <i_epik_Tot_abs_Q>  (1) 
2

>  <i_i_glide_confnum>  (1) 
184

>  <i_i_glide_lignum>  (1) 
6

>  <i_i_glide_posenum>  (1) 
352

>  <i_i_glide_rotatable_bonds>  (1) 
7

>  <i_lp_mmshare_version>  (1) 
72125

>  <i_m_source_file_index>  (1) 
2

>  <i_f3d_flags>  (1) 
0

>  <num_sample>  (1) 
50

>  <b_lp_Chiralities_Consistent>  (1) 
1

>  <r_epik_Charging_Adjusted_Penalty>  (1) 
1.9336856173291923

>  <r_epik_Ionization_Penalty>  (1) 
1.0728538162779453

>  <r_epik_Ionization_Penalty_Charging>  (1) 
1.0728538162779453

>  <r_epik_Ionization_Penalty_Neutral>  (1) 
0

>  <r_epik_State_Penalty>  (1) 
0.86083180105124713

>  <r_glide_ring_energy>  (1) 
0

>  <r_i_docking_score>  (1) 
-2.4612895861516515

>  <r_i_glide_ecoul>  (1) 
-10.096214390008335

>  <r_i_glide_eff_state_penalty>  (1) 
0.86083180105124713

>  <r_i_glide_einternal>  (1) 
3.1370497519924556

>  <r_i_glide_emodel>  (1) 
-31.838125371057881

>  <r_i_glide_emodel_strain>  (1) 
0.96001727355303812

>  <r_i_glide_energy>  (1) 
-23.919687855771336

>  <r_i_glide_erotb>  (1) 
3.4004135712287584

>  <r_i_glide_esite>  (1) 
-0.18128907377801762

>  <r_i_glide_evdw>  (1) 
-13.823473465763003

>  <r_i_glide_gscore>  (1) 
-3.3221213872028987

>  <r_i_glide_gscore_strain>  (1) 
0

>  <r_i_glide_hbond>  (1) 
-0.40000000000000002

>  <r_i_glide_ligand_efficiency>  (1) 
-0.24612895861516515

>  <r_i_glide_ligand_efficiency_ln>  (1) 
-0.74526151994476064

>  <r_i_glide_ligand_efficiency_sa>  (1) 
-0.53026876666193368

>  <r_i_glide_lipo>  (1) 
-1.2885567933758435

>  <r_i_glide_metal>  (1) 
-0

>  <r_i_glide_rewards>  (1) 
-2.6470832594883955

>  <r_lp_Energy>  (1) 
19.796144999999999

>  <s_epik_cmdline>  (1) 
J2VwaWtfcHl0aG9uJywgJy1waHQnLCAnMS4wJywgJy1waCcsICc3LjQnLCAnLXRuJywgJzgnLCAnLW1hJywgJzUwMCcsICctaW1hZScsICc8aW5maWxlLm1hZT4nLCAnLW9tYWUnLCAnPG91dGZpbGUubWFlPic=

>  <s_epik_input>  (1) 
W0NIM11bQ0gyXVtDSDJdW0NIMl1bQ0gyXVtDSDJdW05IXVtDSDJdW0NIMl1bTkgyXQ==

>  <s_glide_docking_method>  (1) 
confgen

>  <s_i_glide_gridfile>  (1) 
gpcr_5ht2c_6bqh_protein_autoprepared_prepared

>  <s_lp_Force_Field>  (1) 
S-OPLS

>  <s_lp_Variant>  (1) 
DiffSBDD_1_num_sample_50-2

>  <s_m_source_file>  (1) 
generated__ligand_DiffSBDD_2026-05-06_prepared.sdf

>  <GenAI_Model>  (1) 
DiffSBDD

>  <Protein>  (1) 
GPCR_5HT2C

$$$$
DiffSBDD_1_num_sample_50
     RDKit          3D

  0  0  0  0  0  0  0  0  0  0999 V3000
M  V30 BEGIN CTAB
M  V30 COUNTS 31 30 0 0 1
M  V30 BEGIN ATOM
M  V30 1 C 40.883546 30.495393 50.498557 0
M  V30 2 C 40.056451 29.764836 51.563800 0
M  V30 3 C 38.665978 31.448126 55.878719 0
M  V30 4 C 37.923114 31.069633 54.589336 0
M  V30 5 N 36.450217 32.802857 59.453502 0
M  V30 6 C 38.649673 30.041315 53.697049 0
M  V30 7 C 39.761164 30.632861 52.804019 0
M  V30 8 C 38.441401 32.705125 58.013958 0
M  V30 9 N 37.867404 32.393358 56.689793 0 CHG=1
M  V30 10 C 37.504332 33.596337 58.846433 0
M  V30 11 H 41.066802 29.852409 49.638253 0
M  V30 12 H 40.355768 31.376890 50.133936 0
M  V30 13 H 41.848967 30.821415 50.883557 0
M  V30 14 H 40.564180 28.845223 51.853502 0
M  V30 15 H 39.118382 29.457859 51.099074 0
M  V30 16 H 39.631787 31.897914 55.643472 0
M  V30 17 H 38.862150 30.549048 56.464503 0
M  V30 18 H 36.952579 30.653578 54.866297 0
M  V30 19 H 37.703648 31.967840 54.011358 0
M  V30 20 H 35.838165 33.400684 59.991729 0
M  V30 21 H 35.867334 32.394760 58.725363 0
M  V30 22 H 39.042264 29.218080 54.295028 0
M  V30 23 H 37.892343 29.593267 53.053502 0
M  V30 24 H 39.467339 31.621437 52.457399 0
M  V30 25 H 40.667267 30.789808 53.389192 0
M  V30 26 H 39.389306 33.221434 57.857373 0
M  V30 27 H 38.667667 31.784880 58.555221 0
M  V30 28 H 36.917291 32.021427 56.820242 0
M  V30 29 H 37.076159 34.399634 58.245015 0
M  V30 30 H 38.069197 34.068312 59.651206 0
M  V30 31 H 37.747933 33.251292 56.171432 0
M  V30 END ATOM
M  V30 BEGIN BOND
M  V30 1 1 2 1
M  V30 2 1 4 3
M  V30 3 1 6 4
M  V30 4 1 7 2
M  V30 5 1 7 6
M  V30 6 1 9 3
M  V30 7 1 9 8
M  V30 8 1 10 5
M  V30 9 1 10 8
M  V30 10 1 11 1
M  V30 11 1 12 1
M  V30 12 1 13 1
M  V30 13 1 14 2
M  V30 14 1 15 2
M  V30 15 1 16 3
M  V30 16 1 17 3
M  V30 17 1 18 4
M  V30 18 1 19 4
M  V30 19 1 20 5
M  V30 20 1 21 5
M  V30 21 1 22 6
M  V30 22 1 23 6
M  V30 23 1 24 7
M  V30 24 1 25 7
M  V30 25 1 26 8
M  V30 26 1 27 8
M  V30 27 1 28 9
M  V30 28 1 29 10
M  V30 29 1 30 10
M  V30 30 1 31 9
M  V30 END BOND
M  V30 END CTAB
M  END
>  <i_epik_Tot_Q>  (1) 
1

>  <i_epik_Tot_abs_Q>  (1) 
1

>  <i_i_glide_confnum>  (1) 
49

>  <i_i_glide_lignum>  (1) 
5

>  <i_i_glide_posenum>  (1) 
307

>  <i_i_glide_rotatable_bonds>  (1) 
7

>  <i_lp_mmshare_version>  (1) 
72125

>  <i_m_source_file_index>  (1) 
2

>  <i_f3d_flags>  (1) 
0

>  <num_sample>  (1) 
50

>  <b_lp_Chiralities_Consistent>  (1) 
1

>  <r_epik_Charging_Adjusted_Penalty>  (1) 
0.30664254943221692

>  <r_epik_Ionization_Penalty>  (1) 
0.19742572041850767

>  <r_epik_Ionization_Penalty_Charging>  (1) 
0.0017778986639453492

>  <r_epik_Ionization_Penalty_Neutral>  (1) 
0.19564782175456233

>  <r_epik_State_Penalty>  (1) 
0.30486465076827157

>  <r_glide_ring_energy>  (1) 
0

>  <r_i_docking_score>  (1) 
-2.4338087851220243

>  <r_i_glide_ecoul>  (1) 
-7.1656845296248637

>  <r_i_glide_eff_state_penalty>  (1) 
0.30486465076827157

>  <r_i_glide_einternal>  (1) 
6.051510826721179

>  <r_i_glide_emodel>  (1) 
-26.718859852508849

>  <r_i_glide_emodel_strain>  (1) 
0.080369807175039817

>  <r_i_glide_energy>  (1) 
-23.738981264260403

>  <r_i_glide_erotb>  (1) 
3.4380790968712875

>  <r_i_glide_esite>  (1) 
-0.10000000000000001

>  <r_i_glide_evdw>  (1) 
-16.573296734635541

>  <r_i_glide_gscore>  (1) 
-2.7386734358902958

>  <r_i_glide_gscore_strain>  (1) 
0

>  <r_i_glide_hbond>  (1) 
-0.35999999999999999

>  <r_i_glide_ligand_efficiency>  (1) 
-0.24338087851220241

>  <r_i_glide_ligand_efficiency_ln>  (1) 
-0.73694052283012956

>  <r_i_glide_ligand_efficiency_sa>  (1) 
-0.52434820755712441

>  <r_i_glide_lipo>  (1) 
-1.1666588362325305

>  <r_i_glide_metal>  (1) 
-0

>  <r_i_glide_rewards>  (1) 
-2.6465761803535455

>  <r_lp_Energy>  (1) 
8.729457

>  <s_epik_cmdline>  (1) 
J2VwaWtfcHl0aG9uJywgJy1waHQnLCAnMS4wJywgJy1waCcsICc3LjQnLCAnLXRuJywgJzgnLCAnLW1hJywgJzUwMCcsICctaW1hZScsICc8aW5maWxlLm1hZT4nLCAnLW9tYWUnLCAnPG91dGZpbGUubWFlPic=

>  <s_epik_input>  (1) 
W0NIM11bQ0gyXVtDSDJdW0NIMl1bQ0gyXVtDSDJdW05IXVtDSDJdW0NIMl1bTkgyXQ==

>  <s_glide_docking_method>  (1) 
confgen

>  <s_i_glide_gridfile>  (1) 
gpcr_5ht2c_6bqh_protein_autoprepared_prepared

>  <s_lp_Force_Field>  (1) 
S-OPLS

>  <s_lp_Variant>  (1) 
DiffSBDD_1_num_sample_50-1

>  <s_m_source_file>  (1) 
generated__ligand_DiffSBDD_2026-05-06_prepared.sdf

>  <GenAI_Model>  (1) 
DiffSBDD

>  <Protein>  (1) 
GPCR_5HT2C

$$$$
DiffSBDD_16_num_sample_50
     RDKit          3D

  0  0  0  0  0  0  0  0  0  0999 V3000
M  V30 BEGIN CTAB
M  V30 COUNTS 43 43 0 0 1
M  V30 BEGIN ATOM
M  V30 1 C 38.827800 29.733407 55.339558 0
M  V30 2 C 38.479682 30.854703 57.630231 0
M  V30 3 C 36.041067 31.437147 59.711991 0
M  V30 4 C 40.211821 30.729711 51.829364 0
M  V30 5 C 39.975402 30.738904 53.342060 0
M  V30 6 C 38.547767 31.037631 56.105487 0
M  V30 7 C 38.777198 29.877649 53.796299 0 CFG=1
M  V30 8 O 35.712713 31.621428 61.072803 0
M  V30 9 N 38.977626 28.584781 51.617838 0 CFG=1 CHG=1
M  V30 10 C 37.340482 29.925410 58.094930 0
M  V30 11 C 36.888594 30.166607 59.542666 0
M  V30 12 C 38.703609 28.488273 53.087316 0 CFG=2
M  V30 13 C 40.232466 29.301726 51.290112 0
M  V30 14 C 37.321551 27.826145 53.324063 0
M  V30 15 C 38.928459 27.280346 50.917890 0
M  V30 16 H 39.795413 29.332404 55.644321 0
M  V30 17 H 38.102321 29.001087 55.676719 0
M  V30 18 H 38.353400 31.844015 58.068486 0
M  V30 19 H 39.432006 30.478652 58.006341 0
M  V30 20 H 35.121411 31.358785 59.130861 0
M  V30 21 H 36.571109 32.320705 59.357730 0
M  V30 22 H 39.467405 31.326293 51.311055 0
M  V30 23 H 41.152355 31.221426 51.594287 0
M  V30 24 H 39.811163 31.762156 53.666525 0
M  V30 25 H 40.881341 30.421428 53.853344 0
M  V30 26 H 37.609616 31.475322 55.759377 0
M  V30 27 H 39.323507 31.771370 55.887149 0
M  V30 28 H 37.867961 30.420168 53.535594 0
M  V30 29 H 35.205326 32.417307 61.141992 0
M  V30 30 H 37.668305 28.890528 57.996275 0
M  V30 31 H 36.477772 30.021426 57.436944 0
M  V30 32 H 37.755555 30.194539 60.203469 0
M  V30 33 H 36.288369 29.313058 59.853479 0
M  V30 34 H 39.467400 27.843440 53.523405 0
M  V30 35 H 40.363686 29.339908 50.207553 0
M  V30 36 H 41.082580 28.751661 51.689670 0
M  V30 37 H 37.003841 27.838838 54.362023 0
M  V30 38 H 36.542239 28.323207 52.744907 0
M  V30 39 H 37.321891 26.770938 53.053491 0
M  V30 40 H 39.669267 26.582873 51.307751 0
M  V30 41 H 37.948603 26.821432 51.000797 0
M  V30 42 H 39.102363 27.414874 49.853501 0
M  V30 43 H 38.233082 29.139856 51.222608 0
M  V30 END ATOM
M  V30 BEGIN BOND
M  V30 1 1 5 4
M  V30 2 1 6 1
M  V30 3 1 6 2
M  V30 4 1 7 1
M  V30 5 1 7 5
M  V30 6 1 8 3
M  V30 7 1 10 2
M  V30 8 1 11 3
M  V30 9 1 11 10
M  V30 10 1 12 7
M  V30 11 1 12 9
M  V30 12 1 13 4
M  V30 13 1 13 9
M  V30 14 1 14 12
M  V30 15 1 15 9
M  V30 16 1 16 1
M  V30 17 1 17 1
M  V30 18 1 18 2
M  V30 19 1 19 2
M  V30 20 1 20 3
M  V30 21 1 21 3
M  V30 22 1 22 4
M  V30 23 1 23 4
M  V30 24 1 24 5
M  V30 25 1 25 5
M  V30 26 1 26 6
M  V30 27 1 27 6
M  V30 28 1 7 28 CFG=1
M  V30 29 1 29 8
M  V30 30 1 30 10
M  V30 31 1 31 10
M  V30 32 1 32 11
M  V30 33 1 33 11
M  V30 34 1 12 34 CFG=1
M  V30 35 1 35 13
M  V30 36 1 36 13
M  V30 37 1 37 14
M  V30 38 1 38 14
M  V30 39 1 39 14
M  V30 40 1 40 15
M  V30 41 1 41 15
M  V30 42 1 42 15
M  V30 43 1 9 43 CFG=3
M  V30 END BOND
M  V30 END CTAB
M  END
>  <i_epik_Tot_Q>  (1) 
1

>  <i_epik_Tot_abs_Q>  (1) 
1

>  <i_i_glide_confnum>  (1) 
40

>  <i_i_glide_lignum>  (1) 
46

>  <i_i_glide_posenum>  (1) 
179

>  <i_i_glide_rotatable_bonds>  (1) 
7

>  <i_lp_mmshare_version>  (1) 
72125

>  <i_m_source_file_index>  (1) 
17

>  <i_f3d_flags>  (1) 
0

>  <num_sample>  (1) 
50

>  <b_lp_Chiralities_Consistent>  (1) 
1

>  <r_epik_Charging_Adjusted_Penalty>  (1) 
0.0018248254832493158

>  <r_epik_Ionization_Penalty>  (1) 
0.0018251261234076507

>  <r_epik_Ionization_Penalty_Charging>  (1) 
0.0018248254832493158

>  <r_epik_Ionization_Penalty_Neutral>  (1) 
3.0064015833489429e-07

>  <r_epik_State_Penalty>  (1) 
-0

>  <r_glide_ring_energy>  (1) 
0

>  <r_i_docking_score>  (1) 
-2.3486861781515453

>  <r_i_glide_ecoul>  (1) 
-3.6940429919825144

>  <r_i_glide_eff_state_penalty>  (1) 
-0

>  <r_i_glide_einternal>  (1) 
4.8566675832748096

>  <r_i_glide_emodel>  (1) 
-28.552121724145348

>  <r_i_glide_emodel_strain>  (1) 
0.10110819449363007

>  <r_i_glide_energy>  (1) 
-26.633541707808899

>  <r_i_glide_erotb>  (1) 
4.3624240847918374

>  <r_i_glide_esite>  (1) 
0

>  <r_i_glide_evdw>  (1) 
-22.939498715826385

>  <r_i_glide_gscore>  (1) 
-2.3486861781515453

>  <r_i_glide_gscore_strain>  (1) 
0

>  <r_i_glide_hbond>  (1) 
-0.22487602934173276

>  <r_i_glide_ligand_efficiency>  (1) 
-0.15657907854343636

>  <r_i_glide_ligand_efficiency_ln>  (1) 
-0.63340193653618915

>  <r_i_glide_ligand_efficiency_sa>  (1) 
-0.38615721409136183

>  <r_i_glide_lipo>  (1) 
-2.1967527754200638

>  <r_i_glide_metal>  (1) 
-0

>  <r_i_glide_rewards>  (1) 
-2.5884000735928896

>  <r_lp_Energy>  (1) 
22.823791999999997

>  <r_lp_tautomer_probability>  (1) 
1

>  <s_epik_cmdline>  (1) 
J2VwaWtfcHl0aG9uJywgJy1waHQnLCAnMS4wJywgJy1waCcsICc3LjQnLCAnLXRuJywgJzgnLCAnLW1hJywgJzUwMCcsICctaW1hZScsICc8aW5maWxlLm1hZT4nLCAnLW9tYWUnLCAnPG91dGZpbGUubWFlPic=

>  <s_epik_input>  (1) 
W09IXVtDSDJdW0NIMl1bQ0gyXVtDSDJdW0NIMl1bQ0gyXVtDQEhdMVtDSDJdW0NIMl1bQ0gyXU4oW0NIM10pW0NAQEhdMVtDSDNd

>  <s_glide_docking_method>  (1) 
confgen

>  <s_i_glide_gridfile>  (1) 
gpcr_5ht2c_6bqh_protein_autoprepared_prepared

>  <s_lp_Force_Field>  (1) 
S-OPLS

>  <s_lp_Variant>  (1) 
DiffSBDD_16_num_sample_50-1

>  <s_m_source_file>  (1) 
generated__ligand_DiffSBDD_2026-05-06_prepared.sdf

>  <GenAI_Model>  (1) 
DiffSBDD

>  <Protein>  (1) 
GPCR_5HT2C

$$$$
DiffSBDD_1_num_sample_50
     RDKit          3D

  0  0  0  0  0  0  0  0  0  0999 V3000
M  V30 BEGIN CTAB
M  V30 COUNTS 31 30 0 0 1
M  V30 BEGIN ATOM
M  V30 1 C 40.062104 30.299710 50.573927 0
M  V30 2 C 40.012932 29.081617 51.506459 0
M  V30 3 C 38.693484 31.815702 55.657436 0
M  V30 4 C 38.382855 30.562465 54.818949 0
M  V30 5 N 36.489174 32.579763 59.453715 0
M  V30 6 C 39.319267 30.451296 53.599611 0
M  V30 7 C 39.051630 29.220712 52.707445 0
M  V30 8 C 38.257245 33.025043 57.777936 0
M  V30 9 N 37.867433 31.913622 56.881876 0 CHG=1
M  V30 10 C 37.071363 33.585154 58.583732 0
M  V30 11 H 40.670970 30.086935 49.695042 0
M  V30 12 H 39.069639 30.579015 50.227084 0
M  V30 13 H 40.501482 31.166589 51.067830 0
M  V30 14 H 41.025307 28.873706 51.849654 0
M  V30 15 H 39.714913 28.207883 50.925039 0
M  V30 16 H 38.535650 32.710955 55.053564 0
M  V30 17 H 39.746460 31.808373 55.944810 0
M  V30 18 H 38.484730 29.668733 55.435907 0
M  V30 19 H 37.344144 30.594541 54.485208 0
M  V30 20 H 35.866821 33.036027 60.106659 0
M  V30 21 H 35.876666 32.021433 58.861253 0
M  V30 22 H 39.222844 31.364090 53.012352 0
M  V30 23 H 40.354261 30.421562 53.941618 0
M  V30 24 H 39.133145 28.320167 53.317365 0
M  V30 25 H 38.023120 29.224558 52.345122 0
M  V30 26 H 38.660885 33.838560 57.174651 0
M  V30 27 H 39.066155 32.699257 58.434451 0
M  V30 28 H 37.939699 31.058260 57.411642 0
M  V30 29 H 36.302037 33.988668 57.924009 0
M  V30 30 H 37.419388 34.413379 59.202091 0
M  V30 31 H 36.870257 32.017308 56.652777 0
M  V30 END ATOM
M  V30 BEGIN BOND
M  V30 1 1 2 1
M  V30 2 1 4 3
M  V30 3 1 6 4
M  V30 4 1 7 2
M  V30 5 1 7 6
M  V30 6 1 9 3
M  V30 7 1 9 8
M  V30 8 1 10 5
M  V30 9 1 10 8
M  V30 10 1 11 1
M  V30 11 1 12 1
M  V30 12 1 13 1
M  V30 13 1 14 2
M  V30 14 1 15 2
M  V30 15 1 16 3
M  V30 16 1 17 3
M  V30 17 1 18 4
M  V30 18 1 19 4
M  V30 19 1 20 5
M  V30 20 1 21 5
M  V30 21 1 22 6
M  V30 22 1 23 6
M  V30 23 1 24 7
M  V30 24 1 25 7
M  V30 25 1 26 8
M  V30 26 1 27 8
M  V30 27 1 28 9
M  V30 28 1 29 10
M  V30 29 1 30 10
M  V30 30 1 31 9
M  V30 END BOND
M  V30 END CTAB
M  END
>  <i_epik_Tot_Q>  (1) 
1

>  <i_epik_Tot_abs_Q>  (1) 
1

>  <i_i_glide_confnum>  (1) 
199

>  <i_i_glide_lignum>  (1) 
5

>  <i_i_glide_posenum>  (1) 
338

>  <i_i_glide_rotatable_bonds>  (1) 
7

>  <i_lp_mmshare_version>  (1) 
72125

>  <i_m_source_file_index>  (1) 
2

>  <i_f3d_flags>  (1) 
0

>  <num_sample>  (1) 
50

>  <b_lp_Chiralities_Consistent>  (1) 
1

>  <r_epik_Charging_Adjusted_Penalty>  (1) 
0.30664254943221692

>  <r_epik_Ionization_Penalty>  (1) 
0.19742572041850767

>  <r_epik_Ionization_Penalty_Charging>  (1) 
0.0017778986639453492

>  <r_epik_Ionization_Penalty_Neutral>  (1) 
0.19564782175456233

>  <r_epik_State_Penalty>  (1) 
0.30486465076827157

>  <r_glide_ring_energy>  (1) 
0

>  <r_i_docking_score>  (1) 
-2.3440992185065537

>  <r_i_glide_ecoul>  (1) 
-7.5434805730800853

>  <r_i_glide_eff_state_penalty>  (1) 
0.30486465076827157

>  <r_i_glide_einternal>  (1) 
7.1455997491552345

>  <r_i_glide_emodel>  (1) 
-24.915261810990465

>  <r_i_glide_emodel_strain>  (1) 
0.69315108676053527

>  <r_i_glide_energy>  (1) 
-23.294565614451201

>  <r_i_glide_erotb>  (1) 
3.4380790968712875

>  <r_i_glide_esite>  (1) 
-0.10000000000000001

>  <r_i_glide_evdw>  (1) 
-15.751085041371118

>  <r_i_glide_gscore>  (1) 
-2.6489638692748252

>  <r_i_glide_gscore_strain>  (1) 
0

>  <r_i_glide_hbond>  (1) 
-0.33012341533109968

>  <r_i_glide_ligand_efficiency>  (1) 
-0.23440992185065537

>  <r_i_glide_ligand_efficiency_ln>  (1) 
-0.70977708446611087

>  <r_i_glide_ligand_efficiency_sa>  (1) 
-0.50502086732271478

>  <r_i_glide_lipo>  (1) 
-1.2436150927179932

>  <r_i_glide_metal>  (1) 
-0

>  <r_i_glide_rewards>  (1) 
-2.4942281200664507

>  <r_lp_Energy>  (1) 
8.729457

>  <s_epik_cmdline>  (1) 
J2VwaWtfcHl0aG9uJywgJy1waHQnLCAnMS4wJywgJy1waCcsICc3LjQnLCAnLXRuJywgJzgnLCAnLW1hJywgJzUwMCcsICctaW1hZScsICc8aW5maWxlLm1hZT4nLCAnLW9tYWUnLCAnPG91dGZpbGUubWFlPic=

>  <s_epik_input>  (1) 
W0NIM11bQ0gyXVtDSDJdW0NIMl1bQ0gyXVtDSDJdW05IXVtDSDJdW0NIMl1bTkgyXQ==

>  <s_glide_docking_method>  (1) 
confgen

>  <s_i_glide_gridfile>  (1) 
gpcr_5ht2c_6bqh_protein_autoprepared_prepared

>  <s_lp_Force_Field>  (1) 
S-OPLS

>  <s_lp_Variant>  (1) 
DiffSBDD_1_num_sample_50-1

>  <s_m_source_file>  (1) 
generated__ligand_DiffSBDD_2026-05-06_prepared.sdf

>  <GenAI_Model>  (1) 
DiffSBDD

>  <Protein>  (1) 
GPCR_5HT2C

$$$$
DiffSBDD_7_num_sample_50
     RDKit          3D

  0  0  0  0  0  0  0  0  0  0999 V3000
M  V30 BEGIN CTAB
M  V30 COUNTS 93 96 0 0 1
M  V30 BEGIN ATOM
M  V30 1 C 38.926161 27.561407 52.782472 0 CFG=1
M  V30 2 O 36.453478 31.620751 61.640757 0
M  V30 3 C 37.970724 28.318743 56.232431 0 CFG=1
M  V30 4 C 39.581268 33.626523 59.317847 0
M  V30 5 O 39.867341 27.221406 50.625191 0 CHG=-1
M  V30 6 N 37.868112 36.821262 62.992766 0
M  V30 7 S 41.060157 32.516644 62.938512 0
M  V30 8 N 43.032595 29.889325 64.376838 0
M  V30 9 N 38.205844 33.276872 58.878077 0 CFG=2 CHG=1
M  V30 10 S 42.397934 32.042634 65.696709 0
M  V30 11 C 38.752027 36.829647 64.007604 0
M  V30 12 C 37.137749 25.750270 56.332786 0
M  V30 13 C 35.067388 31.694516 61.406919 0
M  V30 14 C 37.188069 32.686651 61.085360 0 CFG=1
M  V30 15 C 41.211673 31.438532 64.447747 0 CFG=2
M  V30 16 N 39.467389 36.821166 64.916114 0
M  V30 17 O 39.917464 34.762909 61.484362 0
M  V30 18 C 37.656815 29.712264 56.710328 0
M  V30 19 O 41.832610 28.529529 66.800351 0
M  V30 20 C 40.106963 26.670594 56.590696 0
M  V30 21 C 38.273133 33.038252 62.144830 0 CFG=2
M  V30 22 C 41.298049 27.881445 65.667317 0 CFG=1
M  V30 23 O 39.062462 29.224463 51.057471 0
M  V30 24 C 41.633228 29.994505 64.013956 0 CFG=2
M  V30 25 O 44.748542 30.826114 65.623548 0
M  V30 26 C 38.764023 34.536461 62.252981 0 CFG=2
M  V30 27 C 38.558733 28.602597 53.841978 0
M  V30 28 C 39.321503 28.046237 51.365487 0
M  V30 29 C 38.531211 30.985365 54.779740 0
M  V30 30 C 38.771532 30.616792 56.211839 0 CFG=1
M  V30 31 C 39.140259 31.792732 57.097197 0
M  V30 32 C 37.630967 32.198716 59.708228 0
M  V30 33 C 38.951740 29.908395 53.811373 0
M  V30 34 C 40.728773 28.892018 64.642416 0
M  V30 35 C 39.831060 26.426027 53.305306 0
M  V30 36 C 38.944629 27.504435 57.083328 0 CFG=2
M  V30 37 C 39.725163 34.923019 60.111394 0
M  V30 38 C 37.771612 35.737074 62.052804 0
M  V30 39 C 38.140168 32.917026 57.433367 0
M  V30 40 O 42.016407 32.021119 61.853574 0
M  V30 41 C 39.392663 31.981918 62.366665 0
M  V30 42 C 42.304314 26.864595 65.106819 0
M  V30 43 C 37.497789 27.076498 56.988735 0 CFG=1
M  V30 44 C 43.590663 30.809124 65.219298 0
M  V30 45 O 39.159760 30.791047 62.168607 0
M  V30 46 O 36.949126 35.780405 61.143856 0
M  V30 47 O 37.733167 28.089774 54.830485 0
M  V30 48 H 37.971852 27.072559 52.579115 0
M  V30 49 H 40.167457 33.777296 58.420747 0
M  V30 50 H 40.076928 32.821177 59.853382 0
M  V30 51 H 37.252357 37.615832 62.906956 0
M  V30 52 H 43.613226 29.138541 64.028779 0
M  V30 53 H 37.556031 25.670999 55.332409 0
M  V30 54 H 37.521770 24.922163 56.930267 0
M  V30 55 H 36.057261 25.636957 56.253550 0
M  V30 56 H 34.597932 30.821418 61.853537 0
M  V30 57 H 34.667454 32.594467 61.871149 0
M  V30 58 H 34.817703 31.700728 60.345937 0
M  V30 59 H 36.502554 33.514422 60.945466 0
M  V30 60 H 40.230035 31.451038 64.918025 0
M  V30 61 H 37.622446 29.716434 57.800545 0
M  V30 62 H 36.669405 30.021200 56.367481 0
M  V30 63 H 42.637399 28.955991 66.550260 0
M  V30 64 H 39.788336 25.868783 55.936605 0
M  V30 65 H 40.844892 27.299724 56.095523 0
M  V30 66 H 40.597253 26.198865 57.442516 0
M  V30 67 H 37.733771 32.821444 63.053480 0
M  V30 68 H 40.448445 27.305912 66.033777 0
M  V30 69 H 41.579541 29.872364 62.933465 0
M  V30 70 H 39.170159 34.608844 63.253194 0
M  V30 71 H 37.497269 31.281586 54.596095 0
M  V30 72 H 39.136239 31.855086 54.523214 0
M  V30 73 H 39.697053 30.034492 56.224961 0
M  V30 74 H 40.017538 32.262900 56.653510 0
M  V30 75 H 39.467331 31.302968 58.005482 0
M  V30 76 H 36.754813 31.808643 59.190212 0
M  V30 77 H 38.300893 31.345121 59.798635 0
M  V30 78 H 39.591132 30.243727 53.013565 0
M  V30 79 H 40.295880 28.319859 63.821244 0
M  V30 80 H 39.868980 29.366320 65.118691 0
M  V30 81 H 40.646924 26.783554 53.923209 0
M  V30 82 H 39.243335 25.737562 53.901896 0
M  V30 83 H 40.267437 25.821428 52.516591 0
M  V30 84 H 39.217287 28.001389 58.012278 0
M  V30 85 H 38.992647 35.680793 59.853512 0
M  V30 86 H 40.667466 35.360960 59.853608 0
M  V30 87 H 37.120533 32.676980 57.170684 0
M  V30 88 H 38.372691 33.795738 56.831047 0
M  V30 89 H 41.894945 26.353946 64.235748 0
M  V30 90 H 43.251247 27.318302 64.815532 0
M  V30 91 H 42.524998 26.104677 65.856230 0
M  V30 92 H 36.880822 27.284769 57.853590 0
M  V30 93 H 37.613578 34.091192 58.978404 0
M  V30 END ATOM
M  V30 BEGIN BOND
M  V30 1 1 9 4
M  V30 2 1 11 6
M  V30 3 1 13 2
M  V30 4 1 14 2
M  V30 5 1 15 7
M  V30 6 1 15 10
M  V30 7 3 16 11
M  V30 8 1 18 3
M  V30 9 1 21 14
M  V30 10 1 22 19
M  V30 11 1 24 8
M  V30 12 1 24 15
M  V30 13 1 26 17
M  V30 14 1 26 21
M  V30 15 1 27 1
M  V30 16 1 28 1
M  V30 17 1 28 5
M  V30 18 2 28 23
M  V30 19 1 30 18
M  V30 20 1 30 29
M  V30 21 1 31 30
M  V30 22 1 32 9
M  V30 23 1 32 14
M  V30 24 2 33 27
M  V30 25 1 33 29
M  V30 26 1 34 22
M  V30 27 1 34 24
M  V30 28 1 35 1
M  V30 29 1 36 3
M  V30 30 1 36 20
M  V30 31 1 37 4
M  V30 32 1 37 17
M  V30 33 1 38 6
M  V30 34 1 38 26
M  V30 35 1 39 9
M  V30 36 1 39 31
M  V30 37 2 40 7
M  V30 38 1 7 41 CFG=3
M  V30 39 1 41 21
M  V30 40 1 42 22
M  V30 41 1 43 3
M  V30 42 1 43 12
M  V30 43 1 43 36
M  V30 44 1 44 8
M  V30 45 1 44 10
M  V30 46 2 44 25
M  V30 47 2 45 41
M  V30 48 2 46 38
M  V30 49 1 3 47 CFG=3
M  V30 50 1 47 27
M  V30 51 1 1 48 CFG=3
M  V30 52 1 49 4
M  V30 53 1 50 4
M  V30 54 1 51 6
M  V30 55 1 52 8
M  V30 56 1 53 12
M  V30 57 1 54 12
M  V30 58 1 55 12
M  V30 59 1 56 13
M  V30 60 1 57 13
M  V30 61 1 58 13
M  V30 62 1 14 59 CFG=3
M  V30 63 1 15 60 CFG=1
M  V30 64 1 61 18
M  V30 65 1 62 18
M  V30 66 1 63 19
M  V30 67 1 64 20
M  V30 68 1 65 20
M  V30 69 1 66 20
M  V30 70 1 21 67 CFG=1
M  V30 71 1 22 68 CFG=1
M  V30 72 1 24 69 CFG=3
M  V30 73 1 26 70 CFG=1
M  V30 74 1 71 29
M  V30 75 1 72 29
M  V30 76 1 30 73 CFG=3
M  V30 77 1 74 31
M  V30 78 1 75 31
M  V30 79 1 76 32
M  V30 80 1 77 32
M  V30 81 1 78 33
M  V30 82 1 79 34
M  V30 83 1 80 34
M  V30 84 1 81 35
M  V30 85 1 82 35
M  V30 86 1 83 35
M  V30 87 1 36 84 CFG=1
M  V30 88 1 85 37
M  V30 89 1 86 37
M  V30 90 1 87 39
M  V30 91 1 88 39
M  V30 92 1 89 42
M  V30 93 1 90 42
M  V30 94 1 91 42
M  V30 95 1 43 92 CFG=1
M  V30 96 1 9 93 CFG=3
M  V30 END BOND
M  V30 END CTAB
M  END
>  <i_epik_Tot_Q>  (1) 
0

>  <i_epik_Tot_abs_Q>  (1) 
2

>  <i_i_glide_confnum>  (1) 
1839

>  <i_i_glide_lignum>  (1) 
26

>  <i_i_glide_posenum>  (1) 
62

>  <i_i_glide_rotatable_bonds>  (1) 
14

>  <i_lp_mmshare_version>  (1) 
72125

>  <i_m_source_file_index>  (1) 
8

>  <i_f3d_flags>  (1) 
0

>  <num_sample>  (1) 
50

>  <b_lp_Chiralities_Consistent>  (1) 
1

>  <r_epik_Charging_Adjusted_Penalty>  (1) 
2.2678334573304797

>  <r_epik_Ionization_Penalty>  (1) 
1.1498882506810455

>  <r_epik_Ionization_Penalty_Charging>  (1) 
1.1031410554290029

>  <r_epik_Ionization_Penalty_Neutral>  (1) 
0.046747195252042517

>  <r_epik_State_Penalty>  (1) 
1.164692401901477

>  <r_glide_ring_energy>  (1) 
0

>  <r_i_docking_score>  (1) 
-2.3031757236290957

>  <r_i_glide_ecoul>  (1) 
-4.075580703212478

>  <r_i_glide_eff_state_penalty>  (1) 
1.164692401901477

>  <r_i_glide_einternal>  (1) 
66.789155526727498

>  <r_i_glide_emodel>  (1) 
6.5343614737795761

>  <r_i_glide_emodel_strain>  (1) 
15.382157003908588

>  <r_i_glide_energy>  (1) 
-39.996207855093047

>  <r_i_glide_erotb>  (1) 
0.2643022598508753

>  <r_i_glide_esite>  (1) 
-0.021782790555882909

>  <r_i_glide_evdw>  (1) 
-35.920627151880566

>  <r_i_glide_gscore>  (1) 
-3.4678681255305728

>  <r_i_glide_gscore_strain>  (1) 
2.8455392509771471

>  <r_i_glide_hbond>  (1) 
-0.35980125159142318

>  <r_i_glide_ligand_efficiency>  (1) 
-0.049003738800619055

>  <r_i_glide_ligand_efficiency_ln>  (1) 
-0.47486714070661379

>  <r_i_glide_ligand_efficiency_sa>  (1) 
-0.17684597060797858

>  <r_i_glide_lipo>  (1) 
-2.8409137479686364

>  <r_i_glide_metal>  (1) 
-0

>  <r_i_glide_rewards>  (1) 
-0.94784338316675321

>  <r_lp_Energy>  (1) 
34.071460000000002

>  <s_epik_Chemistry_Notes>  (1) 
This compound contains an acetal/aminal-like group ( X-CH(R)-Y where X, Y are N, S, or O) that may be acid/base labile, releasing an aldehyde.

>  <s_epik_cmdline>  (1) 
J2VwaWtfcHl0aG9uJywgJy1waHQnLCAnMS4wJywgJy1waCcsICc3LjQnLCAnLXRuJywgJzgnLCAnLW1hJywgJzUwMCcsICctaW1hZScsICc8aW5maWxlLm1hZT4nLCAnLW9tYWUnLCAnPG91dGZpbGUubWFlPic=

>  <s_epik_input>  (1) 
W09IXUMoPU8pW0NAQEhdKFtDSDNdKUMoTzEpPVtDSF1bQ0gyXVtDQEhdKFtDSDJdW0NAXTEyW0NASF0oW0NIM10pW0NAQEhdMltDSDNdKVtDSDJdW0NIMl1OM1tDSDJdW0NIMl1PW0NAQEhdKEMoPU8pW05IXUMjTilbQ0BASF0oW0NAQEhdKFtDSDJdMylPW0NIM10pQyg9TylTKD1PKVtDQEBIXTRTQyg9TylbTkhdW0NASF00W0NIMl1bQ0BIXShbT0hdKVtDSDNd

>  <s_glide_docking_method>  (1) 
confgen

>  <s_i_glide_gridfile>  (1) 
gpcr_5ht2c_6bqh_protein_autoprepared_prepared

>  <s_lp_Force_Field>  (1) 
S-OPLS

>  <s_lp_Variant>  (1) 
DiffSBDD_7_num_sample_50-4

>  <s_m_source_file>  (1) 
generated__ligand_DiffSBDD_2026-05-06_prepared.sdf

>  <GenAI_Model>  (1) 
DiffSBDD

>  <Protein>  (1) 
GPCR_5HT2C

$$$$
DiffSBDD_16_num_sample_50
     RDKit          3D

  0  0  0  0  0  0  0  0  0  0999 V3000
M  V30 BEGIN CTAB
M  V30 COUNTS 43 43 0 0 1
M  V30 BEGIN ATOM
M  V30 1 C 37.749615 28.782579 54.370513 0
M  V30 2 C 39.243425 27.461018 52.754080 0
M  V30 3 C 39.927067 30.052802 49.860412 0
M  V30 4 C 37.490807 29.349796 58.210711 0
M  V30 5 C 37.929064 28.656805 56.919039 0
M  V30 6 C 39.167949 28.281642 54.061169 0
M  V30 7 C 37.582726 29.546477 55.707320 0 CFG=1
M  V30 8 O 41.273453 30.421428 50.052523 0
M  V30 9 N 37.867410 31.563794 57.119551 0 CFG=1 CHG=1
M  V30 10 C 39.956681 28.153824 51.578693 0
M  V30 11 C 39.338032 29.490465 51.164350 0
M  V30 12 C 38.313540 30.912031 55.845115 0 CFG=2
M  V30 13 C 38.144289 30.732081 58.318645 0
M  V30 14 C 38.079332 31.815524 54.616284 0
M  V30 15 C 38.337574 32.957323 57.311646 0
M  V30 16 H 37.391052 29.389523 53.541077 0
M  V30 17 H 37.080233 27.921050 54.388991 0
M  V30 18 H 38.245137 27.150459 52.441293 0
M  V30 19 H 39.776238 26.531839 52.960788 0
M  V30 20 H 39.382899 30.940372 49.538770 0
M  V30 21 H 39.866498 29.319707 49.055487 0
M  V30 22 H 36.403816 29.447518 58.233261 0
M  V30 23 H 37.769863 28.745071 59.073338 0
M  V30 24 H 37.467418 27.673472 56.840881 0
M  V30 25 H 39.003852 28.476554 56.958459 0
M  V30 26 H 39.505004 27.641463 54.876350 0
M  V30 27 H 39.859915 29.124722 54.038244 0
M  V30 28 H 36.518723 29.779361 55.759793 0
M  V30 29 H 41.301889 31.268781 50.474407 0
M  V30 30 H 39.936028 27.477542 50.722513 0
M  V30 31 H 41.006417 28.316366 51.817459 0
M  V30 32 H 39.467419 30.222970 51.960012 0
M  V30 33 H 38.267404 29.330205 51.052675 0
M  V30 34 H 39.387925 30.734185 55.917419 0
M  V30 35 H 37.766078 31.231857 59.211455 0
M  V30 36 H 39.221210 30.622739 58.445895 0
M  V30 37 H 38.449695 31.353956 53.704326 0
M  V30 38 H 37.019986 32.021430 54.477545 0
M  V30 39 H 38.605622 32.766116 54.685742 0
M  V30 40 H 39.422731 33.021716 57.224260 0
M  V30 41 H 37.882876 33.634617 56.588589 0
M  V30 42 H 38.053076 33.332273 58.295155 0
M  V30 43 H 36.841614 31.625026 57.053503 0
M  V30 END ATOM
M  V30 BEGIN BOND
M  V30 1 1 5 4
M  V30 2 1 6 1
M  V30 3 1 6 2
M  V30 4 1 7 1
M  V30 5 1 7 5
M  V30 6 1 8 3
M  V30 7 1 10 2
M  V30 8 1 11 3
M  V30 9 1 11 10
M  V30 10 1 12 7
M  V30 11 1 12 9
M  V30 12 1 13 4
M  V30 13 1 13 9
M  V30 14 1 14 12
M  V30 15 1 15 9
M  V30 16 1 16 1
M  V30 17 1 17 1
M  V30 18 1 18 2
M  V30 19 1 19 2
M  V30 20 1 20 3
M  V30 21 1 21 3
M  V30 22 1 22 4
M  V30 23 1 23 4
M  V30 24 1 24 5
M  V30 25 1 25 5
M  V30 26 1 26 6
M  V30 27 1 27 6
M  V30 28 1 7 28 CFG=1
M  V30 29 1 29 8
M  V30 30 1 30 10
M  V30 31 1 31 10
M  V30 32 1 32 11
M  V30 33 1 33 11
M  V30 34 1 12 34 CFG=1
M  V30 35 1 35 13
M  V30 36 1 36 13
M  V30 37 1 37 14
M  V30 38 1 38 14
M  V30 39 1 39 14
M  V30 40 1 40 15
M  V30 41 1 41 15
M  V30 42 1 42 15
M  V30 43 1 9 43 CFG=3
M  V30 END BOND
M  V30 END CTAB
M  END
>  <i_epik_Tot_Q>  (1) 
1

>  <i_epik_Tot_abs_Q>  (1) 
1

>  <i_i_glide_confnum>  (1) 
137

>  <i_i_glide_lignum>  (1) 
46

>  <i_i_glide_posenum>  (1) 
63

>  <i_i_glide_rotatable_bonds>  (1) 
7

>  <i_lp_mmshare_version>  (1) 
72125

>  <i_m_source_file_index>  (1) 
17

>  <i_f3d_flags>  (1) 
0

>  <num_sample>  (1) 
50

>  <b_lp_Chiralities_Consistent>  (1) 
1

>  <r_epik_Charging_Adjusted_Penalty>  (1) 
0.0018248254832493158

>  <r_epik_Ionization_Penalty>  (1) 
0.0018251261234076507

>  <r_epik_Ionization_Penalty_Charging>  (1) 
0.0018248254832493158

>  <r_epik_Ionization_Penalty_Neutral>  (1) 
3.0064015833489429e-07

>  <r_epik_State_Penalty>  (1) 
-0

>  <r_glide_ring_energy>  (1) 
0

>  <r_i_docking_score>  (1) 
-2.1689841663361653

>  <r_i_glide_ecoul>  (1) 
-6.5816754023209842

>  <r_i_glide_eff_state_penalty>  (1) 
-0

>  <r_i_glide_einternal>  (1) 
7.2178745868452481

>  <r_i_glide_emodel>  (1) 
-28.63827152710612

>  <r_i_glide_emodel_strain>  (1) 
0.47170259451937468

>  <r_i_glide_energy>  (1) 
-28.611215212544067

>  <r_i_glide_erotb>  (1) 
4.3624240847918374

>  <r_i_glide_esite>  (1) 
-0.10000000000000001

>  <r_i_glide_evdw>  (1) 
-22.029539810223085

>  <r_i_glide_gscore>  (1) 
-2.1689841663361653

>  <r_i_glide_gscore_strain>  (1) 
0

>  <r_i_glide_hbond>  (1) 
-0.19500583899054308

>  <r_i_glide_ligand_efficiency>  (1) 
-0.14459894442241103

>  <r_i_glide_ligand_efficiency_ln>  (1) 
-0.58493926692023734

>  <r_i_glide_ligand_efficiency_sa>  (1) 
-0.35661166266999073

>  <r_i_glide_lipo>  (1) 
-1.6533019906553532

>  <r_i_glide_metal>  (1) 
-0

>  <r_i_glide_rewards>  (1) 
-2.4943721206228044

>  <r_lp_Energy>  (1) 
22.823791999999997

>  <r_lp_tautomer_probability>  (1) 
1

>  <s_epik_cmdline>  (1) 
J2VwaWtfcHl0aG9uJywgJy1waHQnLCAnMS4wJywgJy1waCcsICc3LjQnLCAnLXRuJywgJzgnLCAnLW1hJywgJzUwMCcsICctaW1hZScsICc8aW5maWxlLm1hZT4nLCAnLW9tYWUnLCAnPG91dGZpbGUubWFlPic=

>  <s_epik_input>  (1) 
W09IXVtDSDJdW0NIMl1bQ0gyXVtDSDJdW0NIMl1bQ0gyXVtDQEhdMVtDSDJdW0NIMl1bQ0gyXU4oW0NIM10pW0NAQEhdMVtDSDNd

>  <s_glide_docking_method>  (1) 
confgen

>  <s_i_glide_gridfile>  (1) 
gpcr_5ht2c_6bqh_protein_autoprepared_prepared

>  <s_lp_Force_Field>  (1) 
S-OPLS

>  <s_lp_Variant>  (1) 
DiffSBDD_16_num_sample_50-1

>  <s_m_source_file>  (1) 
generated__ligand_DiffSBDD_2026-05-06_prepared.sdf

>  <GenAI_Model>  (1) 
DiffSBDD

>  <Protein>  (1) 
GPCR_5HT2C

$$$$
DiffSBDD_0_num_sample_50
     RDKit          3D

  0  0  0  0  0  0  0  0  0  0999 V3000
M  V30 BEGIN CTAB
M  V30 COUNTS 65 69 0 0 1
M  V30 BEGIN ATOM
M  V30 1 C 41.805356 31.701511 63.688371 0
M  V30 2 C 40.546838 32.215891 63.326594 0
M  V30 3 C 38.211629 31.925773 62.368288 0
M  V30 4 S 38.573273 27.447941 52.492966 0
M  V30 5 O 37.867037 27.054514 55.398020 0
M  V30 6 C 38.860010 33.288893 58.845811 0
M  V30 7 C 39.485662 27.702009 58.852356 0
M  V30 8 C 39.888725 30.019691 62.489448 0
M  V30 9 C 39.225517 32.705438 60.193302 0
M  V30 10 C 39.867394 29.288732 50.079958 0
M  V30 11 C 39.867548 29.756181 52.241136 0
M  V30 12 F 43.314138 29.851518 63.814019 0
M  V30 13 C 41.148946 29.505207 62.854774 0
M  V30 14 C 40.098715 30.861095 51.576114 0
M  V30 15 C 39.803992 28.438810 51.405653 0 CFG=1
M  V30 16 C 37.468355 30.907978 55.416254 0
M  V30 17 C 40.112834 29.019249 56.708525 0
M  V30 18 O 38.223025 31.883185 55.192883 0
M  V30 19 C 38.468637 28.105016 55.179933 0
M  V30 20 C 41.897159 28.009497 58.164385 0
M  V30 21 C 37.747946 30.014087 56.634538 0 CFG=2
M  V30 22 C 37.941445 32.328739 60.912493 0 CFG=1
M  V30 23 C 40.452373 27.855319 57.666230 0
M  V30 24 N 37.068831 31.487756 58.653496 0 CFG=2 CHG=1
M  V30 25 C 39.573145 29.666607 53.580163 0
M  V30 26 C 38.168585 30.865486 57.895144 0 CFG=2
M  V30 27 C 38.956684 28.545503 53.856740 0
M  V30 28 N 38.752085 29.002559 56.167678 0
M  V30 29 C 38.012171 32.378019 57.989405 0 CFG=2
M  V30 30 C 39.584204 31.374571 62.729420 0
M  V30 31 O 36.576988 30.496488 54.653504 0 CHG=-1
M  V30 32 C 37.111231 31.276476 60.131845 0
M  V30 33 C 42.105428 30.346295 63.457102 0
M  V30 34 C 40.096901 30.580463 50.247633 0
M  V30 35 H 42.539025 32.345738 64.148530 0
M  V30 36 H 40.316682 33.254070 63.513246 0
M  V30 37 H 38.082638 32.821110 62.968332 0
M  V30 38 H 37.467225 31.222080 62.707587 0
M  V30 39 H 39.753134 33.567702 58.288638 0
M  V30 40 H 38.284210 34.202597 59.004057 0
M  V30 41 H 39.569911 28.529733 59.554512 0
M  V30 42 H 38.448301 27.623888 58.525395 0
M  V30 43 H 39.715865 26.795666 59.408073 0
M  V30 44 H 39.152876 29.372042 62.036827 0
M  V30 45 H 39.867397 31.833466 60.097362 0
M  V30 46 H 39.781316 33.449869 60.763591 0
M  V30 47 H 39.787458 28.821449 49.115256 0
M  V30 48 H 41.380881 28.464381 62.678716 0
M  V30 49 H 40.138621 31.847681 52.003261 0
M  V30 50 H 40.794968 28.021432 51.521370 0
M  V30 51 H 40.825758 28.993809 55.882890 0
M  V30 52 H 40.267491 29.976143 57.182800 0
M  V30 53 H 42.037529 28.962060 58.674922 0
M  V30 54 H 42.173336 27.221723 58.862637 0
M  V30 55 H 42.604381 27.971193 57.335751 0
M  V30 56 H 36.829500 29.486502 56.889987 0
M  V30 57 H 37.314004 33.221835 60.952347 0
M  V30 58 H 40.396892 26.928507 57.094232 0
M  V30 59 H 39.815064 30.429869 54.298778 0
M  V30 60 H 38.811770 30.371541 58.612436 0
M  V30 61 H 37.463279 32.922533 57.227531 0
M  V30 62 H 37.473443 30.268955 60.343068 0
M  V30 63 H 36.082491 31.289632 60.496252 0
M  V30 64 H 40.197688 31.307396 49.454571 0
M  V30 65 H 36.176026 31.496561 58.138309 0
M  V30 END ATOM
M  V30 BEGIN BOND
M  V30 1 2 2 1
M  V30 2 1 9 6
M  V30 3 1 13 8
M  V30 4 2 14 11
M  V30 5 1 15 4
M  V30 6 1 15 10
M  V30 7 1 15 11
M  V30 8 2 18 16
M  V30 9 2 19 5
M  V30 10 1 21 16
M  V30 11 1 22 3
M  V30 12 1 22 9
M  V30 13 1 23 7
M  V30 14 1 23 17
M  V30 15 1 23 20
M  V30 16 1 25 11
M  V30 17 1 26 21
M  V30 18 1 26 24
M  V30 19 1 27 4
M  V30 20 1 27 19
M  V30 21 2 27 25
M  V30 22 1 28 17
M  V30 23 1 28 19
M  V30 24 1 28 21
M  V30 25 1 29 6
M  V30 26 1 29 24
M  V30 27 1 29 26
M  V30 28 1 30 2
M  V30 29 1 30 3
M  V30 30 2 30 8
M  V30 31 1 31 16
M  V30 32 1 32 22
M  V30 33 1 32 24
M  V30 34 1 33 1
M  V30 35 1 33 12
M  V30 36 2 33 13
M  V30 37 2 34 10
M  V30 38 1 34 14
M  V30 39 1 35 1
M  V30 40 1 36 2
M  V30 41 1 37 3
M  V30 42 1 38 3
M  V30 43 1 39 6
M  V30 44 1 40 6
M  V30 45 1 41 7
M  V30 46 1 42 7
M  V30 47 1 43 7
M  V30 48 1 44 8
M  V30 49 1 45 9
M  V30 50 1 46 9
M  V30 51 1 47 10
M  V30 52 1 48 13
M  V30 53 1 49 14
M  V30 54 1 15 50 CFG=1
M  V30 55 1 51 17
M  V30 56 1 52 17
M  V30 57 1 53 20
M  V30 58 1 54 20
M  V30 59 1 55 20
M  V30 60 1 21 56 CFG=1
M  V30 61 1 22 57 CFG=1
M  V30 62 1 58 23
M  V30 63 1 59 25
M  V30 64 1 26 60 CFG=1
M  V30 65 1 29 61 CFG=3
M  V30 66 1 62 32
M  V30 67 1 63 32
M  V30 68 1 64 34
M  V30 69 1 24 65 CFG=3
M  V30 END BOND
M  V30 END CTAB
M  END
>  <i_epik_Tot_Q>  (1) 
0

>  <i_epik_Tot_abs_Q>  (1) 
2

>  <i_i_glide_confnum>  (1) 
113

>  <i_i_glide_lignum>  (1) 
4

>  <i_i_glide_posenum>  (1) 
114

>  <i_i_glide_rotatable_bonds>  (1) 
9

>  <i_lp_mmshare_version>  (1) 
72125

>  <i_m_source_file_index>  (1) 
1

>  <i_f3d_flags>  (1) 
0

>  <num_sample>  (1) 
50

>  <b_lp_Chiralities_Consistent>  (1) 
1

>  <r_epik_Charging_Adjusted_Penalty>  (1) 
0.0020295482604282666

>  <r_epik_Ionization_Penalty>  (1) 
0.0020295482639142975

>  <r_epik_Ionization_Penalty_Charging>  (1) 
0.0020295482604282666

>  <r_epik_Ionization_Penalty_Neutral>  (1) 
3.4860309872641501e-12

>  <r_epik_State_Penalty>  (1) 
-0

>  <r_glide_ring_energy>  (1) 
0

>  <r_i_docking_score>  (1) 
-2.0800512001819511

>  <r_i_glide_ecoul>  (1) 
-5.5591201241867285

>  <r_i_glide_eff_state_penalty>  (1) 
-0

>  <r_i_glide_einternal>  (1) 
21.083101643516752

>  <r_i_glide_emodel>  (1) 
-34.639685985149683

>  <r_i_glide_emodel_strain>  (1) 
3.8295277400852967

>  <r_i_glide_energy>  (1) 
-40.969972184329563

>  <r_i_glide_erotb>  (1) 
0.52278502944784222

>  <r_i_glide_esite>  (1) 
-0.19216303078597313

>  <r_i_glide_evdw>  (1) 
-35.410852060142837

>  <r_i_glide_gscore>  (1) 
-2.0800512001819511

>  <r_i_glide_gscore_strain>  (1) 
0

>  <r_i_glide_hbond>  (1) 
-0.1928748407545699

>  <r_i_glide_ligand_efficiency>  (1) 
-0.061177976475939741

>  <r_i_glide_ligand_efficiency_ln>  (1) 
-0.45954165358013344

>  <r_i_glide_ligand_efficiency_sa>  (1) 
-0.19819289456973066

>  <r_i_glide_lipo>  (1) 
-4.0751031006558938

>  <r_i_glide_metal>  (1) 
-0

>  <r_i_glide_rewards>  (1) 
4.4617153642017939

>  <r_lp_Energy>  (1) 
54.523967999999996

>  <r_lp_tautomer_probability>  (1) 
1

>  <s_epik_cmdline>  (1) 
J2VwaWtfcHl0aG9uJywgJy1waHQnLCAnMS4wJywgJy1waCcsICc3LjQnLCAnLXRuJywgJzgnLCAnLW1hJywgJzUwMCcsICctaW1hZScsICc8aW5maWxlLm1hZT4nLCAnLW9tYWUnLCAnPG91dGZpbGUubWFlPic=

>  <s_epik_input>  (1) 
W2NIXTFbY0hdYyhGKVtjSF1bY0hdYzFbQ0gyXVtDQEhdKFtDSDJdMilbQ0gyXVtDSDJdW0NIXShOMjMpW0NAQEhdM1tDQEBIXShDKD1PKVtPSF0pTihbQ0gyXVtDSF0oW0NIM10pW0NIM10pQyg9TylDKD1bQ0hdNClTW0NASF0oQzQ9NSlbQ0hdPVtDSF1bQ0hdNQ==

>  <s_glide_docking_method>  (1) 
confgen

>  <s_i_glide_gridfile>  (1) 
gpcr_5ht2c_6bqh_protein_autoprepared_prepared

>  <s_lp_Force_Field>  (1) 
S-OPLS

>  <s_lp_Variant>  (1) 
DiffSBDD_0_num_sample_50-4

>  <s_m_source_file>  (1) 
generated__ligand_DiffSBDD_2026-05-06_prepared.sdf

>  <GenAI_Model>  (1) 
DiffSBDD

>  <Protein>  (1) 
GPCR_5HT2C

$$$$
DiffSBDD_16_num_sample_50
     RDKit          3D

  0  0  0  0  0  0  0  0  0  0999 V3000
M  V30 BEGIN CTAB
M  V30 COUNTS 43 43 0 0 1
M  V30 BEGIN ATOM
M  V30 1 C 38.922379 29.349276 54.299958 0
M  V30 2 C 37.875893 26.946673 54.027218 0
M  V30 3 C 37.986424 25.228989 56.752426 0
M  V30 4 C 37.468285 29.560859 57.908095 0
M  V30 5 C 38.240524 29.012395 56.717389 0
M  V30 6 C 38.219255 28.308709 53.396145 0
M  V30 7 C 38.094751 29.927686 55.485136 0 CFG=1
M  V30 8 O 37.835153 24.021411 57.457639 0
M  V30 9 N 37.867414 31.879845 57.120713 0 CFG=1 CHG=1
M  V30 10 C 39.082993 26.207643 54.643893 0
M  V30 11 C 38.708450 24.945527 55.428906 0
M  V30 12 C 38.487864 31.403772 55.835399 0 CFG=2
M  V30 13 C 38.016773 30.938432 58.256422 0
M  V30 14 C 38.106750 32.339054 54.658794 0
M  V30 15 C 38.294750 33.236434 57.538686 0
M  V30 16 H 39.867089 28.960192 54.671987 0
M  V30 17 H 39.232316 30.141432 53.624966 0
M  V30 18 H 37.439763 26.312648 53.254765 0
M  V30 19 H 37.076164 27.079313 54.752172 0
M  V30 20 H 37.002671 25.666952 56.582827 0
M  V30 21 H 38.560882 25.921075 57.369065 0
M  V30 22 H 36.402335 29.621340 57.680794 0
M  V30 23 H 37.570135 28.889562 58.761030 0
M  V30 24 H 37.867619 28.016934 56.511566 0
M  V30 25 H 39.292662 28.898025 56.983177 0
M  V30 26 H 38.859419 28.124830 52.532152 0
M  V30 27 H 37.307566 28.748299 52.989481 0
M  V30 28 H 37.041597 29.933657 55.196994 0
M  V30 29 H 37.355040 24.189400 58.253072 0
M  V30 30 H 39.648576 26.859530 55.307590 0
M  V30 31 H 39.775454 25.919984 53.852978 0
M  V30 32 H 39.634537 24.421435 55.658139 0
M  V30 33 H 38.115017 24.275176 54.805334 0
M  V30 34 H 39.569963 31.444760 55.972568 0
M  V30 35 H 37.474783 31.319805 59.122832 0
M  V30 36 H 39.066178 30.865511 58.543848 0
M  V30 37 H 38.677867 32.139878 53.756665 0
M  V30 38 H 37.062196 32.221355 54.387292 0
M  V30 39 H 38.267631 33.391825 54.870044 0
M  V30 40 H 39.381032 33.277504 57.622722 0
M  V30 41 H 37.957087 34.015184 56.856957 0
M  V30 42 H 37.873327 33.495473 58.510497 0
M  V30 43 H 36.851280 31.933315 56.964178 0
M  V30 END ATOM
M  V30 BEGIN BOND
M  V30 1 1 5 4
M  V30 2 1 6 1
M  V30 3 1 6 2
M  V30 4 1 7 1
M  V30 5 1 7 5
M  V30 6 1 8 3
M  V30 7 1 10 2
M  V30 8 1 11 3
M  V30 9 1 11 10
M  V30 10 1 12 7
M  V30 11 1 12 9
M  V30 12 1 13 4
M  V30 13 1 13 9
M  V30 14 1 14 12
M  V30 15 1 15 9
M  V30 16 1 16 1
M  V30 17 1 17 1
M  V30 18 1 18 2
M  V30 19 1 19 2
M  V30 20 1 20 3
M  V30 21 1 21 3
M  V30 22 1 22 4
M  V30 23 1 23 4
M  V30 24 1 24 5
M  V30 25 1 25 5
M  V30 26 1 26 6
M  V30 27 1 27 6
M  V30 28 1 7 28 CFG=3
M  V30 29 1 29 8
M  V30 30 1 30 10
M  V30 31 1 31 10
M  V30 32 1 32 11
M  V30 33 1 33 11
M  V30 34 1 12 34 CFG=1
M  V30 35 1 35 13
M  V30 36 1 36 13
M  V30 37 1 37 14
M  V30 38 1 38 14
M  V30 39 1 39 14
M  V30 40 1 40 15
M  V30 41 1 41 15
M  V30 42 1 42 15
M  V30 43 1 9 43 CFG=3
M  V30 END BOND
M  V30 END CTAB
M  END
>  <i_epik_Tot_Q>  (1) 
1

>  <i_epik_Tot_abs_Q>  (1) 
1

>  <i_i_glide_confnum>  (1) 
127

>  <i_i_glide_lignum>  (1) 
46

>  <i_i_glide_posenum>  (1) 
346

>  <i_i_glide_rotatable_bonds>  (1) 
7

>  <i_lp_mmshare_version>  (1) 
72125

>  <i_m_source_file_index>  (1) 
17

>  <i_f3d_flags>  (1) 
0

>  <num_sample>  (1) 
50

>  <b_lp_Chiralities_Consistent>  (1) 
1

>  <r_epik_Charging_Adjusted_Penalty>  (1) 
0.0018248254832493158

>  <r_epik_Ionization_Penalty>  (1) 
0.0018251261234076507

>  <r_epik_Ionization_Penalty_Charging>  (1) 
0.0018248254832493158

>  <r_epik_Ionization_Penalty_Neutral>  (1) 
3.0064015833489429e-07

>  <r_epik_State_Penalty>  (1) 
-0

>  <r_glide_ring_energy>  (1) 
0

>  <r_i_docking_score>  (1) 
-1.9762697747826203

>  <r_i_glide_ecoul>  (1) 
-4.6794506567458765

>  <r_i_glide_eff_state_penalty>  (1) 
-0

>  <r_i_glide_einternal>  (1) 
4.9655486905587995

>  <r_i_glide_emodel>  (1) 
-28.366532027659577

>  <r_i_glide_emodel_strain>  (1) 
0.33529789517303499

>  <r_i_glide_energy>  (1) 
-27.441877154197279

>  <r_i_glide_erotb>  (1) 
4.3624240847918374

>  <r_i_glide_esite>  (1) 
-0.10000000000000001

>  <r_i_glide_evdw>  (1) 
-22.762426497451401

>  <r_i_glide_gscore>  (1) 
-1.9762697747826203

>  <r_i_glide_gscore_strain>  (1) 
0

>  <r_i_glide_hbond>  (1) 
-0.18924857835244596

>  <r_i_glide_ligand_efficiency>  (1) 
-0.13175131831884135

>  <r_i_glide_ligand_efficiency_ln>  (1) 
-0.53296737304019737

>  <r_i_glide_ligand_efficiency_sa>  (1) 
-0.32492669204688385

>  <r_i_glide_lipo>  (1) 
-1.8112388256928575

>  <r_i_glide_metal>  (1) 
-0

>  <r_i_glide_rewards>  (1) 
-2.3981675321447025

>  <r_lp_Energy>  (1) 
22.823791999999997

>  <r_lp_tautomer_probability>  (1) 
1

>  <s_epik_cmdline>  (1) 
J2VwaWtfcHl0aG9uJywgJy1waHQnLCAnMS4wJywgJy1waCcsICc3LjQnLCAnLXRuJywgJzgnLCAnLW1hJywgJzUwMCcsICctaW1hZScsICc8aW5maWxlLm1hZT4nLCAnLW9tYWUnLCAnPG91dGZpbGUubWFlPic=

>  <s_epik_input>  (1) 
W09IXVtDSDJdW0NIMl1bQ0gyXVtDSDJdW0NIMl1bQ0gyXVtDQEhdMVtDSDJdW0NIMl1bQ0gyXU4oW0NIM10pW0NAQEhdMVtDSDNd

>  <s_glide_docking_method>  (1) 
confgen

>  <s_i_glide_gridfile>  (1) 
gpcr_5ht2c_6bqh_protein_autoprepared_prepared

>  <s_lp_Force_Field>  (1) 
S-OPLS

>  <s_lp_Variant>  (1) 
DiffSBDD_16_num_sample_50-1

>  <s_m_source_file>  (1) 
generated__ligand_DiffSBDD_2026-05-06_prepared.sdf

>  <GenAI_Model>  (1) 
DiffSBDD

>  <Protein>  (1) 
GPCR_5HT2C

$$$$
DiffSBDD_1_num_sample_50
     RDKit          3D

  0  0  0  0  0  0  0  0  0  0999 V3000
M  V30 BEGIN CTAB
M  V30 COUNTS 31 30 0 0 1
M  V30 BEGIN ATOM
M  V30 1 C 41.138984 30.265880 50.120296 0
M  V30 2 C 39.924823 30.141212 51.038628 0
M  V30 3 C 37.892448 29.391639 54.921641 0
M  V30 4 C 39.010976 28.942762 53.958520 0
M  V30 5 N 37.867399 32.846859 56.944318 0 CHG=1
M  V30 6 C 38.523141 28.593443 52.538559 0
M  V30 7 C 39.630352 28.693448 51.473790 0
M  V30 8 C 38.314611 31.834077 54.715373 0
M  V30 9 N 37.360630 30.728477 54.653727 0
M  V30 10 C 38.845249 32.101917 56.135447 0
M  V30 11 H 41.244089 31.283180 49.754066 0
M  V30 12 H 42.056546 30.021018 50.653501 0
M  V30 13 H 41.046548 29.621403 49.246633 0
M  V30 14 H 39.067493 30.537195 50.501117 0
M  V30 15 H 40.073827 30.783968 51.906212 0
M  V30 16 H 38.243584 29.334988 55.951173 0
M  V30 17 H 37.067263 28.684310 54.850191 0
M  V30 18 H 39.820358 29.669582 53.934077 0
M  V30 19 H 39.467416 28.043612 54.372759 0
M  V30 20 H 38.195506 32.952918 57.891606 0
M  V30 21 H 37.714339 33.756434 56.533891 0
M  V30 22 H 38.124360 27.578026 52.550668 0
M  V30 23 H 37.685106 29.221396 52.247124 0
M  V30 24 H 40.537253 28.219247 51.848960 0
M  V30 25 H 39.327370 28.122450 50.594421 0
M  V30 26 H 39.143029 31.653673 54.032842 0
M  V30 27 H 37.823472 32.730169 54.333042 0
M  V30 28 H 36.564758 30.921375 55.256988 0
M  V30 29 H 39.135119 31.186822 56.649830 0
M  V30 30 H 39.747442 32.711489 56.072446 0
M  V30 31 H 36.958366 32.369847 56.955155 0
M  V30 END ATOM
M  V30 BEGIN BOND
M  V30 1 1 2 1
M  V30 2 1 4 3
M  V30 3 1 6 4
M  V30 4 1 7 2
M  V30 5 1 7 6
M  V30 6 1 9 3
M  V30 7 1 9 8
M  V30 8 1 10 5
M  V30 9 1 10 8
M  V30 10 1 11 1
M  V30 11 1 12 1
M  V30 12 1 13 1
M  V30 13 1 14 2
M  V30 14 1 15 2
M  V30 15 1 16 3
M  V30 16 1 17 3
M  V30 17 1 18 4
M  V30 18 1 19 4
M  V30 19 1 20 5
M  V30 20 1 21 5
M  V30 21 1 22 6
M  V30 22 1 23 6
M  V30 23 1 24 7
M  V30 24 1 25 7
M  V30 25 1 26 8
M  V30 26 1 27 8
M  V30 27 1 28 9
M  V30 28 1 29 10
M  V30 29 1 30 10
M  V30 30 1 31 5
M  V30 END BOND
M  V30 END CTAB
M  END
>  <i_epik_Tot_Q>  (1) 
1

>  <i_epik_Tot_abs_Q>  (1) 
1

>  <i_i_glide_confnum>  (1) 
250

>  <i_i_glide_lignum>  (1) 
7

>  <i_i_glide_posenum>  (1) 
19

>  <i_i_glide_rotatable_bonds>  (1) 
7

>  <i_lp_mmshare_version>  (1) 
72125

>  <i_m_source_file_index>  (1) 
2

>  <i_f3d_flags>  (1) 
0

>  <num_sample>  (1) 
50

>  <b_lp_Chiralities_Consistent>  (1) 
1

>  <r_epik_Charging_Adjusted_Penalty>  (1) 
1.0612563953721996

>  <r_epik_Ionization_Penalty>  (1) 
0.52166343856135999

>  <r_epik_Ionization_Penalty_Charging>  (1) 
0.0055980972851356293

>  <r_epik_Ionization_Penalty_Neutral>  (1) 
0.51606534127622439

>  <r_epik_State_Penalty>  (1) 
1.0556582980870639

>  <r_glide_ring_energy>  (1) 
0

>  <r_i_docking_score>  (1) 
-1.9599051630456088

>  <r_i_glide_ecoul>  (1) 
-6.2153351892719826

>  <r_i_glide_eff_state_penalty>  (1) 
1.0556582980870639

>  <r_i_glide_einternal>  (1) 
6.62765552655687

>  <r_i_glide_emodel>  (1) 
-27.412930009954369

>  <r_i_glide_emodel_strain>  (1) 
0.36421468393634893

>  <r_i_glide_energy>  (1) 
-23.955685549799536

>  <r_i_glide_erotb>  (1) 
3.4380790968712875

>  <r_i_glide_esite>  (1) 
-0.10000000000000001

>  <r_i_glide_evdw>  (1) 
-17.740350360527554

>  <r_i_glide_gscore>  (1) 
-3.0155634611326727

>  <r_i_glide_gscore_strain>  (1) 
0

>  <r_i_glide_hbond>  (1) 
-0.29157998773875315

>  <r_i_glide_ligand_efficiency>  (1) 
-0.19599051630456088

>  <r_i_glide_ligand_efficiency_ln>  (1) 
-0.59344577288962597

>  <r_i_glide_ligand_efficiency_sa>  (1) 
-0.4222487672438055

>  <r_i_glide_lipo>  (1) 
-1.6641138052205082

>  <r_i_glide_metal>  (1) 
-0

>  <r_i_glide_rewards>  (1) 
-2.5786309686275231

>  <r_lp_Energy>  (1) 
8.789769999999999

>  <s_epik_cmdline>  (1) 
J2VwaWtfcHl0aG9uJywgJy1waHQnLCAnMS4wJywgJy1waCcsICc3LjQnLCAnLXRuJywgJzgnLCAnLW1hJywgJzUwMCcsICctaW1hZScsICc8aW5maWxlLm1hZT4nLCAnLW9tYWUnLCAnPG91dGZpbGUubWFlPic=

>  <s_epik_input>  (1) 
W0NIM11bQ0gyXVtDSDJdW0NIMl1bQ0gyXVtDSDJdW05IXVtDSDJdW0NIMl1bTkgyXQ==

>  <s_glide_docking_method>  (1) 
confgen

>  <s_i_glide_gridfile>  (1) 
gpcr_5ht2c_6bqh_protein_autoprepared_prepared

>  <s_lp_Force_Field>  (1) 
S-OPLS

>  <s_lp_Variant>  (1) 
DiffSBDD_1_num_sample_50-3

>  <s_m_source_file>  (1) 
generated__ligand_DiffSBDD_2026-05-06_prepared.sdf

>  <GenAI_Model>  (1) 
DiffSBDD

>  <Protein>  (1) 
GPCR_5HT2C

$$$$
DiffSBDD_1_num_sample_50
     RDKit          3D

  0  0  0  0  0  0  0  0  0  0999 V3000
M  V30 BEGIN CTAB
M  V30 COUNTS 31 30 0 0 1
M  V30 BEGIN ATOM
M  V30 1 C 40.440143 30.219074 50.092641 0
M  V30 2 C 40.348181 29.009367 51.031767 0
M  V30 3 C 39.030736 31.563756 55.248325 0
M  V30 4 C 38.669436 30.414198 54.301537 0
M  V30 5 N 36.709433 33.013663 58.653487 0 CHG=1
M  V30 6 C 39.589012 30.378543 53.075420 0
M  V30 7 C 39.321083 29.166803 52.164665 0
M  V30 8 C 38.820561 32.230260 57.560253 0
M  V30 9 N 38.267709 31.430846 56.479022 0
M  V30 10 C 37.930395 33.415539 57.939877 0
M  V30 11 H 41.124319 30.021335 49.267693 0
M  V30 12 H 39.468616 30.467778 49.669437 0
M  V30 13 H 40.814404 31.100858 50.612203 0
M  V30 14 H 41.333858 28.817512 51.453367 0
M  V30 15 H 40.093972 28.123060 50.448920 0
M  V30 16 H 38.836215 32.532021 54.785868 0
M  V30 17 H 40.098372 31.511343 55.465192 0
M  V30 18 H 38.760490 29.467932 54.837393 0
M  V30 19 H 37.627805 30.498361 53.990688 0
M  V30 20 H 36.201200 33.828433 58.961776 0
M  V30 21 H 36.114419 32.482846 57.994653 0
M  V30 22 H 39.472461 31.307662 52.516507 0
M  V30 23 H 40.626218 30.357263 53.410884 0
M  V30 24 H 39.338518 28.257348 52.767492 0
M  V30 25 H 38.315340 29.221313 51.746817 0
M  V30 26 H 38.983613 31.586523 58.424165 0
M  V30 27 H 39.798927 32.619259 57.277030 0
M  V30 28 H 37.277413 31.620828 56.327784 0
M  V30 29 H 38.501563 34.021728 58.635756 0
M  V30 30 H 37.686616 34.023086 57.068952 0
M  V30 31 H 36.942023 32.422030 59.435517 0
M  V30 END ATOM
M  V30 BEGIN BOND
M  V30 1 1 2 1
M  V30 2 1 4 3
M  V30 3 1 6 4
M  V30 4 1 7 2
M  V30 5 1 7 6
M  V30 6 1 9 3
M  V30 7 1 9 8
M  V30 8 1 10 5
M  V30 9 1 10 8
M  V30 10 1 11 1
M  V30 11 1 12 1
M  V30 12 1 13 1
M  V30 13 1 14 2
M  V30 14 1 15 2
M  V30 15 1 16 3
M  V30 16 1 17 3
M  V30 17 1 18 4
M  V30 18 1 19 4
M  V30 19 1 20 5
M  V30 20 1 21 5
M  V30 21 1 22 6
M  V30 22 1 23 6
M  V30 23 1 24 7
M  V30 24 1 25 7
M  V30 25 1 26 8
M  V30 26 1 27 8
M  V30 27 1 28 9
M  V30 28 1 29 10
M  V30 29 1 30 10
M  V30 30 1 31 5
M  V30 END BOND
M  V30 END CTAB
M  END
>  <i_epik_Tot_Q>  (1) 
1

>  <i_epik_Tot_abs_Q>  (1) 
1

>  <i_i_glide_confnum>  (1) 
39

>  <i_i_glide_lignum>  (1) 
7

>  <i_i_glide_posenum>  (1) 
390

>  <i_i_glide_rotatable_bonds>  (1) 
7

>  <i_lp_mmshare_version>  (1) 
72125

>  <i_m_source_file_index>  (1) 
2

>  <i_f3d_flags>  (1) 
0

>  <num_sample>  (1) 
50

>  <b_lp_Chiralities_Consistent>  (1) 
1

>  <r_epik_Charging_Adjusted_Penalty>  (1) 
1.0612563953721996

>  <r_epik_Ionization_Penalty>  (1) 
0.52166343856135999

>  <r_epik_Ionization_Penalty_Charging>  (1) 
0.0055980972851356293

>  <r_epik_Ionization_Penalty_Neutral>  (1) 
0.51606534127622439

>  <r_epik_State_Penalty>  (1) 
1.0556582980870639

>  <r_glide_ring_energy>  (1) 
0

>  <r_i_docking_score>  (1) 
-1.9281689619987332

>  <r_i_glide_ecoul>  (1) 
-7.9658911750047618

>  <r_i_glide_eff_state_penalty>  (1) 
1.0556582980870639

>  <r_i_glide_einternal>  (1) 
6.8353554590362258

>  <r_i_glide_emodel>  (1) 
-26.504467359653574

>  <r_i_glide_emodel_strain>  (1) 
0.67845372589237618

>  <r_i_glide_energy>  (1) 
-23.540404640027248

>  <r_i_glide_erotb>  (1) 
3.4380790968712875

>  <r_i_glide_esite>  (1) 
-0.10000000000000001

>  <r_i_glide_evdw>  (1) 
-15.574513465022484

>  <r_i_glide_gscore>  (1) 
-2.9838272600857971

>  <r_i_glide_gscore_strain>  (1) 
0

>  <r_i_glide_hbond>  (1) 
-0.32512923975540764

>  <r_i_glide_ligand_efficiency>  (1) 
-0.19281689619987333

>  <r_i_glide_ligand_efficiency_ln>  (1) 
-0.58383626998409921

>  <r_i_glide_ligand_efficiency_sa>  (1) 
-0.41541140999728404

>  <r_i_glide_lipo>  (1) 
-1.4953427885345718

>  <r_i_glide_metal>  (1) 
-0

>  <r_i_glide_rewards>  (1) 
-2.5278249791652656

>  <r_lp_Energy>  (1) 
8.789769999999999

>  <s_epik_cmdline>  (1) 
J2VwaWtfcHl0aG9uJywgJy1waHQnLCAnMS4wJywgJy1waCcsICc3LjQnLCAnLXRuJywgJzgnLCAnLW1hJywgJzUwMCcsICctaW1hZScsICc8aW5maWxlLm1hZT4nLCAnLW9tYWUnLCAnPG91dGZpbGUubWFlPic=

>  <s_epik_input>  (1) 
W0NIM11bQ0gyXVtDSDJdW0NIMl1bQ0gyXVtDSDJdW05IXVtDSDJdW0NIMl1bTkgyXQ==

>  <s_glide_docking_method>  (1) 
confgen

>  <s_i_glide_gridfile>  (1) 
gpcr_5ht2c_6bqh_protein_autoprepared_prepared

>  <s_lp_Force_Field>  (1) 
S-OPLS

>  <s_lp_Variant>  (1) 
DiffSBDD_1_num_sample_50-3

>  <s_m_source_file>  (1) 
generated__ligand_DiffSBDD_2026-05-06_prepared.sdf

>  <GenAI_Model>  (1) 
DiffSBDD

>  <Protein>  (1) 
GPCR_5HT2C

$$$$
DiffSBDD_16_num_sample_50
     RDKit          3D

  0  0  0  0  0  0  0  0  0  0999 V3000
M  V30 BEGIN CTAB
M  V30 COUNTS 43 43 0 0 1
M  V30 BEGIN ATOM
M  V30 1 C 38.072938 29.184874 56.538341 0
M  V30 2 C 38.470097 30.690931 58.605930 0
M  V30 3 C 37.917328 31.379219 61.557145 0
M  V30 4 C 39.410380 27.062672 58.488151 0
M  V30 5 C 40.154327 27.911620 57.447755 0
M  V30 6 C 38.436562 30.586697 57.069158 0
M  V30 7 C 39.248282 28.217635 56.236000 0 CFG=1
M  V30 8 O 36.530384 31.621462 61.453493 0
M  V30 9 N 38.021559 26.077627 56.669306 0 CFG=2 CHG=1
M  V30 10 C 38.380744 32.139640 59.113113 0
M  V30 11 C 38.709941 32.298356 60.611532 0
M  V30 12 C 38.720730 26.889517 55.626543 0 CFG=2
M  V30 13 C 38.864451 25.772563 57.854103 0
M  V30 14 C 39.822143 26.103060 54.882355 0
M  V30 15 C 37.311992 24.887668 56.143696 0
M  V30 16 H 37.350360 28.724055 57.210531 0
M  V30 17 H 37.528401 29.336214 55.604883 0
M  V30 18 H 39.372715 30.230544 59.000686 0
M  V30 19 H 37.633146 30.129148 59.021334 0
M  V30 20 H 38.225030 31.549143 62.589467 0
M  V30 21 H 38.122575 30.331024 61.342308 0
M  V30 22 H 40.078529 26.821439 59.312721 0
M  V30 23 H 38.593780 27.636958 58.926236 0
M  V30 24 H 41.040833 27.369704 57.116751 0
M  V30 25 H 40.546286 28.824766 57.889141 0
M  V30 26 H 37.669504 31.275134 56.710341 0
M  V30 27 H 39.372903 30.939297 56.635047 0
M  V30 28 H 39.865819 28.712048 55.484232 0
M  V30 29 H 36.294249 31.621468 60.535764 0
M  V30 30 H 37.383447 32.531319 58.905847 0
M  V30 31 H 39.067391 32.766543 58.542604 0
M  V30 32 H 38.553268 33.338074 60.902100 0
M  V30 33 H 39.773627 32.107549 60.758175 0
M  V30 34 H 37.973775 27.147692 54.873738 0
M  V30 35 H 39.684035 25.109284 57.573334 0
M  V30 36 H 38.267410 25.235237 58.592643 0
M  V30 37 H 40.267397 26.717547 54.101101 0
M  V30 38 H 40.627335 25.773041 55.537981 0
M  V30 39 H 39.421423 25.221431 54.388375 0
M  V30 40 H 38.008338 24.110936 55.826003 0
M  V30 41 H 36.667409 24.460501 56.912387 0
M  V30 42 H 36.680102 25.152336 55.295094 0
M  V30 43 H 37.294032 26.686456 57.016855 0
M  V30 END ATOM
M  V30 BEGIN BOND
M  V30 1 1 5 4
M  V30 2 1 6 1
M  V30 3 1 6 2
M  V30 4 1 7 1
M  V30 5 1 7 5
M  V30 6 1 8 3
M  V30 7 1 10 2
M  V30 8 1 11 3
M  V30 9 1 11 10
M  V30 10 1 12 7
M  V30 11 1 12 9
M  V30 12 1 13 4
M  V30 13 1 13 9
M  V30 14 1 14 12
M  V30 15 1 15 9
M  V30 16 1 16 1
M  V30 17 1 17 1
M  V30 18 1 18 2
M  V30 19 1 19 2
M  V30 20 1 20 3
M  V30 21 1 21 3
M  V30 22 1 22 4
M  V30 23 1 23 4
M  V30 24 1 24 5
M  V30 25 1 25 5
M  V30 26 1 26 6
M  V30 27 1 27 6
M  V30 28 1 7 28 CFG=3
M  V30 29 1 29 8
M  V30 30 1 30 10
M  V30 31 1 31 10
M  V30 32 1 32 11
M  V30 33 1 33 11
M  V30 34 1 12 34 CFG=3
M  V30 35 1 35 13
M  V30 36 1 36 13
M  V30 37 1 37 14
M  V30 38 1 38 14
M  V30 39 1 39 14
M  V30 40 1 40 15
M  V30 41 1 41 15
M  V30 42 1 42 15
M  V30 43 1 9 43 CFG=1
M  V30 END BOND
M  V30 END CTAB
M  END
>  <i_epik_Tot_Q>  (1) 
1

>  <i_epik_Tot_abs_Q>  (1) 
1

>  <i_i_glide_confnum>  (1) 
87

>  <i_i_glide_lignum>  (1) 
47

>  <i_i_glide_posenum>  (1) 
250

>  <i_i_glide_rotatable_bonds>  (1) 
7

>  <i_lp_mmshare_version>  (1) 
72125

>  <i_m_source_file_index>  (1) 
17

>  <i_f3d_flags>  (1) 
0

>  <num_sample>  (1) 
50

>  <b_lp_Chiralities_Consistent>  (1) 
1

>  <r_epik_Charging_Adjusted_Penalty>  (1) 
0.0018248254832493158

>  <r_epik_Ionization_Penalty>  (1) 
0.0018251261234076507

>  <r_epik_Ionization_Penalty_Charging>  (1) 
0.0018248254832493158

>  <r_epik_Ionization_Penalty_Neutral>  (1) 
3.0064015833489429e-07

>  <r_epik_State_Penalty>  (1) 
-0

>  <r_glide_ring_energy>  (1) 
0

>  <r_i_docking_score>  (1) 
-1.8712514304990946

>  <r_i_glide_ecoul>  (1) 
-3.4612317278643898

>  <r_i_glide_eff_state_penalty>  (1) 
-0

>  <r_i_glide_einternal>  (1) 
4.3841597786955617

>  <r_i_glide_emodel>  (1) 
-25.034125872936773

>  <r_i_glide_emodel_strain>  (1) 
0.28579842943183209

>  <r_i_glide_energy>  (1) 
-23.647083622067413

>  <r_i_glide_erotb>  (1) 
4.3624240847918374

>  <r_i_glide_esite>  (1) 
0

>  <r_i_glide_evdw>  (1) 
-20.185851894203022

>  <r_i_glide_gscore>  (1) 
-1.8712514304990946

>  <r_i_glide_gscore_strain>  (1) 
0

>  <r_i_glide_hbond>  (1) 
-0.32000000000000001

>  <r_i_glide_ligand_efficiency>  (1) 
-0.12475009536660631

>  <r_i_glide_ligand_efficiency_ln>  (1) 
-0.50464565715503773

>  <r_i_glide_ligand_efficiency_sa>  (1) 
-0.30766019146700213

>  <r_i_glide_lipo>  (1) 
-2.125882987183211

>  <r_i_glide_metal>  (1) 
-0

>  <r_i_glide_rewards>  (1) 
-2.2593151742179116

>  <r_lp_Energy>  (1) 
24.512706999999999

>  <r_lp_tautomer_probability>  (1) 
1

>  <s_epik_cmdline>  (1) 
J2VwaWtfcHl0aG9uJywgJy1waHQnLCAnMS4wJywgJy1waCcsICc3LjQnLCAnLXRuJywgJzgnLCAnLW1hJywgJzUwMCcsICctaW1hZScsICc8aW5maWxlLm1hZT4nLCAnLW9tYWUnLCAnPG91dGZpbGUubWFlPic=

>  <s_epik_input>  (1) 
W09IXVtDSDJdW0NIMl1bQ0gyXVtDSDJdW0NIMl1bQ0gyXVtDQEhdMVtDSDJdW0NIMl1bQ0gyXU4oW0NIM10pW0NAQEhdMVtDSDNd

>  <s_glide_docking_method>  (1) 
confgen

>  <s_i_glide_gridfile>  (1) 
gpcr_5ht2c_6bqh_protein_autoprepared_prepared

>  <s_lp_Force_Field>  (1) 
S-OPLS

>  <s_lp_Variant>  (1) 
DiffSBDD_16_num_sample_50-2

>  <s_m_source_file>  (1) 
generated__ligand_DiffSBDD_2026-05-06_prepared.sdf

>  <GenAI_Model>  (1) 
DiffSBDD

>  <Protein>  (1) 
GPCR_5HT2C

$$$$
DiffSBDD_0_num_sample_50
     RDKit          3D

  0  0  0  0  0  0  0  0  0  0999 V3000
M  V30 BEGIN CTAB
M  V30 COUNTS 65 69 0 0 1
M  V30 BEGIN ATOM
M  V30 1 C 41.692707 30.539481 64.830915 0
M  V30 2 C 40.607873 30.223201 63.991461 0
M  V30 3 C 38.789343 30.900638 62.349784 0
M  V30 4 S 38.267404 27.621428 51.669891 0
M  V30 5 O 37.067425 26.918437 54.283137 0
M  V30 6 C 40.495162 29.180453 59.338233 0
M  V30 7 C 37.704042 26.013222 57.752503 0
M  V30 8 C 40.413914 32.573636 63.357909 0
M  V30 9 C 39.839733 29.277419 60.711085 0
M  V30 10 C 40.007337 29.588090 49.762953 0
M  V30 11 C 39.893696 29.654135 51.971419 0
M  V30 12 F 43.176124 32.174565 65.750593 0
M  V30 13 C 41.498148 32.888398 64.200678 0
M  V30 14 C 40.294185 30.821431 51.542593 0
M  V30 15 C 39.731388 28.532098 50.891066 0 CFG=1
M  V30 16 C 37.867391 30.705694 55.613204 0
M  V30 17 C 39.369696 27.231110 56.184514 0
M  V30 18 O 37.077946 30.817324 54.653504 0
M  V30 19 C 37.952415 27.759049 54.376802 0
M  V30 20 C 39.867403 24.924682 57.092927 0
M  V30 21 C 37.851818 29.349078 56.357016 0 CFG=2
M  V30 22 C 39.224968 30.666044 60.894981 0 CFG=1
M  V30 23 C 38.759728 25.877440 56.648613 0
M  V30 24 N 38.530501 30.643255 58.479745 0 CFG=2 CHG=1
M  V30 25 C 39.467403 29.370273 53.248068 0
M  V30 26 C 38.339249 29.344050 57.834115 0 CFG=2
M  V30 27 C 38.655309 28.352874 53.240367 0
M  V30 28 N 38.412893 28.191464 55.575572 0
M  V30 29 C 39.703568 29.802452 58.190455 0 CFG=2
M  V30 30 C 39.965042 31.239940 63.253730 0
M  V30 31 O 38.687728 31.579534 55.975862 0 CHG=-1
M  V30 32 C 38.071377 30.814216 59.883562 0
M  V30 33 C 42.136309 31.871334 64.937914 0
M  V30 34 C 40.366887 30.787036 50.184422 0
M  V30 35 H 42.183425 29.759952 65.395446 0
M  V30 36 H 40.267426 29.200485 63.914128 0
M  V30 37 H 38.078285 31.725625 62.400211 0
M  V30 38 H 38.267397 30.023499 62.731534 0
M  V30 39 H 40.706403 28.136550 59.106159 0
M  V30 40 H 41.467400 29.664306 59.376725 0
M  V30 41 H 38.147581 26.417930 58.660789 0
M  V30 42 H 36.880819 26.659009 57.447354 0
M  V30 43 H 37.274620 25.041829 58.001548 0
M  V30 44 H 39.924134 33.355345 62.794819 0
M  V30 45 H 39.074095 28.508421 60.821458 0
M  V30 46 H 40.593695 29.070449 61.470391 0
M  V30 47 H 39.952825 29.309981 48.722041 0
M  V30 48 H 41.839518 33.910092 64.283328 0
M  V30 49 H 40.408099 31.699256 52.151449 0
M  V30 50 H 40.598669 27.882894 50.934073 0
M  V30 51 H 40.129424 27.010464 55.429941 0
M  V30 52 H 39.965776 27.650942 56.982678 0
M  V30 53 H 40.392196 25.295490 57.973008 0
M  V30 54 H 39.470873 23.935697 57.325833 0
M  V30 55 H 40.591374 24.820778 56.285595 0
M  V30 56 H 36.785047 29.221429 56.473091 0
M  V30 57 H 39.969846 31.427014 60.653536 0
M  V30 58 H 38.281431 25.384895 55.802910 0
M  V30 59 H 39.743679 29.938324 54.118810 0
M  V30 60 H 37.839612 28.650303 58.503377 0
M  V30 61 H 40.267403 30.184157 57.351972 0
M  V30 62 H 37.264611 30.116886 60.112224 0
M  V30 63 H 37.637889 31.811772 59.961765 0
M  V30 64 H 40.617196 31.621429 49.549734 0
M  V30 65 H 38.399747 31.402943 57.811874 0
M  V30 END ATOM
M  V30 BEGIN BOND
M  V30 1 2 2 1
M  V30 2 1 9 6
M  V30 3 1 13 8
M  V30 4 2 14 11
M  V30 5 1 15 4
M  V30 6 1 15 10
M  V30 7 1 15 11
M  V30 8 2 18 16
M  V30 9 2 19 5
M  V30 10 1 21 16
M  V30 11 1 22 3
M  V30 12 1 22 9
M  V30 13 1 23 7
M  V30 14 1 23 17
M  V30 15 1 23 20
M  V30 16 1 25 11
M  V30 17 1 26 21
M  V30 18 1 26 24
M  V30 19 1 27 4
M  V30 20 1 27 19
M  V30 21 2 27 25
M  V30 22 1 28 17
M  V30 23 1 28 19
M  V30 24 1 28 21
M  V30 25 1 29 6
M  V30 26 1 29 24
M  V30 27 1 29 26
M  V30 28 1 30 2
M  V30 29 1 30 3
M  V30 30 2 30 8
M  V30 31 1 31 16
M  V30 32 1 32 22
M  V30 33 1 32 24
M  V30 34 1 33 1
M  V30 35 1 33 12
M  V30 36 2 33 13
M  V30 37 2 34 10
M  V30 38 1 34 14
M  V30 39 1 35 1
M  V30 40 1 36 2
M  V30 41 1 37 3
M  V30 42 1 38 3
M  V30 43 1 39 6
M  V30 44 1 40 6
M  V30 45 1 41 7
M  V30 46 1 42 7
M  V30 47 1 43 7
M  V30 48 1 44 8
M  V30 49 1 45 9
M  V30 50 1 46 9
M  V30 51 1 47 10
M  V30 52 1 48 13
M  V30 53 1 49 14
M  V30 54 1 15 50 CFG=1
M  V30 55 1 51 17
M  V30 56 1 52 17
M  V30 57 1 53 20
M  V30 58 1 54 20
M  V30 59 1 55 20
M  V30 60 1 21 56 CFG=1
M  V30 61 1 22 57 CFG=3
M  V30 62 1 58 23
M  V30 63 1 59 25
M  V30 64 1 26 60 CFG=1
M  V30 65 1 29 61 CFG=3
M  V30 66 1 62 32
M  V30 67 1 63 32
M  V30 68 1 64 34
M  V30 69 1 24 65 CFG=3
M  V30 END BOND
M  V30 END CTAB
M  END
>  <i_epik_Tot_Q>  (1) 
0

>  <i_epik_Tot_abs_Q>  (1) 
2

>  <i_i_glide_confnum>  (1) 
41

>  <i_i_glide_lignum>  (1) 
4

>  <i_i_glide_posenum>  (1) 
11

>  <i_i_glide_rotatable_bonds>  (1) 
9

>  <i_lp_mmshare_version>  (1) 
72125

>  <i_m_source_file_index>  (1) 
1

>  <i_f3d_flags>  (1) 
0

>  <num_sample>  (1) 
50

>  <b_lp_Chiralities_Consistent>  (1) 
1

>  <r_epik_Charging_Adjusted_Penalty>  (1) 
0.0020295482604282666

>  <r_epik_Ionization_Penalty>  (1) 
0.0020295482639142975

>  <r_epik_Ionization_Penalty_Charging>  (1) 
0.0020295482604282666

>  <r_epik_Ionization_Penalty_Neutral>  (1) 
3.4860309872641501e-12

>  <r_epik_State_Penalty>  (1) 
-0

>  <r_glide_ring_energy>  (1) 
0

>  <r_i_docking_score>  (1) 
-1.8187303850556296

>  <r_i_glide_ecoul>  (1) 
-1.1268612096346506

>  <r_i_glide_eff_state_penalty>  (1) 
-0

>  <r_i_glide_einternal>  (1) 
17.603264393434134

>  <r_i_glide_emodel>  (1) 
-33.269381643559498

>  <r_i_glide_emodel_strain>  (1) 
3.8103826854373324

>  <r_i_glide_energy>  (1) 
-38.850784303947115

>  <r_i_glide_erotb>  (1) 
0.52278502944784222

>  <r_i_glide_esite>  (1) 
-0.10607820178014976

>  <r_i_glide_evdw>  (1) 
-37.723923094312468

>  <r_i_glide_gscore>  (1) 
-1.8187303850556296

>  <r_i_glide_gscore_strain>  (1) 
0

>  <r_i_glide_hbond>  (1) 
0

>  <r_i_glide_ligand_efficiency>  (1) 
-0.05349207014869499

>  <r_i_glide_ligand_efficiency_ln>  (1) 
-0.40180855571814161

>  <r_i_glide_ligand_efficiency_sa>  (1) 
-0.17329354172847528

>  <r_i_glide_lipo>  (1) 
-4.8158614140012999

>  <r_i_glide_metal>  (1) 
-0

>  <r_i_glide_rewards>  (1) 
4.6356495374388

>  <r_lp_Energy>  (1) 
54.523967999999996

>  <r_lp_tautomer_probability>  (1) 
1

>  <s_epik_cmdline>  (1) 
J2VwaWtfcHl0aG9uJywgJy1waHQnLCAnMS4wJywgJy1waCcsICc3LjQnLCAnLXRuJywgJzgnLCAnLW1hJywgJzUwMCcsICctaW1hZScsICc8aW5maWxlLm1hZT4nLCAnLW9tYWUnLCAnPG91dGZpbGUubWFlPic=

>  <s_epik_input>  (1) 
W2NIXTFbY0hdYyhGKVtjSF1bY0hdYzFbQ0gyXVtDQEhdKFtDSDJdMilbQ0gyXVtDSDJdW0NIXShOMjMpW0NAQEhdM1tDQEBIXShDKD1PKVtPSF0pTihbQ0gyXVtDSF0oW0NIM10pW0NIM10pQyg9TylDKD1bQ0hdNClTW0NASF0oQzQ9NSlbQ0hdPVtDSF1bQ0hdNQ==

>  <s_glide_docking_method>  (1) 
confgen

>  <s_i_glide_gridfile>  (1) 
gpcr_5ht2c_6bqh_protein_autoprepared_prepared

>  <s_lp_Force_Field>  (1) 
S-OPLS

>  <s_lp_Variant>  (1) 
DiffSBDD_0_num_sample_50-4

>  <s_m_source_file>  (1) 
generated__ligand_DiffSBDD_2026-05-06_prepared.sdf

>  <GenAI_Model>  (1) 
DiffSBDD

>  <Protein>  (1) 
GPCR_5HT2C

$$$$
DiffSBDD_1_num_sample_50
     RDKit          3D

  0  0  0  0  0  0  0  0  0  0999 V3000
M  V30 BEGIN CTAB
M  V30 COUNTS 31 30 0 0 1
M  V30 BEGIN ATOM
M  V30 1 C 40.263045 30.000571 50.149997 0
M  V30 2 C 40.116249 29.168909 51.430023 0
M  V30 3 C 37.676158 29.509305 54.324173 0
M  V30 4 C 38.662068 28.339177 54.138532 0
M  V30 5 N 37.867403 32.841678 57.005590 0 CHG=1
M  V30 6 C 38.546576 27.608495 52.786086 0
M  V30 7 C 38.745640 28.478562 51.531104 0
M  V30 8 C 38.890849 30.859803 55.934860 0
M  V30 9 N 37.722036 30.021429 55.689200 0
M  V30 10 C 38.548522 32.349337 55.799279 0
M  V30 11 H 41.242421 30.478320 50.103848 0
M  V30 12 H 40.153207 29.378347 49.261300 0
M  V30 13 H 39.508416 30.786385 50.101692 0
M  V30 14 H 40.267410 29.821267 52.289890 0
M  V30 15 H 40.909114 28.421429 51.455376 0
M  V30 16 H 36.667404 29.147710 54.134726 0
M  V30 17 H 37.867429 30.311832 53.611615 0
M  V30 18 H 39.683782 28.682809 54.278451 0
M  V30 19 H 38.491909 27.607753 54.929937 0
M  V30 20 H 37.749556 33.842468 56.946758 0
M  V30 21 H 36.931358 32.421429 57.053501 0
M  V30 22 H 39.268233 26.791144 52.766024 0
M  V30 23 H 37.565205 27.135890 52.725972 0
M  V30 24 H 38.611154 27.845641 50.653504 0
M  V30 25 H 37.953133 29.221429 51.481097 0
M  V30 26 H 39.265628 30.654476 56.938340 0
M  V30 27 H 39.704673 30.608557 55.255008 0
M  V30 28 H 36.863090 30.513278 55.923391 0
M  V30 29 H 39.467626 32.922801 55.684308 0
M  V30 30 H 37.939859 32.547772 54.915285 0
M  V30 31 H 38.387540 32.600134 57.834836 0
M  V30 END ATOM
M  V30 BEGIN BOND
M  V30 1 1 2 1
M  V30 2 1 4 3
M  V30 3 1 6 4
M  V30 4 1 7 2
M  V30 5 1 7 6
M  V30 6 1 9 3
M  V30 7 1 9 8
M  V30 8 1 10 5
M  V30 9 1 10 8
M  V30 10 1 11 1
M  V30 11 1 12 1
M  V30 12 1 13 1
M  V30 13 1 14 2
M  V30 14 1 15 2
M  V30 15 1 16 3
M  V30 16 1 17 3
M  V30 17 1 18 4
M  V30 18 1 19 4
M  V30 19 1 20 5
M  V30 20 1 21 5
M  V30 21 1 22 6
M  V30 22 1 23 6
M  V30 23 1 24 7
M  V30 24 1 25 7
M  V30 25 1 26 8
M  V30 26 1 27 8
M  V30 27 1 28 9
M  V30 28 1 29 10
M  V30 29 1 30 10
M  V30 30 1 31 5
M  V30 END BOND
M  V30 END CTAB
M  END
>  <i_epik_Tot_Q>  (1) 
1

>  <i_epik_Tot_abs_Q>  (1) 
1

>  <i_i_glide_confnum>  (1) 
124

>  <i_i_glide_lignum>  (1) 
7

>  <i_i_glide_posenum>  (1) 
352

>  <i_i_glide_rotatable_bonds>  (1) 
7

>  <i_lp_mmshare_version>  (1) 
72125

>  <i_m_source_file_index>  (1) 
2

>  <i_f3d_flags>  (1) 
0

>  <num_sample>  (1) 
50

>  <b_lp_Chiralities_Consistent>  (1) 
1

>  <r_epik_Charging_Adjusted_Penalty>  (1) 
1.0612563953721996

>  <r_epik_Ionization_Penalty>  (1) 
0.52166343856135999

>  <r_epik_Ionization_Penalty_Charging>  (1) 
0.0055980972851356293

>  <r_epik_Ionization_Penalty_Neutral>  (1) 
0.51606534127622439

>  <r_epik_State_Penalty>  (1) 
1.0556582980870639

>  <r_glide_ring_energy>  (1) 
0

>  <r_i_docking_score>  (1) 
-1.8150972267248491

>  <r_i_glide_ecoul>  (1) 
-5.67188746313834

>  <r_i_glide_eff_state_penalty>  (1) 
1.0556582980870639

>  <r_i_glide_einternal>  (1) 
9.7468786588262066

>  <r_i_glide_emodel>  (1) 
-25.665990364902868

>  <r_i_glide_emodel_strain>  (1) 
0.031864497040031914

>  <r_i_glide_energy>  (1) 
-23.778645131085327

>  <r_i_glide_erotb>  (1) 
3.4380790968712875

>  <r_i_glide_esite>  (1) 
-0.10000000000000001

>  <r_i_glide_evdw>  (1) 
-18.106757667946987

>  <r_i_glide_gscore>  (1) 
-2.870755524811913

>  <r_i_glide_gscore_strain>  (1) 
0

>  <r_i_glide_hbond>  (1) 
-0.28613471242515343

>  <r_i_glide_ligand_efficiency>  (1) 
-0.18150972267248491

>  <r_i_glide_ligand_efficiency_ln>  (1) 
-0.5495989279959248

>  <r_i_glide_ligand_efficiency_sa>  (1) 
-0.39105084310366822

>  <r_i_glide_lipo>  (1) 
-1.7151779001285252

>  <r_i_glide_metal>  (1) 
-0

>  <r_i_glide_rewards>  (1) 
-2.4514010062614204

>  <r_lp_Energy>  (1) 
8.789769999999999

>  <s_epik_cmdline>  (1) 
J2VwaWtfcHl0aG9uJywgJy1waHQnLCAnMS4wJywgJy1waCcsICc3LjQnLCAnLXRuJywgJzgnLCAnLW1hJywgJzUwMCcsICctaW1hZScsICc8aW5maWxlLm1hZT4nLCAnLW9tYWUnLCAnPG91dGZpbGUubWFlPic=

>  <s_epik_input>  (1) 
W0NIM11bQ0gyXVtDSDJdW0NIMl1bQ0gyXVtDSDJdW05IXVtDSDJdW0NIMl1bTkgyXQ==

>  <s_glide_docking_method>  (1) 
confgen

>  <s_i_glide_gridfile>  (1) 
gpcr_5ht2c_6bqh_protein_autoprepared_prepared

>  <s_lp_Force_Field>  (1) 
S-OPLS

>  <s_lp_Variant>  (1) 
DiffSBDD_1_num_sample_50-3

>  <s_m_source_file>  (1) 
generated__ligand_DiffSBDD_2026-05-06_prepared.sdf

>  <GenAI_Model>  (1) 
DiffSBDD

>  <Protein>  (1) 
GPCR_5HT2C

$$$$
DiffSBDD_0_num_sample_50
     RDKit          3D

  0  0  0  0  0  0  0  0  0  0999 V3000
M  V30 BEGIN CTAB
M  V30 COUNTS 65 69 0 0 1
M  V30 BEGIN ATOM
M  V30 1 C 39.883064 29.893877 51.426991 0
M  V30 2 C 39.254618 29.619779 52.636461 0
M  V30 3 C 37.896097 28.081912 54.151794 0
M  V30 4 S 39.457678 33.737298 60.259430 0
M  V30 5 O 38.276063 30.764125 62.599101 0
M  V30 6 C 39.379463 30.724488 56.345068 0
M  V30 7 C 36.257053 34.064056 58.899266 0
M  V30 8 C 38.661154 27.392787 51.851568 0
M  V30 9 C 38.209787 30.072125 55.631463 0
M  V30 10 C 40.776468 36.409564 61.664260 0
M  V30 11 C 40.194694 34.537331 62.683854 0
M  V30 12 F 40.485228 29.225899 49.233658 0
M  V30 13 C 39.305824 27.667647 50.638202 0
M  V30 14 C 40.267955 35.499502 63.576215 0
M  V30 15 C 40.642211 34.896064 61.224321 0 CFG=1
M  V30 16 C 40.094982 29.202259 60.512651 0
M  V30 17 C 37.215503 31.735052 59.469726 0
M  V30 18 O 40.336067 28.001979 60.286720 0
M  V30 19 C 38.542998 31.486390 61.644465 0
M  V30 20 C 36.090694 33.377087 61.281604 0
M  V30 21 C 38.743414 29.747107 59.965302 0 CFG=2
M  V30 22 C 38.695374 28.647778 55.319477 0 CFG=1
M  V30 23 C 36.184987 32.857704 59.851716 0
M  V30 24 N 39.392075 28.521540 57.747151 0 CFG=2 CHG=1
M  V30 25 C 39.627149 33.302143 62.883741 0
M  V30 26 C 38.604579 29.535391 58.454722 0 CFG=2
M  V30 27 C 39.233350 32.774487 61.764118 0
M  V30 28 N 38.261696 31.122741 60.368809 0
M  V30 29 C 39.733616 29.941950 57.597768 0 CFG=2
M  V30 30 C 38.615955 28.372019 52.848570 0
M  V30 31 O 40.925460 30.011888 60.966423 0 CHG=-1
M  V30 32 C 38.717145 27.804445 56.618025 0
M  V30 33 C 39.899282 28.936718 50.418783 0
M  V30 34 C 40.611079 36.647267 62.950849 0
M  V30 35 H 40.360110 30.847668 51.273341 0
M  V30 36 H 39.257521 30.371491 53.395091 0
M  V30 37 H 37.802956 27.007297 54.244853 0
M  V30 38 H 36.884709 28.494693 54.136041 0
M  V30 39 H 39.193156 31.769777 56.605157 0
M  V30 40 H 40.228751 30.771553 55.661604 0
M  V30 41 H 37.055029 34.751427 59.188346 0
M  V30 42 H 36.435996 33.758628 57.872333 0
M  V30 43 H 35.322235 34.627355 58.910755 0
M  V30 44 H 38.193996 26.428111 52.015568 0
M  V30 45 H 37.263756 30.071301 56.174191 0
M  V30 46 H 37.940745 30.670529 54.775567 0
M  V30 47 H 41.055332 37.173725 60.969206 0
M  V30 48 H 39.327357 26.917274 49.859325 0
M  V30 49 H 39.967322 35.423099 64.603769 0
M  V30 50 H 41.646070 34.509798 61.093642 0
M  V30 51 H 37.741442 32.061006 58.581050 0
M  V30 52 H 36.564103 30.946096 59.107636 0
M  V30 53 H 36.911784 34.056344 61.505051 0
M  V30 54 H 35.167161 33.941013 61.411226 0
M  V30 55 H 36.092687 32.555768 61.986670 0
M  V30 56 H 37.985252 29.098635 60.384571 0
M  V30 57 H 39.732880 28.661252 54.983895 0
M  V30 58 H 35.210266 32.402773 59.652020 0
M  V30 59 H 39.477079 32.845131 63.853542 0
M  V30 60 H 37.587428 29.474508 58.086368 0
M  V30 61 H 40.714053 30.021428 58.023852 0
M  V30 62 H 37.707220 27.545165 56.914720 0
M  V30 63 H 39.218868 26.842577 56.449078 0
M  V30 64 H 40.680874 37.619550 63.418077 0
M  V30 65 H 39.919769 28.001846 58.450131 0
M  V30 END ATOM
M  V30 BEGIN BOND
M  V30 1 2 2 1
M  V30 2 1 9 6
M  V30 3 1 13 8
M  V30 4 2 14 11
M  V30 5 1 15 4
M  V30 6 1 15 10
M  V30 7 1 15 11
M  V30 8 2 18 16
M  V30 9 2 19 5
M  V30 10 1 21 16
M  V30 11 1 22 3
M  V30 12 1 22 9
M  V30 13 1 23 7
M  V30 14 1 23 17
M  V30 15 1 23 20
M  V30 16 1 25 11
M  V30 17 1 26 21
M  V30 18 1 26 24
M  V30 19 1 27 4
M  V30 20 1 27 19
M  V30 21 2 27 25
M  V30 22 1 28 17
M  V30 23 1 28 19
M  V30 24 1 28 21
M  V30 25 1 29 6
M  V30 26 1 29 24
M  V30 27 1 29 26
M  V30 28 1 30 2
M  V30 29 1 30 3
M  V30 30 2 30 8
M  V30 31 1 31 16
M  V30 32 1 32 22
M  V30 33 1 32 24
M  V30 34 1 33 1
M  V30 35 1 33 12
M  V30 36 2 33 13
M  V30 37 2 34 10
M  V30 38 1 34 14
M  V30 39 1 35 1
M  V30 40 1 36 2
M  V30 41 1 37 3
M  V30 42 1 38 3
M  V30 43 1 39 6
M  V30 44 1 40 6
M  V30 45 1 41 7
M  V30 46 1 42 7
M  V30 47 1 43 7
M  V30 48 1 44 8
M  V30 49 1 45 9
M  V30 50 1 46 9
M  V30 51 1 47 10
M  V30 52 1 48 13
M  V30 53 1 49 14
M  V30 54 1 15 50 CFG=1
M  V30 55 1 51 17
M  V30 56 1 52 17
M  V30 57 1 53 20
M  V30 58 1 54 20
M  V30 59 1 55 20
M  V30 60 1 21 56 CFG=1
M  V30 61 1 22 57 CFG=3
M  V30 62 1 58 23
M  V30 63 1 59 25
M  V30 64 1 26 60 CFG=3
M  V30 65 1 29 61 CFG=1
M  V30 66 1 62 32
M  V30 67 1 63 32
M  V30 68 1 64 34
M  V30 69 1 24 65 CFG=1
M  V30 END BOND
M  V30 END CTAB
M  END
>  <i_epik_Tot_Q>  (1) 
0

>  <i_epik_Tot_abs_Q>  (1) 
2

>  <i_i_glide_confnum>  (1) 
117

>  <i_i_glide_lignum>  (1) 
4

>  <i_i_glide_posenum>  (1) 
329

>  <i_i_glide_rotatable_bonds>  (1) 
9

>  <i_lp_mmshare_version>  (1) 
72125

>  <i_m_source_file_index>  (1) 
1

>  <i_f3d_flags>  (1) 
0

>  <num_sample>  (1) 
50

>  <b_lp_Chiralities_Consistent>  (1) 
1

>  <r_epik_Charging_Adjusted_Penalty>  (1) 
0.0020295482604282666

>  <r_epik_Ionization_Penalty>  (1) 
0.0020295482639142975

>  <r_epik_Ionization_Penalty_Charging>  (1) 
0.0020295482604282666

>  <r_epik_Ionization_Penalty_Neutral>  (1) 
3.4860309872641501e-12

>  <r_epik_State_Penalty>  (1) 
-0

>  <r_glide_ring_energy>  (1) 
0

>  <r_i_docking_score>  (1) 
-1.7926600948126765

>  <r_i_glide_ecoul>  (1) 
-5.4482816539199534

>  <r_i_glide_eff_state_penalty>  (1) 
-0

>  <r_i_glide_einternal>  (1) 
11.936695847442213

>  <r_i_glide_emodel>  (1) 
-23.667674650872748

>  <r_i_glide_emodel_strain>  (1) 
12.86549361264241

>  <r_i_glide_energy>  (1) 
-35.571683114876777

>  <r_i_glide_erotb>  (1) 
0.52278502944784222

>  <r_i_glide_esite>  (1) 
0

>  <r_i_glide_evdw>  (1) 
-30.123401460956821

>  <r_i_glide_gscore>  (1) 
-1.7926600948126765

>  <r_i_glide_gscore_strain>  (1) 
2.2163734031606026

>  <r_i_glide_hbond>  (1) 
-0.2320450818425692

>  <r_i_glide_ligand_efficiency>  (1) 
-0.052725296906255194

>  <r_i_glide_ligand_efficiency_ln>  (1) 
-0.39604889735660093

>  <r_i_glide_ligand_efficiency_sa>  (1) 
-0.17080949408336352

>  <r_i_glide_lipo>  (1) 
-4.0818688351354009

>  <r_i_glide_metal>  (1) 
-0

>  <r_i_glide_rewards>  (1) 
2.1055077106926836

>  <r_lp_Energy>  (1) 
54.523967999999996

>  <r_lp_tautomer_probability>  (1) 
1

>  <s_epik_cmdline>  (1) 
J2VwaWtfcHl0aG9uJywgJy1waHQnLCAnMS4wJywgJy1waCcsICc3LjQnLCAnLXRuJywgJzgnLCAnLW1hJywgJzUwMCcsICctaW1hZScsICc8aW5maWxlLm1hZT4nLCAnLW9tYWUnLCAnPG91dGZpbGUubWFlPic=

>  <s_epik_input>  (1) 
W2NIXTFbY0hdYyhGKVtjSF1bY0hdYzFbQ0gyXVtDQEhdKFtDSDJdMilbQ0gyXVtDSDJdW0NIXShOMjMpW0NAQEhdM1tDQEBIXShDKD1PKVtPSF0pTihbQ0gyXVtDSF0oW0NIM10pW0NIM10pQyg9TylDKD1bQ0hdNClTW0NASF0oQzQ9NSlbQ0hdPVtDSF1bQ0hdNQ==

>  <s_glide_docking_method>  (1) 
confgen

>  <s_i_glide_gridfile>  (1) 
gpcr_5ht2c_6bqh_protein_autoprepared_prepared

>  <s_lp_Force_Field>  (1) 
S-OPLS

>  <s_lp_Variant>  (1) 
DiffSBDD_0_num_sample_50-4

>  <s_m_source_file>  (1) 
generated__ligand_DiffSBDD_2026-05-06_prepared.sdf

>  <GenAI_Model>  (1) 
DiffSBDD

>  <Protein>  (1) 
GPCR_5HT2C

$$$$
DiffSBDD_1_num_sample_50
     RDKit          3D

  0  0  0  0  0  0  0  0  0  0999 V3000
M  V30 BEGIN CTAB
M  V30 COUNTS 31 30 0 0 1
M  V30 BEGIN ATOM
M  V30 1 C 40.011911 29.867080 49.764110 0
M  V30 2 C 40.816134 30.065288 51.048762 0
M  V30 3 C 39.161323 30.092483 55.250040 0
M  V30 4 C 38.234803 29.863112 54.040618 0
M  V30 5 N 37.466986 31.002131 57.857174 0 CHG=1
M  V30 6 C 38.986495 29.453859 52.760797 0
M  V30 7 C 39.976310 30.521979 52.251329 0
M  V30 8 C 38.402615 32.336500 55.984386 0
M  V30 9 N 39.472658 31.505249 55.444362 0
M  V30 10 C 38.267168 32.183856 57.506944 0
M  V30 11 H 40.678177 29.626289 48.937842 0
M  V30 12 H 39.297840 29.049062 49.858604 0
M  V30 13 H 39.467400 30.773123 49.496600 0
M  V30 14 H 41.590125 30.808761 50.854803 0
M  V30 15 H 41.335215 29.140951 51.300027 0
M  V30 16 H 40.098604 29.558160 55.092253 0
M  V30 17 H 38.735732 29.657361 56.150036 0
M  V30 18 H 37.542817 29.057975 54.290839 0
M  V30 19 H 37.606178 30.731638 53.852919 0
M  V30 20 H 37.419646 30.877191 58.856320 0
M  V30 21 H 36.518299 31.217297 57.496336 0
M  V30 22 H 39.512768 28.518473 52.946242 0
M  V30 23 H 38.258464 29.221736 51.983208 0
M  V30 24 H 39.467479 31.454016 52.010727 0
M  V30 25 H 40.657147 30.781426 53.059316 0
M  V30 26 H 38.681159 33.369622 55.771787 0
M  V30 27 H 37.456221 32.173241 55.472048 0
M  V30 28 H 40.321860 31.621562 55.981845 0
M  V30 29 H 39.245584 32.145244 57.983248 0
M  V30 30 H 37.752662 33.055725 57.913783 0
M  V30 31 H 37.824649 30.179262 57.400151 0
M  V30 END ATOM
M  V30 BEGIN BOND
M  V30 1 1 2 1
M  V30 2 1 4 3
M  V30 3 1 6 4
M  V30 4 1 7 2
M  V30 5 1 7 6
M  V30 6 1 9 3
M  V30 7 1 9 8
M  V30 8 1 10 5
M  V30 9 1 10 8
M  V30 10 1 11 1
M  V30 11 1 12 1
M  V30 12 1 13 1
M  V30 13 1 14 2
M  V30 14 1 15 2
M  V30 15 1 16 3
M  V30 16 1 17 3
M  V30 17 1 18 4
M  V30 18 1 19 4
M  V30 19 1 20 5
M  V30 20 1 21 5
M  V30 21 1 22 6
M  V30 22 1 23 6
M  V30 23 1 24 7
M  V30 24 1 25 7
M  V30 25 1 26 8
M  V30 26 1 27 8
M  V30 27 1 28 9
M  V30 28 1 29 10
M  V30 29 1 30 10
M  V30 30 1 31 5
M  V30 END BOND
M  V30 END CTAB
M  END
>  <i_epik_Tot_Q>  (1) 
1

>  <i_epik_Tot_abs_Q>  (1) 
1

>  <i_i_glide_confnum>  (1) 
208

>  <i_i_glide_lignum>  (1) 
7

>  <i_i_glide_posenum>  (1) 
106

>  <i_i_glide_rotatable_bonds>  (1) 
7

>  <i_lp_mmshare_version>  (1) 
72125

>  <i_m_source_file_index>  (1) 
2

>  <i_f3d_flags>  (1) 
0

>  <num_sample>  (1) 
50

>  <b_lp_Chiralities_Consistent>  (1) 
1

>  <r_epik_Charging_Adjusted_Penalty>  (1) 
1.0612563953721996

>  <r_epik_Ionization_Penalty>  (1) 
0.52166343856135999

>  <r_epik_Ionization_Penalty_Charging>  (1) 
0.0055980972851356293

>  <r_epik_Ionization_Penalty_Neutral>  (1) 
0.51606534127622439

>  <r_epik_State_Penalty>  (1) 
1.0556582980870639

>  <r_glide_ring_energy>  (1) 
0

>  <r_i_docking_score>  (1) 
-1.7677882543469445

>  <r_i_glide_ecoul>  (1) 
-7.1269387772970969

>  <r_i_glide_eff_state_penalty>  (1) 
1.0556582980870639

>  <r_i_glide_einternal>  (1) 
7.042053353789087

>  <r_i_glide_emodel>  (1) 
-25.87577171312698

>  <r_i_glide_emodel_strain>  (1) 
0.0076812734806974703

>  <r_i_glide_energy>  (1) 
-22.723770907443338

>  <r_i_glide_erotb>  (1) 
3.4380790968712875

>  <r_i_glide_esite>  (1) 
-0.10000000000000001

>  <r_i_glide_evdw>  (1) 
-15.596832130146243

>  <r_i_glide_gscore>  (1) 
-2.8234465524340084

>  <r_i_glide_gscore_strain>  (1) 
0

>  <r_i_glide_hbond>  (1) 
-0.1616102871993797

>  <r_i_glide_ligand_efficiency>  (1) 
-0.17677882543469445

>  <r_i_glide_ligand_efficiency_ln>  (1) 
-0.53527409728126318

>  <r_i_glide_ligand_efficiency_sa>  (1) 
-0.38085843397959646

>  <r_i_glide_lipo>  (1) 
-1.5306612911327917

>  <r_i_glide_metal>  (1) 
-0

>  <r_i_glide_rewards>  (1) 
-2.6203716478712482

>  <r_lp_Energy>  (1) 
8.789769999999999

>  <s_epik_cmdline>  (1) 
J2VwaWtfcHl0aG9uJywgJy1waHQnLCAnMS4wJywgJy1waCcsICc3LjQnLCAnLXRuJywgJzgnLCAnLW1hJywgJzUwMCcsICctaW1hZScsICc8aW5maWxlLm1hZT4nLCAnLW9tYWUnLCAnPG91dGZpbGUubWFlPic=

>  <s_epik_input>  (1) 
W0NIM11bQ0gyXVtDSDJdW0NIMl1bQ0gyXVtDSDJdW05IXVtDSDJdW0NIMl1bTkgyXQ==

>  <s_glide_docking_method>  (1) 
confgen

>  <s_i_glide_gridfile>  (1) 
gpcr_5ht2c_6bqh_protein_autoprepared_prepared

>  <s_lp_Force_Field>  (1) 
S-OPLS

>  <s_lp_Variant>  (1) 
DiffSBDD_1_num_sample_50-3

>  <s_m_source_file>  (1) 
generated__ligand_DiffSBDD_2026-05-06_prepared.sdf

>  <GenAI_Model>  (1) 
DiffSBDD

>  <Protein>  (1) 
GPCR_5HT2C

$$$$
DiffSBDD_16_num_sample_50
     RDKit          3D

  0  0  0  0  0  0  0  0  0  0999 V3000
M  V30 BEGIN CTAB
M  V30 COUNTS 43 43 0 0 1
M  V30 BEGIN ATOM
M  V30 1 C 38.220310 28.356833 57.667639 0
M  V30 2 C 40.025625 26.520961 57.472338 0
M  V30 3 C 37.556970 24.498119 55.177498 0
M  V30 4 C 37.927331 31.991533 59.030404 0
M  V30 5 C 38.378071 30.530542 58.972156 0
M  V30 6 C 39.715948 28.028074 57.496575 0
M  V30 7 C 37.864002 29.862696 57.683428 0 CFG=1
M  V30 8 O 36.392513 23.753798 55.453545 0
M  V30 9 N 37.867404 32.092112 56.542386 0 CFG=1 CHG=1
M  V30 10 C 39.481656 25.785387 56.232868 0
M  V30 11 C 38.170520 25.019732 56.482233 0
M  V30 12 C 38.295979 30.664216 56.415516 0 CFG=2
M  V30 13 C 38.374522 32.747534 57.774054 0
M  V30 14 C 37.734188 30.018241 55.125905 0
M  V30 15 C 38.123760 32.932241 55.347649 0
M  V30 16 H 37.646914 27.869894 56.882352 0
M  V30 17 H 37.867401 27.901864 58.593212 0
M  V30 18 H 39.685384 26.039503 58.390168 0
M  V30 19 H 41.111036 26.421396 57.475577 0
M  V30 20 H 38.267379 23.863453 54.653496 0
M  V30 21 H 37.303990 25.324271 54.511788 0
M  V30 22 H 36.840130 32.037598 59.116653 0
M  V30 23 H 38.329687 32.473755 59.921911 0
M  V30 24 H 38.000307 29.999784 59.847002 0
M  V30 25 H 39.465717 30.475509 59.024247 0
M  V30 26 H 40.282651 28.474374 58.313507 0
M  V30 27 H 40.102133 28.478575 56.582396 0
M  V30 28 H 36.773386 29.907870 57.726308 0
M  V30 29 H 36.002076 23.486022 54.635093 0
M  V30 30 H 40.231384 25.070603 55.891435 0
M  V30 31 H 39.356039 26.492002 55.411435 0
M  V30 32 H 37.442460 25.653586 56.986630 0
M  V30 33 H 38.364860 24.186375 57.159345 0
M  V30 34 H 39.384714 30.662134 56.348503 0
M  V30 35 H 37.992033 33.767840 57.827980 0
M  V30 36 H 39.462374 32.821236 57.732559 0
M  V30 37 H 38.040716 28.978640 55.022750 0
M  V30 38 H 36.643679 30.046241 55.112145 0
M  V30 39 H 38.096049 30.509929 54.223919 0
M  V30 40 H 39.171807 32.880951 55.053689 0
M  V30 41 H 37.504723 32.628131 54.504033 0
M  V30 42 H 37.874452 33.976138 55.541754 0
M  V30 43 H 36.845093 32.045534 56.653507 0
M  V30 END ATOM
M  V30 BEGIN BOND
M  V30 1 1 5 4
M  V30 2 1 6 1
M  V30 3 1 6 2
M  V30 4 1 7 1
M  V30 5 1 7 5
M  V30 6 1 8 3
M  V30 7 1 10 2
M  V30 8 1 11 3
M  V30 9 1 11 10
M  V30 10 1 12 7
M  V30 11 1 12 9
M  V30 12 1 13 4
M  V30 13 1 13 9
M  V30 14 1 14 12
M  V30 15 1 15 9
M  V30 16 1 16 1
M  V30 17 1 17 1
M  V30 18 1 18 2
M  V30 19 1 19 2
M  V30 20 1 20 3
M  V30 21 1 21 3
M  V30 22 1 22 4
M  V30 23 1 23 4
M  V30 24 1 24 5
M  V30 25 1 25 5
M  V30 26 1 26 6
M  V30 27 1 27 6
M  V30 28 1 7 28 CFG=1
M  V30 29 1 29 8
M  V30 30 1 30 10
M  V30 31 1 31 10
M  V30 32 1 32 11
M  V30 33 1 33 11
M  V30 34 1 12 34 CFG=3
M  V30 35 1 35 13
M  V30 36 1 36 13
M  V30 37 1 37 14
M  V30 38 1 38 14
M  V30 39 1 39 14
M  V30 40 1 40 15
M  V30 41 1 41 15
M  V30 42 1 42 15
M  V30 43 1 9 43 CFG=1
M  V30 END BOND
M  V30 END CTAB
M  END
>  <i_epik_Tot_Q>  (1) 
1

>  <i_epik_Tot_abs_Q>  (1) 
1

>  <i_i_glide_confnum>  (1) 
137

>  <i_i_glide_lignum>  (1) 
46

>  <i_i_glide_posenum>  (1) 
63

>  <i_i_glide_rotatable_bonds>  (1) 
7

>  <i_lp_mmshare_version>  (1) 
72125

>  <i_m_source_file_index>  (1) 
17

>  <i_f3d_flags>  (1) 
0

>  <num_sample>  (1) 
50

>  <b_lp_Chiralities_Consistent>  (1) 
1

>  <r_epik_Charging_Adjusted_Penalty>  (1) 
0.0018248254832493158

>  <r_epik_Ionization_Penalty>  (1) 
0.0018251261234076507

>  <r_epik_Ionization_Penalty_Charging>  (1) 
0.0018248254832493158

>  <r_epik_Ionization_Penalty_Neutral>  (1) 
3.0064015833489429e-07

>  <r_epik_State_Penalty>  (1) 
-0

>  <r_glide_ring_energy>  (1) 
0

>  <r_i_docking_score>  (1) 
-1.7543006867709141

>  <r_i_glide_ecoul>  (1) 
-5.3916311249574091

>  <r_i_glide_eff_state_penalty>  (1) 
-0

>  <r_i_glide_einternal>  (1) 
7.2354200108404498

>  <r_i_glide_emodel>  (1) 
-27.326227085583465

>  <r_i_glide_emodel_strain>  (1) 
2.4926059499108533e-05

>  <r_i_glide_energy>  (1) 
-27.62160753382522

>  <r_i_glide_erotb>  (1) 
4.3624240847918374

>  <r_i_glide_esite>  (1) 
-0.10000000000000001

>  <r_i_glide_evdw>  (1) 
-22.22997640886781

>  <r_i_glide_gscore>  (1) 
-1.7543006867709141

>  <r_i_glide_gscore_strain>  (1) 
0

>  <r_i_glide_hbond>  (1) 
-0.19813738255309005

>  <r_i_glide_ligand_efficiency>  (1) 
-0.11695337911806095

>  <r_i_glide_ligand_efficiency_ln>  (1) 
-0.4731059698839708

>  <r_i_glide_ligand_efficiency_sa>  (1) 
-0.28843183571471098

>  <r_i_glide_lipo>  (1) 
-1.5225351041274988

>  <r_i_glide_metal>  (1) 
-0

>  <r_i_glide_rewards>  (1) 
-2.3758087956951601

>  <r_lp_Energy>  (1) 
22.823791999999997

>  <r_lp_tautomer_probability>  (1) 
1

>  <s_epik_cmdline>  (1) 
J2VwaWtfcHl0aG9uJywgJy1waHQnLCAnMS4wJywgJy1waCcsICc3LjQnLCAnLXRuJywgJzgnLCAnLW1hJywgJzUwMCcsICctaW1hZScsICc8aW5maWxlLm1hZT4nLCAnLW9tYWUnLCAnPG91dGZpbGUubWFlPic=

>  <s_epik_input>  (1) 
W09IXVtDSDJdW0NIMl1bQ0gyXVtDSDJdW0NIMl1bQ0gyXVtDQEhdMVtDSDJdW0NIMl1bQ0gyXU4oW0NIM10pW0NAQEhdMVtDSDNd

>  <s_glide_docking_method>  (1) 
confgen

>  <s_i_glide_gridfile>  (1) 
gpcr_5ht2c_6bqh_protein_autoprepared_prepared

>  <s_lp_Force_Field>  (1) 
S-OPLS

>  <s_lp_Variant>  (1) 
DiffSBDD_16_num_sample_50-1

>  <s_m_source_file>  (1) 
generated__ligand_DiffSBDD_2026-05-06_prepared.sdf

>  <GenAI_Model>  (1) 
DiffSBDD

>  <Protein>  (1) 
GPCR_5HT2C

$$$$
DiffSBDD_7_num_sample_50
     RDKit          3D

  0  0  0  0  0  0  0  0  0  0999 V3000
M  V30 BEGIN CTAB
M  V30 COUNTS 93 96 0 0 1
M  V30 BEGIN ATOM
M  V30 1 C 38.596102 26.439491 54.291464 0 CFG=1
M  V30 2 O 39.467535 31.143674 59.862007 0
M  V30 3 C 39.147254 29.675453 52.746902 0 CFG=1
M  V30 4 C 37.390352 34.182366 57.463263 0
M  V30 5 O 40.871262 26.021414 53.923815 0 CHG=-1
M  V30 6 N 35.966952 31.390519 61.252948 0
M  V30 7 S 41.104047 33.777313 61.669047 0
M  V30 8 N 41.947741 33.601599 65.284644 0
M  V30 9 N 38.223302 33.032099 57.145712 0 CFG=2 CHG=1
M  V30 10 S 40.777333 35.610704 64.100958 0
M  V30 11 C 37.168791 30.841242 61.486353 0
M  V30 12 C 41.067667 28.950307 51.067785 0
M  V30 13 C 39.373420 29.900619 59.174007 0
M  V30 14 C 38.665430 32.218026 59.424266 0 CFG=1
M  V30 15 C 40.553166 33.963195 63.400769 0 CFG=2
M  V30 16 N 38.154877 30.421120 61.938926 0
M  V30 17 O 36.781960 34.660142 59.827839 0
M  V30 18 C 39.161508 30.975095 53.459873 0
M  V30 19 O 41.868910 30.586521 66.094846 0
M  V30 20 C 38.488756 27.825798 51.006862 0
M  V30 21 C 38.461047 33.194245 60.638754 0 CFG=2
M  V30 22 C 40.782557 30.464000 65.202291 0 CFG=1
M  V30 23 O 40.011668 25.471956 55.909940 0
M  V30 24 C 41.311201 32.877228 64.207379 0 CFG=2
M  V30 25 O 42.260314 35.675107 66.257911 0
M  V30 26 C 37.021359 33.718347 60.868195 0 CFG=2
M  V30 27 C 38.665655 27.947762 54.446830 0
M  V30 28 C 39.936375 25.933927 54.746278 0
M  V30 29 C 38.256374 30.135592 55.654385 0
M  V30 30 C 38.035788 31.025019 54.434579 0 CFG=1
M  V30 31 C 37.799076 32.466328 54.796185 0
M  V30 32 C 39.250064 32.813918 58.137731 0
M  V30 33 C 38.092754 28.651253 55.440643 0
M  V30 34 C 40.293366 31.829299 64.690797 0
M  V30 35 C 37.484949 25.713150 55.017932 0
M  V30 36 C 38.682925 29.275721 51.368708 0 CFG=2
M  V30 37 C 36.338914 34.149888 58.577316 0
M  V30 38 C 35.767912 32.791428 61.008558 0
M  V30 39 C 38.767609 33.139099 55.760419 0
M  V30 40 O 41.265460 32.281003 61.397150 0
M  V30 41 C 39.530379 34.261641 60.908565 0
M  V30 42 C 41.125080 29.474429 64.080049 0
M  V30 43 C 40.034948 29.837038 51.544418 0 CFG=1
M  V30 44 C 41.785591 34.958978 65.400384 0
M  V30 45 O 39.313562 35.438188 60.634950 0
M  V30 46 O 34.637001 33.221617 60.891774 0
M  V30 47 O 39.467282 28.533053 53.504553 0
M  V30 48 H 38.502398 26.207790 53.232351 0
M  V30 49 H 36.720951 34.021231 56.645471 0
M  V30 50 H 37.865994 35.135671 57.297572 0
M  V30 51 H 35.158312 30.784357 61.316603 0
M  V30 52 H 42.524548 33.127106 65.965545 0
M  V30 53 H 41.182754 28.100964 51.728812 0
M  V30 54 H 40.669896 28.671276 50.086660 0
M  V30 55 H 41.999080 29.513851 51.050586 0
M  V30 56 H 39.934618 29.167494 59.756971 0
M  V30 57 H 38.344491 29.537507 59.092855 0
M  V30 58 H 39.827578 29.928719 58.184473 0
M  V30 59 H 37.699408 31.781874 59.176533 0
M  V30 60 H 39.479579 33.778182 63.426031 0
M  V30 61 H 39.062656 31.794533 52.743894 0
M  V30 62 H 40.137791 31.104102 53.933022 0
M  V30 63 H 42.651115 30.296020 65.649612 0
M  V30 64 H 39.187767 27.152596 51.497449 0
M  V30 65 H 37.480906 27.543362 51.252855 0
M  V30 66 H 38.667953 27.710442 49.945017 0
M  V30 67 H 38.686485 32.668871 61.545935 0
M  V30 68 H 39.950325 30.035505 65.764788 0
M  V30 69 H 42.106663 32.393723 63.638191 0
M  V30 70 H 37.030250 34.285773 61.797988 0
M  V30 71 H 39.254492 30.283815 56.063136 0
M  V30 72 H 37.554616 30.413057 56.438828 0
M  V30 73 H 37.123830 30.682254 53.950308 0
M  V30 74 H 36.886478 32.307994 55.308289 0
M  V30 75 H 37.584895 33.098217 53.934982 0
M  V30 76 H 39.841486 32.093194 57.580655 0
M  V30 77 H 39.870358 33.682346 58.320224 0
M  V30 78 H 37.503870 28.131564 56.176850 0
M  V30 79 H 39.611927 31.612879 63.867346 0
M  V30 80 H 39.706120 32.314861 65.458819 0
M  V30 81 H 37.514590 25.788596 56.106096 0
M  V30 82 H 36.668939 26.271590 54.651426 0
M  V30 83 H 37.402725 24.665019 54.715994 0
M  V30 84 H 38.267418 29.946107 50.653419 0
M  V30 85 H 35.883838 33.177044 58.609277 0
M  V30 86 H 35.511337 34.799737 58.299050 0
M  V30 87 H 38.880384 34.188415 55.491287 0
M  V30 88 H 39.758903 32.699893 55.648957 0
M  V30 89 H 40.301172 29.394618 63.366858 0
M  V30 90 H 42.017893 29.770164 63.527422 0
M  V30 91 H 41.284505 28.473483 64.487119 0
M  V30 92 H 40.163548 30.839224 51.132549 0
M  V30 93 H 37.604373 32.225680 57.143143 0
M  V30 END ATOM
M  V30 BEGIN BOND
M  V30 1 1 9 4
M  V30 2 1 11 6
M  V30 3 1 13 2
M  V30 4 1 14 2
M  V30 5 1 15 7
M  V30 6 1 15 10
M  V30 7 3 16 11
M  V30 8 1 18 3
M  V30 9 1 21 14
M  V30 10 1 22 19
M  V30 11 1 24 8
M  V30 12 1 24 15
M  V30 13 1 26 17
M  V30 14 1 26 21
M  V30 15 1 27 1
M  V30 16 1 28 1
M  V30 17 1 28 5
M  V30 18 2 28 23
M  V30 19 1 30 18
M  V30 20 1 30 29
M  V30 21 1 31 30
M  V30 22 1 32 9
M  V30 23 1 32 14
M  V30 24 2 33 27
M  V30 25 1 33 29
M  V30 26 1 34 22
M  V30 27 1 34 24
M  V30 28 1 35 1
M  V30 29 1 36 3
M  V30 30 1 36 20
M  V30 31 1 37 4
M  V30 32 1 37 17
M  V30 33 1 38 6
M  V30 34 1 38 26
M  V30 35 1 39 9
M  V30 36 1 39 31
M  V30 37 2 40 7
M  V30 38 1 7 41 CFG=3
M  V30 39 1 41 21
M  V30 40 1 42 22
M  V30 41 1 43 3
M  V30 42 1 43 12
M  V30 43 1 43 36
M  V30 44 1 44 8
M  V30 45 1 44 10
M  V30 46 2 44 25
M  V30 47 2 45 41
M  V30 48 2 46 38
M  V30 49 1 3 47 CFG=1
M  V30 50 1 47 27
M  V30 51 1 1 48 CFG=3
M  V30 52 1 49 4
M  V30 53 1 50 4
M  V30 54 1 51 6
M  V30 55 1 52 8
M  V30 56 1 53 12
M  V30 57 1 54 12
M  V30 58 1 55 12
M  V30 59 1 56 13
M  V30 60 1 57 13
M  V30 61 1 58 13
M  V30 62 1 14 59 CFG=3
M  V30 63 1 15 60 CFG=3
M  V30 64 1 61 18
M  V30 65 1 62 18
M  V30 66 1 63 19
M  V30 67 1 64 20
M  V30 68 1 65 20
M  V30 69 1 66 20
M  V30 70 1 21 67 CFG=1
M  V30 71 1 22 68 CFG=1
M  V30 72 1 24 69 CFG=3
M  V30 73 1 26 70 CFG=1
M  V30 74 1 71 29
M  V30 75 1 72 29
M  V30 76 1 30 73 CFG=3
M  V30 77 1 74 31
M  V30 78 1 75 31
M  V30 79 1 76 32
M  V30 80 1 77 32
M  V30 81 1 78 33
M  V30 82 1 79 34
M  V30 83 1 80 34
M  V30 84 1 81 35
M  V30 85 1 82 35
M  V30 86 1 83 35
M  V30 87 1 36 84 CFG=3
M  V30 88 1 85 37
M  V30 89 1 86 37
M  V30 90 1 87 39
M  V30 91 1 88 39
M  V30 92 1 89 42
M  V30 93 1 90 42
M  V30 94 1 91 42
M  V30 95 1 43 92 CFG=3
M  V30 96 1 9 93 CFG=3
M  V30 END BOND
M  V30 END CTAB
M  END
>  <i_epik_Tot_Q>  (1) 
0

>  <i_epik_Tot_abs_Q>  (1) 
2

>  <i_i_glide_confnum>  (1) 
4075

>  <i_i_glide_lignum>  (1) 
26

>  <i_i_glide_posenum>  (1) 
387

>  <i_i_glide_rotatable_bonds>  (1) 
14

>  <i_lp_mmshare_version>  (1) 
72125

>  <i_m_source_file_index>  (1) 
8

>  <i_f3d_flags>  (1) 
0

>  <num_sample>  (1) 
50

>  <b_lp_Chiralities_Consistent>  (1) 
1

>  <r_epik_Charging_Adjusted_Penalty>  (1) 
2.2678334573304797

>  <r_epik_Ionization_Penalty>  (1) 
1.1498882506810455

>  <r_epik_Ionization_Penalty_Charging>  (1) 
1.1031410554290029

>  <r_epik_Ionization_Penalty_Neutral>  (1) 
0.046747195252042517

>  <r_epik_State_Penalty>  (1) 
1.164692401901477

>  <r_glide_ring_energy>  (1) 
0

>  <r_i_docking_score>  (1) 
-1.6693825795204322

>  <r_i_glide_ecoul>  (1) 
-2.776823197572786

>  <r_i_glide_eff_state_penalty>  (1) 
1.164692401901477

>  <r_i_glide_einternal>  (1) 
28.85155105687992

>  <r_i_glide_emodel>  (1) 
16.726314665024866

>  <r_i_glide_emodel_strain>  (1) 
9.7670610244171172

>  <r_i_glide_energy>  (1) 
-5.6308692497639008

>  <r_i_glide_erotb>  (1) 
0.2643022598508753

>  <r_i_glide_esite>  (1) 
-0.1757299556212949

>  <r_i_glide_evdw>  (1) 
-2.8540460521911144

>  <r_i_glide_gscore>  (1) 
-2.8340749814219093

>  <r_i_glide_gscore_strain>  (1) 
1.4417652561042793

>  <r_i_glide_hbond>  (1) 
-0.13258898133260139

>  <r_i_glide_ligand_efficiency>  (1) 
-0.035518778287668772

>  <r_i_glide_ligand_efficiency_ln>  (1) 
-0.34419211879899153

>  <r_i_glide_ligand_efficiency_sa>  (1) 
-0.12818109341920308

>  <r_i_glide_lipo>  (1) 
-3.0370434284627947

>  <r_i_glide_metal>  (1) 
-0

>  <r_i_glide_rewards>  (1) 
-0.63555434971489921

>  <r_lp_Energy>  (1) 
34.071460000000002

>  <s_epik_Chemistry_Notes>  (1) 
This compound contains an acetal/aminal-like group ( X-CH(R)-Y where X, Y are N, S, or O) that may be acid/base labile, releasing an aldehyde.

>  <s_epik_cmdline>  (1) 
J2VwaWtfcHl0aG9uJywgJy1waHQnLCAnMS4wJywgJy1waCcsICc3LjQnLCAnLXRuJywgJzgnLCAnLW1hJywgJzUwMCcsICctaW1hZScsICc8aW5maWxlLm1hZT4nLCAnLW9tYWUnLCAnPG91dGZpbGUubWFlPic=

>  <s_epik_input>  (1) 
W09IXUMoPU8pW0NAQEhdKFtDSDNdKUMoTzEpPVtDSF1bQ0gyXVtDQEhdKFtDSDJdW0NAXTEyW0NASF0oW0NIM10pW0NAQEhdMltDSDNdKVtDSDJdW0NIMl1OM1tDSDJdW0NIMl1PW0NAQEhdKEMoPU8pW05IXUMjTilbQ0BASF0oW0NAQEhdKFtDSDJdMylPW0NIM10pQyg9TylTKD1PKVtDQEBIXTRTQyg9TylbTkhdW0NASF00W0NIMl1bQ0BIXShbT0hdKVtDSDNd

>  <s_glide_docking_method>  (1) 
confgen

>  <s_i_glide_gridfile>  (1) 
gpcr_5ht2c_6bqh_protein_autoprepared_prepared

>  <s_lp_Force_Field>  (1) 
S-OPLS

>  <s_lp_Variant>  (1) 
DiffSBDD_7_num_sample_50-4

>  <s_m_source_file>  (1) 
generated__ligand_DiffSBDD_2026-05-06_prepared.sdf

>  <GenAI_Model>  (1) 
DiffSBDD

>  <Protein>  (1) 
GPCR_5HT2C

$$$$
DiffSBDD_1_num_sample_50
     RDKit          3D

  0  0  0  0  0  0  0  0  0  0999 V3000
M  V30 BEGIN CTAB
M  V30 COUNTS 31 30 0 0 1
M  V30 BEGIN ATOM
M  V30 1 C 41.167675 30.486711 50.216065 0
M  V30 2 C 40.361742 29.518849 51.090110 0
M  V30 3 C 38.783976 30.225518 55.462037 0
M  V30 4 C 37.966011 29.935327 54.196660 0
M  V30 5 N 36.667406 31.773163 59.053500 0 CHG=1
M  V30 6 C 38.758642 29.275584 53.053054 0
M  V30 7 C 39.847310 30.149832 52.398182 0
M  V30 8 C 38.580025 30.786803 57.790513 0
M  V30 9 N 37.867413 30.420131 56.576721 0
M  V30 10 C 37.643180 30.671444 59.004986 0
M  V30 11 H 41.463059 30.021433 49.276650 0
M  V30 12 H 40.575579 31.366394 49.964340 0
M  V30 13 H 42.078094 30.821450 50.709024 0
M  V30 14 H 40.961620 28.638261 51.321177 0
M  V30 15 H 39.516310 29.165298 50.497729 0
M  V30 16 H 39.405840 31.109778 55.314462 0
M  V30 17 H 39.446759 29.388450 55.685916 0
M  V30 18 H 37.146149 29.260776 54.450474 0
M  V30 19 H 37.496650 30.857348 53.853495 0
M  V30 20 H 36.024677 31.649311 59.819307 0
M  V30 21 H 37.138080 32.661775 59.130096 0
M  V30 22 H 39.201145 28.343033 53.405082 0
M  V30 23 H 38.038534 28.984028 52.287208 0
M  V30 24 H 39.467408 31.147746 52.186817 0
M  V30 25 H 40.667403 30.304881 53.097482 0
M  V30 26 H 39.414299 30.096801 57.927629 0
M  V30 27 H 39.002029 31.788928 57.700468 0
M  V30 28 H 37.144194 31.099522 56.347808 0
M  V30 29 H 37.115560 29.716276 58.994523 0
M  V30 30 H 38.229056 30.698451 59.924276 0
M  V30 31 H 36.126942 31.766074 58.167581 0
M  V30 END ATOM
M  V30 BEGIN BOND
M  V30 1 1 2 1
M  V30 2 1 4 3
M  V30 3 1 6 4
M  V30 4 1 7 2
M  V30 5 1 7 6
M  V30 6 1 9 3
M  V30 7 1 9 8
M  V30 8 1 10 5
M  V30 9 1 10 8
M  V30 10 1 11 1
M  V30 11 1 12 1
M  V30 12 1 13 1
M  V30 13 1 14 2
M  V30 14 1 15 2
M  V30 15 1 16 3
M  V30 16 1 17 3
M  V30 17 1 18 4
M  V30 18 1 19 4
M  V30 19 1 20 5
M  V30 20 1 21 5
M  V30 21 1 22 6
M  V30 22 1 23 6
M  V30 23 1 24 7
M  V30 24 1 25 7
M  V30 25 1 26 8
M  V30 26 1 27 8
M  V30 27 1 28 9
M  V30 28 1 29 10
M  V30 29 1 30 10
M  V30 30 1 31 5
M  V30 END BOND
M  V30 END CTAB
M  END
>  <i_epik_Tot_Q>  (1) 
1

>  <i_epik_Tot_abs_Q>  (1) 
1

>  <i_i_glide_confnum>  (1) 
161

>  <i_i_glide_lignum>  (1) 
7

>  <i_i_glide_posenum>  (1) 
84

>  <i_i_glide_rotatable_bonds>  (1) 
7

>  <i_lp_mmshare_version>  (1) 
72125

>  <i_m_source_file_index>  (1) 
2

>  <i_f3d_flags>  (1) 
0

>  <num_sample>  (1) 
50

>  <b_lp_Chiralities_Consistent>  (1) 
1

>  <r_epik_Charging_Adjusted_Penalty>  (1) 
1.0612563953721996

>  <r_epik_Ionization_Penalty>  (1) 
0.52166343856135999

>  <r_epik_Ionization_Penalty_Charging>  (1) 
0.0055980972851356293

>  <r_epik_Ionization_Penalty_Neutral>  (1) 
0.51606534127622439

>  <r_epik_State_Penalty>  (1) 
1.0556582980870639

>  <r_glide_ring_energy>  (1) 
0

>  <r_i_docking_score>  (1) 
-1.5725725616469466

>  <r_i_glide_ecoul>  (1) 
-7.0998031815512643

>  <r_i_glide_eff_state_penalty>  (1) 
1.0556582980870639

>  <r_i_glide_einternal>  (1) 
5.6713124087791478

>  <r_i_glide_emodel>  (1) 
-25.545255692394356

>  <r_i_glide_emodel_strain>  (1) 
0.12685327039246597

>  <r_i_glide_energy>  (1) 
-22.28896676193208

>  <r_i_glide_erotb>  (1) 
3.4380790968712875

>  <r_i_glide_esite>  (1) 
-0.10000000000000001

>  <r_i_glide_evdw>  (1) 
-15.189163580380816

>  <r_i_glide_gscore>  (1) 
-2.6282308597340105

>  <r_i_glide_gscore_strain>  (1) 
0

>  <r_i_glide_hbond>  (1) 
-0.3164796814021541

>  <r_i_glide_ligand_efficiency>  (1) 
-0.15725725616469466

>  <r_i_glide_ligand_efficiency_ln>  (1) 
-0.47616413123856538

>  <r_i_glide_ligand_efficiency_sa>  (1) 
-0.33880048794044848

>  <r_i_glide_lipo>  (1) 
-1.4395966913711333

>  <r_i_glide_metal>  (1) 
-0

>  <r_i_glide_rewards>  (1) 
-2.3858049275802804

>  <r_lp_Energy>  (1) 
8.789769999999999

>  <s_epik_cmdline>  (1) 
J2VwaWtfcHl0aG9uJywgJy1waHQnLCAnMS4wJywgJy1waCcsICc3LjQnLCAnLXRuJywgJzgnLCAnLW1hJywgJzUwMCcsICctaW1hZScsICc8aW5maWxlLm1hZT4nLCAnLW9tYWUnLCAnPG91dGZpbGUubWFlPic=

>  <s_epik_input>  (1) 
W0NIM11bQ0gyXVtDSDJdW0NIMl1bQ0gyXVtDSDJdW05IXVtDSDJdW0NIMl1bTkgyXQ==

>  <s_glide_docking_method>  (1) 
confgen

>  <s_i_glide_gridfile>  (1) 
gpcr_5ht2c_6bqh_protein_autoprepared_prepared

>  <s_lp_Force_Field>  (1) 
S-OPLS

>  <s_lp_Variant>  (1) 
DiffSBDD_1_num_sample_50-3

>  <s_m_source_file>  (1) 
generated__ligand_DiffSBDD_2026-05-06_prepared.sdf

>  <GenAI_Model>  (1) 
DiffSBDD

>  <Protein>  (1) 
GPCR_5HT2C

$$$$
DiffSBDD_45_num_sample_50
     RDKit          3D

  0  0  0  0  0  0  0  0  0  0999 V3000
M  V30 BEGIN CTAB
M  V30 COUNTS 37 36 0 0 1
M  V30 BEGIN ATOM
M  V30 1 C 38.072443 26.755647 53.613313 0
M  V30 2 C 37.789613 25.780691 54.617078 0
M  V30 3 C 40.755390 28.483405 59.862959 0
M  V30 4 C 39.364181 28.008670 59.400834 0
M  V30 5 C 41.215118 30.454149 50.185717 0
M  V30 6 C 38.355888 27.594808 52.773435 0
M  V30 7 C 39.405922 26.902784 58.331386 0
M  V30 8 O 40.666766 29.462084 60.891409 0
M  V30 9 C 40.259604 29.524937 50.050161 0
M  V30 10 C 39.833743 27.396426 56.937922 0
M  V30 11 C 38.618878 25.549395 55.655389 0
M  V30 12 C 38.674340 28.628725 51.779093 0
M  V30 13 C 39.939341 26.274486 55.892137 0
M  V30 14 C 40.426151 28.923609 62.184166 0
M  V30 15 C 40.007341 28.422382 51.055161 0
M  V30 16 H 36.870955 25.221395 54.519865 0
M  V30 17 H 41.375781 27.646048 60.183474 0
M  V30 18 H 41.276748 28.946397 59.025356 0
M  V30 19 H 38.787672 28.858588 59.033956 0
M  V30 20 H 38.809733 27.621430 60.253546 0
M  V30 21 H 41.867515 30.459477 51.042535 0
M  V30 22 H 41.354942 31.221397 49.442035 0
M  V30 23 H 38.409686 26.465149 58.260987 0
M  V30 24 H 40.064341 26.096149 58.653508 0
M  V30 25 H 39.617334 29.543449 49.181764 0
M  V30 26 H 40.804424 27.888050 57.004852 0
M  V30 27 H 39.133577 28.155420 56.586165 0
M  V30 28 H 38.349207 24.801286 56.386684 0
M  V30 29 H 38.667371 29.591251 52.291279 0
M  V30 30 H 37.867402 28.630852 51.053841 0
M  V30 31 H 40.667400 25.534049 56.218719 0
M  V30 32 H 40.344375 26.682750 54.966935 0
M  V30 33 H 40.409558 29.731089 62.916080 0
M  V30 34 H 39.467738 28.408573 62.245302 0
M  V30 35 H 41.214809 28.227938 62.473613 0
M  V30 36 H 40.013270 27.466683 50.529316 0
M  V30 37 H 40.823310 28.402313 51.776712 0
M  V30 END ATOM
M  V30 BEGIN BOND
M  V30 1 1 2 1
M  V30 2 1 4 3
M  V30 3 3 6 1
M  V30 4 1 7 4
M  V30 5 1 8 3
M  V30 6 2 9 5
M  V30 7 1 10 7
M  V30 8 2 11 2
M  V30 9 1 12 6
M  V30 10 1 13 10
M  V30 11 1 13 11
M  V30 12 1 14 8
M  V30 13 1 15 9
M  V30 14 1 15 12
M  V30 15 1 16 2
M  V30 16 1 17 3
M  V30 17 1 18 3
M  V30 18 1 19 4
M  V30 19 1 20 4
M  V30 20 1 21 5
M  V30 21 1 22 5
M  V30 22 1 23 7
M  V30 23 1 24 7
M  V30 24 1 25 9
M  V30 25 1 26 10
M  V30 26 1 27 10
M  V30 27 1 28 11
M  V30 28 1 29 12
M  V30 29 1 30 12
M  V30 30 1 31 13
M  V30 31 1 32 13
M  V30 32 1 33 14
M  V30 33 1 34 14
M  V30 34 1 35 14
M  V30 35 1 36 15
M  V30 36 1 37 15
M  V30 END BOND
M  V30 END CTAB
M  END
>  <i_epik_Tot_Q>  (1) 
0

>  <i_epik_Tot_abs_Q>  (1) 
0

>  <i_i_glide_confnum>  (1) 
78

>  <i_i_glide_lignum>  (1) 
105

>  <i_i_glide_posenum>  (1) 
340

>  <i_i_glide_rotatable_bonds>  (1) 
10

>  <i_lp_mmshare_version>  (1) 
72125

>  <i_m_source_file_index>  (1) 
46

>  <i_f3d_flags>  (1) 
0

>  <num_sample>  (1) 
50

>  <b_lp_Chiralities_Consistent>  (1) 
1

>  <r_epik_Charging_Adjusted_Penalty>  (1) 
0

>  <r_epik_Ionization_Penalty>  (1) 
1.1106675223295859e-11

>  <r_epik_Ionization_Penalty_Charging>  (1) 
0

>  <r_epik_Ionization_Penalty_Neutral>  (1) 
1.1106675223295859e-11

>  <r_epik_State_Penalty>  (1) 
-0

>  <r_glide_ring_energy>  (1) 
0

>  <r_i_docking_score>  (1) 
-1.0942668102021869

>  <r_i_glide_ecoul>  (1) 
-2.3661529051180197

>  <r_i_glide_eff_state_penalty>  (1) 
-0

>  <r_i_glide_einternal>  (1) 
2.8686324529364646

>  <r_i_glide_emodel>  (1) 
-29.049623764280593

>  <r_i_glide_emodel_strain>  (1) 
0

>  <r_i_glide_energy>  (1) 
-28.6525883490783

>  <r_i_glide_erotb>  (1) 
6.9772409559876971

>  <r_i_glide_esite>  (1) 
0

>  <r_i_glide_evdw>  (1) 
-26.286435443960279

>  <r_i_glide_gscore>  (1) 
-1.0942668102021869

>  <r_i_glide_gscore_strain>  (1) 
0

>  <r_i_glide_hbond>  (1) 
-0.25665124220791385

>  <r_i_glide_ligand_efficiency>  (1) 
-0.072951120680145795

>  <r_i_glide_ligand_efficiency_ln>  (1) 
-0.29510571617313014

>  <r_i_glide_ligand_efficiency_sa>  (1) 
-0.17991293465731484

>  <r_i_glide_lipo>  (1) 
-3.7766554220768582

>  <r_i_glide_metal>  (1) 
-0

>  <r_i_glide_rewards>  (1) 
-2.3689563939393943

>  <r_lp_Energy>  (1) 
-2.2524449999999998

>  <r_lp_tautomer_probability>  (1) 
1

>  <s_epik_cmdline>  (1) 
J2VwaWtfcHl0aG9uJywgJy1waHQnLCAnMS4wJywgJy1waCcsICc3LjQnLCAnLXRuJywgJzgnLCAnLW1hJywgJzUwMCcsICctaW1hZScsICc8aW5maWxlLm1hZT4nLCAnLW9tYWUnLCAnPG91dGZpbGUubWFlPic=

>  <s_epik_input>  (1) 
W0NIMl09W0NIXVtDSDJdW0NIMl1DI0MvW0NIXT1bQ0hdXFtDSDJdW0NIMl1bQ0gyXVtDSDJdW0NIMl1PW0NIM10=

>  <s_glide_docking_method>  (1) 
confgen

>  <s_i_glide_gridfile>  (1) 
gpcr_5ht2c_6bqh_protein_autoprepared_prepared

>  <s_lp_Force_Field>  (1) 
S-OPLS

>  <s_lp_Variant>  (1) 
DiffSBDD_45_num_sample_50-2

>  <s_m_source_file>  (1) 
generated__ligand_DiffSBDD_2026-05-06_prepared.sdf

>  <GenAI_Model>  (1) 
DiffSBDD

>  <Protein>  (1) 
GPCR_5HT2C

$$$$
DiffSBDD_36_num_sample_50
     RDKit          3D

  0  0  0  0  0  0  0  0  0  0999 V3000
M  V30 BEGIN CTAB
M  V30 COUNTS 43 42 0 0 1
M  V30 BEGIN ATOM
M  V30 1 C 37.969405 27.119424 56.176257 0
M  V30 2 S 38.450847 25.728374 55.108531 0
M  V30 3 C 39.577227 26.529709 53.930591 0
M  V30 4 C 39.087118 28.862268 50.812548 0
M  V30 5 C 41.131311 30.406913 50.482496 0
M  V30 6 O 36.532157 30.657191 59.053502 0
M  V30 7 C 38.589661 28.487233 58.263635 0
M  V30 8 C 39.068354 27.503629 57.179923 0
M  V30 9 C 38.827467 27.362147 52.871909 0
M  V30 10 C 37.904416 30.935558 58.857122 0
M  V30 11 C 40.045417 29.551211 49.822800 0
M  V30 12 C 38.477292 29.954089 57.800930 0
M  V30 13 C 37.989991 32.381713 58.341835 0
M  V30 14 C 39.698217 27.745054 51.660111 0
M  V30 15 C 38.589075 30.820447 60.232147 0
M  V30 16 H 37.081819 26.804151 56.724977 0
M  V30 17 H 37.678807 27.972886 55.565054 0
M  V30 18 H 40.267379 27.151001 54.496463 0
M  V30 19 H 40.187863 25.762813 53.453552 0
M  V30 20 H 38.267410 28.421437 50.253962 0
M  V30 21 H 38.667403 29.621424 51.468403 0
M  V30 22 H 41.714205 30.934012 49.726914 0
M  V30 23 H 40.700508 31.153497 51.150547 0
M  V30 24 H 41.824176 29.792553 51.053323 0
M  V30 25 H 36.046496 31.024324 58.312733 0
M  V30 26 H 39.292242 28.431428 59.094733 0
M  V30 27 H 37.630282 28.155621 58.653510 0
M  V30 28 H 39.938216 27.912441 56.666280 0
M  V30 29 H 39.410889 26.593973 57.675488 0
M  V30 30 H 37.949835 26.821441 52.516548 0
M  V30 31 H 38.446897 28.264250 53.350533 0
M  V30 32 H 40.496995 28.821394 49.155823 0
M  V30 33 H 39.467414 30.210626 49.178495 0
M  V30 34 H 37.861690 30.004839 56.901981 0
M  V30 35 H 39.468729 30.293485 57.498569 0
M  V30 36 H 39.025142 32.688718 58.190843 0
M  V30 37 H 37.473302 32.497392 57.387258 0
M  V30 38 H 37.537289 33.083683 59.042803 0
M  V30 39 H 40.667410 28.077762 51.999021 0
M  V30 40 H 39.867370 26.867409 51.034925 0
M  V30 41 H 39.666214 30.966959 60.159650 0
M  V30 42 H 38.202749 31.566828 60.926719 0
M  V30 43 H 38.417519 29.845591 60.689676 0
M  V30 END ATOM
M  V30 BEGIN BOND
M  V30 1 1 2 1
M  V30 2 1 3 2
M  V30 3 1 8 1
M  V30 4 1 8 7
M  V30 5 1 9 3
M  V30 6 1 10 6
M  V30 7 1 11 4
M  V30 8 1 11 5
M  V30 9 1 12 7
M  V30 10 1 12 10
M  V30 11 1 13 10
M  V30 12 1 14 4
M  V30 13 1 14 9
M  V30 14 1 15 10
M  V30 15 1 16 1
M  V30 16 1 17 1
M  V30 17 1 18 3
M  V30 18 1 19 3
M  V30 19 1 20 4
M  V30 20 1 21 4
M  V30 21 1 22 5
M  V30 22 1 23 5
M  V30 23 1 24 5
M  V30 24 1 25 6
M  V30 25 1 26 7
M  V30 26 1 27 7
M  V30 27 1 28 8
M  V30 28 1 29 8
M  V30 29 1 30 9
M  V30 30 1 31 9
M  V30 31 1 32 11
M  V30 32 1 33 11
M  V30 33 1 34 12
M  V30 34 1 35 12
M  V30 35 1 36 13
M  V30 36 1 37 13
M  V30 37 1 38 13
M  V30 38 1 39 14
M  V30 39 1 40 14
M  V30 40 1 41 15
M  V30 41 1 42 15
M  V30 42 1 43 15
M  V30 END BOND
M  V30 END CTAB
M  END
>  <i_epik_Tot_Q>  (1) 
0

>  <i_epik_Tot_abs_Q>  (1) 
0

>  <i_i_glide_confnum>  (1) 
13

>  <i_i_glide_lignum>  (1) 
90

>  <i_i_glide_posenum>  (1) 
294

>  <i_i_glide_rotatable_bonds>  (1) 
11

>  <i_lp_mmshare_version>  (1) 
72125

>  <i_m_source_file_index>  (1) 
37

>  <i_f3d_flags>  (1) 
0

>  <num_sample>  (1) 
50

>  <b_lp_Chiralities_Consistent>  (1) 
1

>  <r_epik_Charging_Adjusted_Penalty>  (1) 
0

>  <r_epik_Ionization_Penalty>  (1) 
2.5160347815681351e-07

>  <r_epik_Ionization_Penalty_Charging>  (1) 
0

>  <r_epik_Ionization_Penalty_Neutral>  (1) 
2.5160347815681351e-07

>  <r_epik_State_Penalty>  (1) 
-0

>  <r_glide_ring_energy>  (1) 
0

>  <r_i_docking_score>  (1) 
-1.0180210152604718

>  <r_i_glide_ecoul>  (1) 
-3.9203557314608828

>  <r_i_glide_eff_state_penalty>  (1) 
-0

>  <r_i_glide_einternal>  (1) 
3.9169077232691385

>  <r_i_glide_emodel>  (1) 
-25.94192376054318

>  <r_i_glide_emodel_strain>  (1) 
0.1929288511335967

>  <r_i_glide_energy>  (1) 
-26.374672436257946

>  <r_i_glide_erotb>  (1) 
5.7074406429172706

>  <r_i_glide_esite>  (1) 
0

>  <r_i_glide_evdw>  (1) 
-22.454316704797062

>  <r_i_glide_gscore>  (1) 
-1.0180210152604718

>  <r_i_glide_gscore_strain>  (1) 
0

>  <r_i_glide_hbond>  (1) 
-0.16

>  <r_i_glide_ligand_efficiency>  (1) 
-0.067868067684031461

>  <r_i_glide_ligand_efficiency_ln>  (1) 
-0.27454348243663673

>  <r_i_glide_ligand_efficiency_sa>  (1) 
-0.16737704798383599

>  <r_i_glide_lipo>  (1) 
-2.7051954942900225

>  <r_i_glide_metal>  (1) 
-0

>  <r_i_glide_rewards>  (1) 
-2.1494969689287333

>  <r_lp_Energy>  (1) 
3.2126039999999998

>  <r_lp_tautomer_probability>  (1) 
1

>  <s_epik_cmdline>  (1) 
J2VwaWtfcHl0aG9uJywgJy1waHQnLCAnMS4wJywgJy1waCcsICc3LjQnLCAnLXRuJywgJzgnLCAnLW1hJywgJzUwMCcsICctaW1hZScsICc8aW5maWxlLm1hZT4nLCAnLW9tYWUnLCAnPG91dGZpbGUubWFlPic=

>  <s_epik_input>  (1) 
W09IXUMoW0NIM10pKFtDSDNdKVtDSDJdW0NIMl1bQ0gyXVtDSDJdU1tDSDJdW0NIMl1bQ0gyXVtDSDJdW0NIMl1bQ0gzXQ==

>  <s_glide_docking_method>  (1) 
confgen

>  <s_i_glide_gridfile>  (1) 
gpcr_5ht2c_6bqh_protein_autoprepared_prepared

>  <s_lp_Force_Field>  (1) 
S-OPLS

>  <s_lp_Variant>  (1) 
DiffSBDD_36_num_sample_50-1

>  <s_m_source_file>  (1) 
generated__ligand_DiffSBDD_2026-05-06_prepared.sdf

>  <GenAI_Model>  (1) 
DiffSBDD

>  <Protein>  (1) 
GPCR_5HT2C

$$$$
DiffSBDD_36_num_sample_50
     RDKit          3D

  0  0  0  0  0  0  0  0  0  0999 V3000
M  V30 BEGIN CTAB
M  V30 COUNTS 43 42 0 0 1
M  V30 BEGIN ATOM
M  V30 1 C 38.498367 31.770370 55.842701 0
M  V30 2 S 39.068574 30.154919 56.452959 0
M  V30 3 C 38.359687 29.021212 55.233266 0
M  V30 4 C 39.093267 28.616117 51.388232 0
M  V30 5 C 40.598549 30.007116 49.838264 0
M  V30 6 O 36.130263 31.816340 59.449152 0
M  V30 7 C 38.592610 32.923816 58.150065 0
M  V30 8 C 39.044825 32.932971 56.677379 0
M  V30 9 C 38.856983 29.357575 53.830216 0
M  V30 10 C 36.456773 33.180274 59.609073 0
M  V30 11 C 40.427779 29.372893 51.219016 0
M  V30 12 C 37.262171 33.667800 58.379963 0
M  V30 13 C 35.117633 33.918153 59.702212 0
M  V30 14 C 38.763589 28.196089 52.830851 0
M  V30 15 C 37.257766 33.348673 60.911018 0
M  V30 16 H 37.413140 31.775249 55.829575 0
M  V30 17 H 38.832951 31.920160 54.816692 0
M  V30 18 H 38.676707 28.015577 55.507906 0
M  V30 19 H 37.271107 29.051167 55.281061 0
M  V30 20 H 39.085191 27.732042 50.747668 0
M  V30 21 H 38.272773 29.236092 51.037918 0
M  V30 22 H 41.545238 30.545051 49.786796 0
M  V30 23 H 40.577914 29.268857 49.036991 0
M  V30 24 H 39.806122 30.731875 49.654846 0
M  V30 25 H 35.867348 31.710332 58.525080 0
M  V30 26 H 39.362723 33.379880 58.771412 0
M  V30 27 H 38.519351 31.895244 58.499535 0
M  V30 28 H 38.739446 33.868239 56.205346 0
M  V30 29 H 40.132237 32.905794 56.619022 0
M  V30 30 H 38.304002 30.217850 53.455584 0
M  V30 31 H 39.896674 29.666029 53.916649 0
M  V30 32 H 40.503059 30.194479 51.928810 0
M  V30 33 H 41.258108 28.701523 51.434345 0
M  V30 34 H 36.658059 33.616332 57.473710 0
M  V30 35 H 37.460820 34.734842 58.483316 0
M  V30 36 H 35.281690 34.992590 59.762160 0
M  V30 37 H 34.491916 33.725430 58.829702 0
M  V30 38 H 34.557167 33.611617 60.586874 0
M  V30 39 H 39.420051 27.384284 53.144153 0
M  V30 40 H 37.750398 27.791497 52.843185 0
M  V30 41 H 37.500086 34.397702 61.081422 0
M  V30 42 H 36.697996 32.997603 61.777205 0
M  V30 43 H 38.198834 32.798337 60.888827 0
M  V30 END ATOM
M  V30 BEGIN BOND
M  V30 1 1 2 1
M  V30 2 1 3 2
M  V30 3 1 8 1
M  V30 4 1 8 7
M  V30 5 1 9 3
M  V30 6 1 10 6
M  V30 7 1 11 4
M  V30 8 1 11 5
M  V30 9 1 12 7
M  V30 10 1 12 10
M  V30 11 1 13 10
M  V30 12 1 14 4
M  V30 13 1 14 9
M  V30 14 1 15 10
M  V30 15 1 16 1
M  V30 16 1 17 1
M  V30 17 1 18 3
M  V30 18 1 19 3
M  V30 19 1 20 4
M  V30 20 1 21 4
M  V30 21 1 22 5
M  V30 22 1 23 5
M  V30 23 1 24 5
M  V30 24 1 25 6
M  V30 25 1 26 7
M  V30 26 1 27 7
M  V30 27 1 28 8
M  V30 28 1 29 8
M  V30 29 1 30 9
M  V30 30 1 31 9
M  V30 31 1 32 11
M  V30 32 1 33 11
M  V30 33 1 34 12
M  V30 34 1 35 12
M  V30 35 1 36 13
M  V30 36 1 37 13
M  V30 37 1 38 13
M  V30 38 1 39 14
M  V30 39 1 40 14
M  V30 40 1 41 15
M  V30 41 1 42 15
M  V30 42 1 43 15
M  V30 END BOND
M  V30 END CTAB
M  END
>  <i_epik_Tot_Q>  (1) 
0

>  <i_epik_Tot_abs_Q>  (1) 
0

>  <i_i_glide_confnum>  (1) 
250

>  <i_i_glide_lignum>  (1) 
90

>  <i_i_glide_posenum>  (1) 
33

>  <i_i_glide_rotatable_bonds>  (1) 
11

>  <i_lp_mmshare_version>  (1) 
72125

>  <i_m_source_file_index>  (1) 
37

>  <i_f3d_flags>  (1) 
0

>  <num_sample>  (1) 
50

>  <b_lp_Chiralities_Consistent>  (1) 
1

>  <r_epik_Charging_Adjusted_Penalty>  (1) 
0

>  <r_epik_Ionization_Penalty>  (1) 
2.5160347815681351e-07

>  <r_epik_Ionization_Penalty_Charging>  (1) 
0

>  <r_epik_Ionization_Penalty_Neutral>  (1) 
2.5160347815681351e-07

>  <r_epik_State_Penalty>  (1) 
-0

>  <r_glide_ring_energy>  (1) 
0

>  <r_i_docking_score>  (1) 
-0.7792590934913366

>  <r_i_glide_ecoul>  (1) 
-5.6971006575490337

>  <r_i_glide_eff_state_penalty>  (1) 
-0

>  <r_i_glide_einternal>  (1) 
7.3565351750408734

>  <r_i_glide_emodel>  (1) 
-28.21430760483554

>  <r_i_glide_emodel_strain>  (1) 
1.2640296486468188

>  <r_i_glide_energy>  (1) 
-31.841051250574285

>  <r_i_glide_erotb>  (1) 
5.7074406429172706

>  <r_i_glide_esite>  (1) 
0

>  <r_i_glide_evdw>  (1) 
-26.143950593025252

>  <r_i_glide_gscore>  (1) 
-0.7792590934913366

>  <r_i_glide_gscore_strain>  (1) 
0

>  <r_i_glide_hbond>  (1) 
-0.16

>  <r_i_glide_ligand_efficiency>  (1) 
-0.051950606232755776

>  <r_i_glide_ligand_efficiency_ln>  (1) 
-0.21015332890037558

>  <r_i_glide_ligand_efficiency_sa>  (1) 
-0.12812121236001009

>  <r_i_glide_lipo>  (1) 
-1.9516689613148521

>  <r_i_glide_metal>  (1) 
-0

>  <r_i_glide_rewards>  (1) 
-2.2132681468101367

>  <r_lp_Energy>  (1) 
3.2126039999999998

>  <r_lp_tautomer_probability>  (1) 
1

>  <s_epik_cmdline>  (1) 
J2VwaWtfcHl0aG9uJywgJy1waHQnLCAnMS4wJywgJy1waCcsICc3LjQnLCAnLXRuJywgJzgnLCAnLW1hJywgJzUwMCcsICctaW1hZScsICc8aW5maWxlLm1hZT4nLCAnLW9tYWUnLCAnPG91dGZpbGUubWFlPic=

>  <s_epik_input>  (1) 
W09IXUMoW0NIM10pKFtDSDNdKVtDSDJdW0NIMl1bQ0gyXVtDSDJdU1tDSDJdW0NIMl1bQ0gyXVtDSDJdW0NIMl1bQ0gzXQ==

>  <s_glide_docking_method>  (1) 
confgen

>  <s_i_glide_gridfile>  (1) 
gpcr_5ht2c_6bqh_protein_autoprepared_prepared

>  <s_lp_Force_Field>  (1) 
S-OPLS

>  <s_lp_Variant>  (1) 
DiffSBDD_36_num_sample_50-1

>  <s_m_source_file>  (1) 
generated__ligand_DiffSBDD_2026-05-06_prepared.sdf

>  <GenAI_Model>  (1) 
DiffSBDD

>  <Protein>  (1) 
GPCR_5HT2C

$$$$
DiffSBDD_36_num_sample_50
     RDKit          3D

  0  0  0  0  0  0  0  0  0  0999 V3000
M  V30 BEGIN CTAB
M  V30 COUNTS 43 42 0 0 1
M  V30 BEGIN ATOM
M  V30 1 C 38.345304 31.881920 54.950305 0
M  V30 2 S 39.462648 30.449832 55.045776 0
M  V30 3 C 38.424886 29.138476 54.334910 0
M  V30 4 C 38.015896 25.325672 55.252292 0
M  V30 5 C 37.733067 24.043729 57.454208 0
M  V30 6 O 36.022342 31.844536 59.453514 0
M  V30 7 C 38.203761 32.262582 57.486315 0
M  V30 8 C 38.563040 32.863172 56.112435 0
M  V30 9 C 38.780051 27.772261 54.937646 0
M  V30 10 C 37.048750 32.749183 59.786986 0
M  V30 11 C 37.596201 25.387113 56.732063 0
M  V30 12 C 37.653627 33.311185 58.478412 0
M  V30 13 C 36.375282 33.868066 60.598000 0
M  V30 14 C 37.815866 26.655356 54.503027 0
M  V30 15 C 38.077430 32.000226 60.650233 0
M  V30 16 H 37.305165 31.553987 54.963471 0
M  V30 17 H 38.494562 32.383740 53.995127 0
M  V30 18 H 37.379144 29.359172 54.552002 0
M  V30 19 H 38.531907 29.133757 53.249730 0
M  V30 20 H 37.424633 24.556638 54.752924 0
M  V30 21 H 39.056466 25.009143 55.168810 0
M  V30 22 H 37.468296 24.152268 58.504859 0
M  V30 23 H 37.067409 23.293531 57.025315 0
M  V30 24 H 38.755798 23.666840 57.413898 0
M  V30 25 H 35.867391 31.921091 58.498010 0
M  V30 26 H 39.067576 31.752718 57.905260 0
M  V30 27 H 37.467416 31.476102 57.338991 0
M  V30 28 H 37.934834 33.735090 55.922607 0
M  V30 29 H 39.592540 33.220758 56.121676 0
M  V30 30 H 39.801952 27.497641 54.673551 0
M  V30 31 H 38.763619 27.872493 56.021920 0
M  V30 32 H 38.200294 26.122012 57.262782 0
M  V30 33 H 36.562677 25.728803 56.806132 0
M  V30 34 H 36.880999 33.890190 57.969340 0
M  V30 35 H 38.443264 34.020935 58.723532 0
M  V30 36 H 37.095940 34.630001 60.894882 0
M  V30 37 H 35.591299 34.359524 60.019018 0
M  V30 38 H 35.912848 33.476523 61.505741 0
M  V30 39 H 36.786627 26.986183 54.638495 0
M  V30 40 H 37.937597 26.482717 53.432987 0
M  V30 41 H 38.902050 32.654833 60.932162 0
M  V30 42 H 37.623942 31.628748 61.570311 0
M  V30 43 H 38.496579 31.139787 60.128516 0
M  V30 END ATOM
M  V30 BEGIN BOND
M  V30 1 1 2 1
M  V30 2 1 3 2
M  V30 3 1 8 1
M  V30 4 1 8 7
M  V30 5 1 9 3
M  V30 6 1 10 6
M  V30 7 1 11 4
M  V30 8 1 11 5
M  V30 9 1 12 7
M  V30 10 1 12 10
M  V30 11 1 13 10
M  V30 12 1 14 4
M  V30 13 1 14 9
M  V30 14 1 15 10
M  V30 15 1 16 1
M  V30 16 1 17 1
M  V30 17 1 18 3
M  V30 18 1 19 3
M  V30 19 1 20 4
M  V30 20 1 21 4
M  V30 21 1 22 5
M  V30 22 1 23 5
M  V30 23 1 24 5
M  V30 24 1 25 6
M  V30 25 1 26 7
M  V30 26 1 27 7
M  V30 27 1 28 8
M  V30 28 1 29 8
M  V30 29 1 30 9
M  V30 30 1 31 9
M  V30 31 1 32 11
M  V30 32 1 33 11
M  V30 33 1 34 12
M  V30 34 1 35 12
M  V30 35 1 36 13
M  V30 36 1 37 13
M  V30 37 1 38 13
M  V30 38 1 39 14
M  V30 39 1 40 14
M  V30 40 1 41 15
M  V30 41 1 42 15
M  V30 42 1 43 15
M  V30 END BOND
M  V30 END CTAB
M  END
>  <i_epik_Tot_Q>  (1) 
0

>  <i_epik_Tot_abs_Q>  (1) 
0

>  <i_i_glide_confnum>  (1) 
250

>  <i_i_glide_lignum>  (1) 
90

>  <i_i_glide_posenum>  (1) 
33

>  <i_i_glide_rotatable_bonds>  (1) 
11

>  <i_lp_mmshare_version>  (1) 
72125

>  <i_m_source_file_index>  (1) 
37

>  <i_f3d_flags>  (1) 
0

>  <num_sample>  (1) 
50

>  <b_lp_Chiralities_Consistent>  (1) 
1

>  <r_epik_Charging_Adjusted_Penalty>  (1) 
0

>  <r_epik_Ionization_Penalty>  (1) 
2.5160347815681351e-07

>  <r_epik_Ionization_Penalty_Charging>  (1) 
0

>  <r_epik_Ionization_Penalty_Neutral>  (1) 
2.5160347815681351e-07

>  <r_epik_State_Penalty>  (1) 
-0

>  <r_glide_ring_energy>  (1) 
0

>  <r_i_docking_score>  (1) 
-0.77462063929083258

>  <r_i_glide_ecoul>  (1) 
-6.085678229216632

>  <r_i_glide_eff_state_penalty>  (1) 
-0

>  <r_i_glide_einternal>  (1) 
7.7085703569367094

>  <r_i_glide_emodel>  (1) 
-27.579017467037303

>  <r_i_glide_emodel_strain>  (1) 
1.5926484656222071

>  <r_i_glide_energy>  (1) 
-31.71822820901404

>  <r_i_glide_erotb>  (1) 
5.7074406429172706

>  <r_i_glide_esite>  (1) 
0

>  <r_i_glide_evdw>  (1) 
-25.632549979797407

>  <r_i_glide_gscore>  (1) 
-0.77462063929083258

>  <r_i_glide_gscore_strain>  (1) 
0

>  <r_i_glide_hbond>  (1) 
-0.16

>  <r_i_glide_ligand_efficiency>  (1) 
-0.051641375952722175

>  <r_i_glide_ligand_efficiency_ln>  (1) 
-0.20890241428246528

>  <r_i_glide_ligand_efficiency_sa>  (1) 
-0.12735858490964264

>  <r_i_glide_lipo>  (1) 
-2.1009953462275082

>  <r_i_glide_metal>  (1) 
-0

>  <r_i_glide_rewards>  (1) 
-2.0265867026082303

>  <r_lp_Energy>  (1) 
3.2126039999999998

>  <r_lp_tautomer_probability>  (1) 
1

>  <s_epik_cmdline>  (1) 
J2VwaWtfcHl0aG9uJywgJy1waHQnLCAnMS4wJywgJy1waCcsICc3LjQnLCAnLXRuJywgJzgnLCAnLW1hJywgJzUwMCcsICctaW1hZScsICc8aW5maWxlLm1hZT4nLCAnLW9tYWUnLCAnPG91dGZpbGUubWFlPic=

>  <s_epik_input>  (1) 
W09IXUMoW0NIM10pKFtDSDNdKVtDSDJdW0NIMl1bQ0gyXVtDSDJdU1tDSDJdW0NIMl1bQ0gyXVtDSDJdW0NIMl1bQ0gzXQ==

>  <s_glide_docking_method>  (1) 
confgen

>  <s_i_glide_gridfile>  (1) 
gpcr_5ht2c_6bqh_protein_autoprepared_prepared

>  <s_lp_Force_Field>  (1) 
S-OPLS

>  <s_lp_Variant>  (1) 
DiffSBDD_36_num_sample_50-1

>  <s_m_source_file>  (1) 
generated__ligand_DiffSBDD_2026-05-06_prepared.sdf

>  <GenAI_Model>  (1) 
DiffSBDD

>  <Protein>  (1) 
GPCR_5HT2C

$$$$
DiffSBDD_45_num_sample_50
     RDKit          3D

  0  0  0  0  0  0  0  0  0  0999 V3000
M  V30 BEGIN CTAB
M  V30 COUNTS 37 36 0 0 1
M  V30 BEGIN ATOM
M  V30 1 C 37.630617 26.096801 54.394090 0
M  V30 2 C 37.341837 25.208640 55.475955 0
M  V30 3 C 40.596466 28.468423 60.207948 0
M  V30 4 C 40.894795 28.733338 58.721326 0
M  V30 5 C 39.751250 30.821431 53.173636 0
M  V30 6 C 37.804062 26.856924 53.453502 0
M  V30 7 C 40.924426 27.466711 57.847241 0
M  V30 8 O 40.667405 29.667758 60.967892 0
M  V30 9 C 39.467403 29.525124 53.364411 0
M  V30 10 C 39.548972 26.797887 57.674933 0
M  V30 11 C 38.200203 25.001964 56.497710 0
M  V30 12 C 37.961173 27.765676 52.301337 0
M  V30 13 C 39.565066 25.665172 56.637226 0
M  V30 14 C 39.483332 30.448066 60.928073 0
M  V30 15 C 39.297688 28.520288 52.239919 0
M  V30 16 H 36.391635 24.695340 55.453625 0
M  V30 17 H 39.631992 27.979014 60.348915 0
M  V30 18 H 41.351616 27.790676 60.604997 0
M  V30 19 H 41.867403 29.221429 58.653502 0
M  V30 20 H 40.173617 29.436366 58.305211 0
M  V30 21 H 39.876199 31.225474 52.179370 0
M  V30 22 H 39.862127 31.495075 54.010810 0
M  V30 23 H 41.640752 26.751717 58.253506 0
M  V30 24 H 41.304970 27.743413 56.862989 0
M  V30 25 H 39.349210 29.149415 54.370948 0
M  V30 26 H 38.819355 27.548063 57.366367 0
M  V30 27 H 39.204559 26.407146 58.632983 0
M  V30 28 H 37.920500 24.320725 57.288560 0
M  V30 29 H 37.121431 28.460777 52.300728 0
M  V30 30 H 37.867405 27.159138 51.401744 0
M  V30 31 H 40.267403 24.891218 56.945130 0
M  V30 32 H 39.938241 26.038911 55.683766 0
M  V30 33 H 39.619913 31.345859 61.530753 0
M  V30 34 H 39.233022 30.762690 59.915030 0
M  V30 35 H 38.640100 29.895722 61.342200 0
M  V30 36 H 39.366159 29.043217 51.284831 0
M  V30 37 H 40.126754 27.812275 52.253503 0
M  V30 END ATOM
M  V30 BEGIN BOND
M  V30 1 1 2 1
M  V30 2 1 4 3
M  V30 3 3 6 1
M  V30 4 1 7 4
M  V30 5 1 8 3
M  V30 6 2 9 5
M  V30 7 1 10 7
M  V30 8 2 11 2
M  V30 9 1 12 6
M  V30 10 1 13 10
M  V30 11 1 13 11
M  V30 12 1 14 8
M  V30 13 1 15 9
M  V30 14 1 15 12
M  V30 15 1 16 2
M  V30 16 1 17 3
M  V30 17 1 18 3
M  V30 18 1 19 4
M  V30 19 1 20 4
M  V30 20 1 21 5
M  V30 21 1 22 5
M  V30 22 1 23 7
M  V30 23 1 24 7
M  V30 24 1 25 9
M  V30 25 1 26 10
M  V30 26 1 27 10
M  V30 27 1 28 11
M  V30 28 1 29 12
M  V30 29 1 30 12
M  V30 30 1 31 13
M  V30 31 1 32 13
M  V30 32 1 33 14
M  V30 33 1 34 14
M  V30 34 1 35 14
M  V30 35 1 36 15
M  V30 36 1 37 15
M  V30 END BOND
M  V30 END CTAB
M  END
>  <i_epik_Tot_Q>  (1) 
0

>  <i_epik_Tot_abs_Q>  (1) 
0

>  <i_i_glide_confnum>  (1) 
181

>  <i_i_glide_lignum>  (1) 
105

>  <i_i_glide_posenum>  (1) 
356

>  <i_i_glide_rotatable_bonds>  (1) 
10

>  <i_lp_mmshare_version>  (1) 
72125

>  <i_m_source_file_index>  (1) 
46

>  <i_f3d_flags>  (1) 
0

>  <num_sample>  (1) 
50

>  <b_lp_Chiralities_Consistent>  (1) 
1

>  <r_epik_Charging_Adjusted_Penalty>  (1) 
0

>  <r_epik_Ionization_Penalty>  (1) 
1.1106675223295859e-11

>  <r_epik_Ionization_Penalty_Charging>  (1) 
0

>  <r_epik_Ionization_Penalty_Neutral>  (1) 
1.1106675223295859e-11

>  <r_epik_State_Penalty>  (1) 
-0

>  <r_glide_ring_energy>  (1) 
0

>  <r_i_docking_score>  (1) 
-0.70984825045060573

>  <r_i_glide_ecoul>  (1) 
-1.7952012618435649

>  <r_i_glide_eff_state_penalty>  (1) 
-0

>  <r_i_glide_einternal>  (1) 
4.737229762797023

>  <r_i_glide_emodel>  (1) 
-26.013586645566324

>  <r_i_glide_emodel_strain>  (1) 
0

>  <r_i_glide_energy>  (1) 
-27.19420811742382

>  <r_i_glide_erotb>  (1) 
6.9772409559876971

>  <r_i_glide_esite>  (1) 
0

>  <r_i_glide_evdw>  (1) 
-25.399006855580254

>  <r_i_glide_gscore>  (1) 
-0.70984825045060573

>  <r_i_glide_gscore_strain>  (1) 
0

>  <r_i_glide_hbond>  (1) 
-0.31127084089771528

>  <r_i_glide_ligand_efficiency>  (1) 
-0.047323216696707048

>  <r_i_glide_ligand_efficiency_ln>  (1) 
-0.19143436899522148

>  <r_i_glide_ligand_efficiency_sa>  (1) 
-0.11670908841357625

>  <r_i_glide_lipo>  (1) 
-3.6799449731412222

>  <r_i_glide_metal>  (1) 
-0

>  <r_i_glide_rewards>  (1) 
-2.1566428603438177

>  <r_lp_Energy>  (1) 
-2.2524449999999998

>  <r_lp_tautomer_probability>  (1) 
1

>  <s_epik_cmdline>  (1) 
J2VwaWtfcHl0aG9uJywgJy1waHQnLCAnMS4wJywgJy1waCcsICc3LjQnLCAnLXRuJywgJzgnLCAnLW1hJywgJzUwMCcsICctaW1hZScsICc8aW5maWxlLm1hZT4nLCAnLW9tYWUnLCAnPG91dGZpbGUubWFlPic=

>  <s_epik_input>  (1) 
W0NIMl09W0NIXVtDSDJdW0NIMl1DI0MvW0NIXT1bQ0hdXFtDSDJdW0NIMl1bQ0gyXVtDSDJdW0NIMl1PW0NIM10=

>  <s_glide_docking_method>  (1) 
confgen

>  <s_i_glide_gridfile>  (1) 
gpcr_5ht2c_6bqh_protein_autoprepared_prepared

>  <s_lp_Force_Field>  (1) 
S-OPLS

>  <s_lp_Variant>  (1) 
DiffSBDD_45_num_sample_50-2

>  <s_m_source_file>  (1) 
generated__ligand_DiffSBDD_2026-05-06_prepared.sdf

>  <GenAI_Model>  (1) 
DiffSBDD

>  <Protein>  (1) 
GPCR_5HT2C

$$$$
DiffSBDD_36_num_sample_50
     RDKit          3D

  0  0  0  0  0  0  0  0  0  0999 V3000
M  V30 BEGIN CTAB
M  V30 COUNTS 43 42 0 0 1
M  V30 BEGIN ATOM
M  V30 1 C 37.848704 29.719804 57.241102 0
M  V30 2 S 39.467199 30.021531 56.490412 0
M  V30 3 C 39.088404 31.429853 55.417760 0
M  V30 4 C 39.865644 30.652092 52.320890 0
M  V30 5 C 41.093103 30.425167 50.092811 0
M  V30 6 O 38.634138 24.421428 57.053589 0
M  V30 7 C 38.482083 27.253712 57.794993 0
M  V30 8 C 37.908010 28.600027 58.286259 0
M  V30 9 C 38.193371 31.037731 54.236041 0
M  V30 10 C 38.269317 25.330472 56.037409 0
M  V30 11 C 40.256071 29.718816 51.162602 0
M  V30 12 C 37.645174 26.584410 56.685266 0
M  V30 13 C 39.520621 25.674686 55.212538 0
M  V30 14 C 38.822753 30.021384 53.259375 0
M  V30 15 C 37.239971 24.610908 55.149451 0
M  V30 16 H 37.119465 29.478275 56.471194 0
M  V30 17 H 37.499965 30.641584 57.709127 0
M  V30 18 H 38.603413 32.203902 56.013584 0
M  V30 19 H 40.025263 31.852513 55.057561 0
M  V30 20 H 39.467410 31.576547 51.902698 0
M  V30 21 H 40.726067 30.958068 52.904470 0
M  V30 22 H 41.239929 29.787601 49.222038 0
M  V30 23 H 40.594338 31.329102 49.744020 0
M  V30 24 H 42.071996 30.710870 50.477832 0
M  V30 25 H 39.291017 24.832736 57.594119 0
M  V30 26 H 38.541202 26.579463 58.649911 0
M  V30 27 H 39.510231 27.395481 57.465281 0
M  V30 28 H 36.897111 28.456345 58.653488 0
M  V30 29 H 38.496073 28.943967 59.137826 0
M  V30 30 H 37.248301 30.643276 54.606149 0
M  V30 31 H 37.923424 31.947615 53.701286 0
M  V30 32 H 40.792723 28.848001 51.539562 0
M  V30 33 H 39.351048 29.338130 50.686744 0
M  V30 34 H 37.467405 27.303134 55.886593 0
M  V30 35 H 36.667488 26.334902 57.098507 0
M  V30 36 H 39.306992 26.454605 54.480891 0
M  V30 37 H 40.347445 26.020234 55.833229 0
M  V30 38 H 39.867196 24.806788 54.656908 0
M  V30 39 H 39.258202 29.177559 53.794217 0
M  V30 40 H 38.023116 29.593109 52.655670 0
M  V30 41 H 36.940108 25.235805 54.308354 0
M  V30 42 H 37.646600 23.687078 54.736159 0
M  V30 43 H 36.340012 24.350999 55.708353 0
M  V30 END ATOM
M  V30 BEGIN BOND
M  V30 1 1 2 1
M  V30 2 1 3 2
M  V30 3 1 8 1
M  V30 4 1 8 7
M  V30 5 1 9 3
M  V30 6 1 10 6
M  V30 7 1 11 4
M  V30 8 1 11 5
M  V30 9 1 12 7
M  V30 10 1 12 10
M  V30 11 1 13 10
M  V30 12 1 14 4
M  V30 13 1 14 9
M  V30 14 1 15 10
M  V30 15 1 16 1
M  V30 16 1 17 1
M  V30 17 1 18 3
M  V30 18 1 19 3
M  V30 19 1 20 4
M  V30 20 1 21 4
M  V30 21 1 22 5
M  V30 22 1 23 5
M  V30 23 1 24 5
M  V30 24 1 25 6
M  V30 25 1 26 7
M  V30 26 1 27 7
M  V30 27 1 28 8
M  V30 28 1 29 8
M  V30 29 1 30 9
M  V30 30 1 31 9
M  V30 31 1 32 11
M  V30 32 1 33 11
M  V30 33 1 34 12
M  V30 34 1 35 12
M  V30 35 1 36 13
M  V30 36 1 37 13
M  V30 37 1 38 13
M  V30 38 1 39 14
M  V30 39 1 40 14
M  V30 40 1 41 15
M  V30 41 1 42 15
M  V30 42 1 43 15
M  V30 END BOND
M  V30 END CTAB
M  END
>  <i_epik_Tot_Q>  (1) 
0

>  <i_epik_Tot_abs_Q>  (1) 
0

>  <i_i_glide_confnum>  (1) 
291

>  <i_i_glide_lignum>  (1) 
90

>  <i_i_glide_posenum>  (1) 
180

>  <i_i_glide_rotatable_bonds>  (1) 
11

>  <i_lp_mmshare_version>  (1) 
72125

>  <i_m_source_file_index>  (1) 
37

>  <i_f3d_flags>  (1) 
0

>  <num_sample>  (1) 
50

>  <b_lp_Chiralities_Consistent>  (1) 
1

>  <r_epik_Charging_Adjusted_Penalty>  (1) 
0

>  <r_epik_Ionization_Penalty>  (1) 
2.5160347815681351e-07

>  <r_epik_Ionization_Penalty_Charging>  (1) 
0

>  <r_epik_Ionization_Penalty_Neutral>  (1) 
2.5160347815681351e-07

>  <r_epik_State_Penalty>  (1) 
-0

>  <r_glide_ring_energy>  (1) 
0

>  <r_i_docking_score>  (1) 
-0.63925586541013513

>  <r_i_glide_ecoul>  (1) 
-1.0956378329425749

>  <r_i_glide_eff_state_penalty>  (1) 
-0

>  <r_i_glide_einternal>  (1) 
5.4470942071105402

>  <r_i_glide_emodel>  (1) 
-25.352667407691932

>  <r_i_glide_emodel_strain>  (1) 
0

>  <r_i_glide_energy>  (1) 
-26.997015877613116

>  <r_i_glide_erotb>  (1) 
5.7074406429172706

>  <r_i_glide_esite>  (1) 
0

>  <r_i_glide_evdw>  (1) 
-25.90137804467054

>  <r_i_glide_gscore>  (1) 
-0.63925586541013513

>  <r_i_glide_gscore_strain>  (1) 
0

>  <r_i_glide_hbond>  (1) 
0

>  <r_i_glide_ligand_efficiency>  (1) 
-0.04261705769400901

>  <r_i_glide_ligand_efficiency_ln>  (1) 
-0.17239676669429063

>  <r_i_glide_ligand_efficiency_sa>  (1) 
-0.1051027022574033

>  <r_i_glide_lipo>  (1) 
-2.6082201163593992

>  <r_i_glide_metal>  (1) 
-0

>  <r_i_glide_rewards>  (1) 
-2.2790618147930926

>  <r_lp_Energy>  (1) 
3.2126039999999998

>  <r_lp_tautomer_probability>  (1) 
1

>  <s_epik_cmdline>  (1) 
J2VwaWtfcHl0aG9uJywgJy1waHQnLCAnMS4wJywgJy1waCcsICc3LjQnLCAnLXRuJywgJzgnLCAnLW1hJywgJzUwMCcsICctaW1hZScsICc8aW5maWxlLm1hZT4nLCAnLW9tYWUnLCAnPG91dGZpbGUubWFlPic=

>  <s_epik_input>  (1) 
W09IXUMoW0NIM10pKFtDSDNdKVtDSDJdW0NIMl1bQ0gyXVtDSDJdU1tDSDJdW0NIMl1bQ0gyXVtDSDJdW0NIMl1bQ0gzXQ==

>  <s_glide_docking_method>  (1) 
confgen

>  <s_i_glide_gridfile>  (1) 
gpcr_5ht2c_6bqh_protein_autoprepared_prepared

>  <s_lp_Force_Field>  (1) 
S-OPLS

>  <s_lp_Variant>  (1) 
DiffSBDD_36_num_sample_50-1

>  <s_m_source_file>  (1) 
generated__ligand_DiffSBDD_2026-05-06_prepared.sdf

>  <GenAI_Model>  (1) 
DiffSBDD

>  <Protein>  (1) 
GPCR_5HT2C

$$$$
DiffSBDD_45_num_sample_50
     RDKit          3D

  0  0  0  0  0  0  0  0  0  0999 V3000
M  V30 BEGIN CTAB
M  V30 COUNTS 37 36 0 0 1
M  V30 BEGIN ATOM
M  V30 1 C 39.492690 26.421429 53.664583 0
M  V30 2 C 39.522706 25.719214 54.907763 0
M  V30 3 C 40.294969 28.644222 61.097462 0
M  V30 4 C 40.479273 28.979620 59.614688 0
M  V30 5 C 41.207600 30.572376 49.997988 0
M  V30 6 C 39.467275 26.964572 52.570835 0
M  V30 7 C 39.639320 28.098345 58.682201 0
M  V30 8 O 41.067401 29.561951 61.853491 0
M  V30 9 C 40.104350 29.821156 50.126130 0
M  V30 10 C 39.774709 28.528084 57.210719 0
M  V30 11 C 39.230810 26.309382 56.085950 0
M  V30 12 C 39.473219 27.654558 51.270071 0
M  V30 13 C 38.836912 27.773803 56.256623 0
M  V30 14 C 40.892920 29.394769 63.249527 0
M  V30 15 C 39.677559 29.166681 51.421451 0
M  V30 16 H 39.792008 24.675290 54.878191 0
M  V30 17 H 39.241730 28.722284 61.372606 0
M  V30 18 H 40.616879 27.621766 61.300220 0
M  V30 19 H 41.533095 28.892249 59.348758 0
M  V30 20 H 40.202640 30.021415 59.460273 0
M  V30 21 H 41.860773 30.750341 50.837713 0
M  V30 22 H 41.470732 31.018877 49.053528 0
M  V30 23 H 38.591767 28.156858 58.980565 0
M  V30 24 H 39.938654 27.056797 58.801713 0
M  V30 25 H 39.467414 29.659297 49.269766 0
M  V30 26 H 40.808098 28.415441 56.878936 0
M  V30 27 H 39.549222 29.592790 57.135793 0
M  V30 28 H 39.271651 25.719926 56.989988 0
M  V30 29 H 38.531695 27.442173 50.763886 0
M  V30 30 H 40.262097 27.222871 50.653509 0
M  V30 31 H 38.807147 28.309749 55.308988 0
M  V30 32 H 37.818561 27.807981 56.643064 0
M  V30 33 H 41.551235 30.078008 63.785914 0
M  V30 34 H 39.867396 29.621515 63.541881 0
M  V30 35 H 41.133368 28.377872 63.563096 0
M  V30 36 H 40.431829 29.382631 52.179304 0
M  V30 37 H 38.751362 29.621416 51.768867 0
M  V30 END ATOM
M  V30 BEGIN BOND
M  V30 1 1 2 1
M  V30 2 1 4 3
M  V30 3 3 6 1
M  V30 4 1 7 4
M  V30 5 1 8 3
M  V30 6 2 9 5
M  V30 7 1 10 7
M  V30 8 2 11 2
M  V30 9 1 12 6
M  V30 10 1 13 10
M  V30 11 1 13 11
M  V30 12 1 14 8
M  V30 13 1 15 9
M  V30 14 1 15 12
M  V30 15 1 16 2
M  V30 16 1 17 3
M  V30 17 1 18 3
M  V30 18 1 19 4
M  V30 19 1 20 4
M  V30 20 1 21 5
M  V30 21 1 22 5
M  V30 22 1 23 7
M  V30 23 1 24 7
M  V30 24 1 25 9
M  V30 25 1 26 10
M  V30 26 1 27 10
M  V30 27 1 28 11
M  V30 28 1 29 12
M  V30 29 1 30 12
M  V30 30 1 31 13
M  V30 31 1 32 13
M  V30 32 1 33 14
M  V30 33 1 34 14
M  V30 34 1 35 14
M  V30 35 1 36 15
M  V30 36 1 37 15
M  V30 END BOND
M  V30 END CTAB
M  END
>  <i_epik_Tot_Q>  (1) 
0

>  <i_epik_Tot_abs_Q>  (1) 
0

>  <i_i_glide_confnum>  (1) 
219

>  <i_i_glide_lignum>  (1) 
105

>  <i_i_glide_posenum>  (1) 
192

>  <i_i_glide_rotatable_bonds>  (1) 
10

>  <i_lp_mmshare_version>  (1) 
72125

>  <i_m_source_file_index>  (1) 
46

>  <i_f3d_flags>  (1) 
0

>  <num_sample>  (1) 
50

>  <b_lp_Chiralities_Consistent>  (1) 
1

>  <r_epik_Charging_Adjusted_Penalty>  (1) 
0

>  <r_epik_Ionization_Penalty>  (1) 
1.1106675223295859e-11

>  <r_epik_Ionization_Penalty_Charging>  (1) 
0

>  <r_epik_Ionization_Penalty_Neutral>  (1) 
1.1106675223295859e-11

>  <r_epik_State_Penalty>  (1) 
-0

>  <r_glide_ring_energy>  (1) 
0

>  <r_i_docking_score>  (1) 
-0.51917048089141915

>  <r_i_glide_ecoul>  (1) 
-3.1445704792619251

>  <r_i_glide_eff_state_penalty>  (1) 
-0

>  <r_i_glide_einternal>  (1) 
3.9331905594570764

>  <r_i_glide_emodel>  (1) 
-25.646748811948278

>  <r_i_glide_emodel_strain>  (1) 
0.049638284532242949

>  <r_i_glide_energy>  (1) 
-26.794104965669941

>  <r_i_glide_erotb>  (1) 
6.9772409559876971

>  <r_i_glide_esite>  (1) 
0

>  <r_i_glide_evdw>  (1) 
-23.649534486408015

>  <r_i_glide_gscore>  (1) 
-0.51917048089141915

>  <r_i_glide_gscore_strain>  (1) 
0

>  <r_i_glide_hbond>  (1) 
-0.32000000000000001

>  <r_i_glide_ligand_efficiency>  (1) 
-0.03461136539276128

>  <r_i_glide_ligand_efficiency_ln>  (1) 
-0.14001171848673916

>  <r_i_glide_ligand_efficiency_sa>  (1) 
-0.085358967240691641

>  <r_i_glide_lipo>  (1) 
-3.1511490575849175

>  <r_i_glide_metal>  (1) 
-0

>  <r_i_glide_rewards>  (1) 
-2.3711000830845084

>  <r_lp_Energy>  (1) 
-2.2524449999999998

>  <r_lp_tautomer_probability>  (1) 
1

>  <s_epik_cmdline>  (1) 
J2VwaWtfcHl0aG9uJywgJy1waHQnLCAnMS4wJywgJy1waCcsICc3LjQnLCAnLXRuJywgJzgnLCAnLW1hJywgJzUwMCcsICctaW1hZScsICc8aW5maWxlLm1hZT4nLCAnLW9tYWUnLCAnPG91dGZpbGUubWFlPic=

>  <s_epik_input>  (1) 
W0NIMl09W0NIXVtDSDJdW0NIMl1DI0MvW0NIXT1bQ0hdXFtDSDJdW0NIMl1bQ0gyXVtDSDJdW0NIMl1PW0NIM10=

>  <s_glide_docking_method>  (1) 
confgen

>  <s_i_glide_gridfile>  (1) 
gpcr_5ht2c_6bqh_protein_autoprepared_prepared

>  <s_lp_Force_Field>  (1) 
S-OPLS

>  <s_lp_Variant>  (1) 
DiffSBDD_45_num_sample_50-2

>  <s_m_source_file>  (1) 
generated__ligand_DiffSBDD_2026-05-06_prepared.sdf

>  <GenAI_Model>  (1) 
DiffSBDD

>  <Protein>  (1) 
GPCR_5HT2C

$$$$
DiffSBDD_45_num_sample_50
     RDKit          3D

  0  0  0  0  0  0  0  0  0  0999 V3000
M  V30 BEGIN CTAB
M  V30 COUNTS 37 36 0 0 1
M  V30 BEGIN ATOM
M  V30 1 C 39.621098 30.829342 54.002104 0
M  V30 2 C 39.359559 30.729007 55.397073 0
M  V30 3 C 38.470396 24.432128 57.289883 0
M  V30 4 C 38.114406 25.786670 57.922674 0
M  V30 5 C 39.026867 27.365769 51.956733 0
M  V30 6 C 39.888323 30.817948 52.811167 0
M  V30 7 C 38.966644 26.944361 57.384132 0
M  V30 8 O 38.230429 24.421462 55.887913 0
M  V30 9 C 39.125216 28.406672 51.117922 0
M  V30 10 C 38.501396 28.313036 57.911936 0
M  V30 11 C 39.707593 29.638453 56.099336 0
M  V30 12 C 40.228457 30.685356 51.383521 0
M  V30 13 C 39.459536 29.470394 57.585147 0
M  V30 14 C 36.865305 24.271809 55.528343 0
M  V30 15 C 40.387468 29.226959 50.925599 0
M  V30 16 H 38.868578 31.563771 55.877536 0
M  V30 17 H 39.529491 24.229981 57.453354 0
M  V30 18 H 37.928100 23.621408 57.780041 0
M  V30 19 H 38.268219 25.717543 58.999473 0
M  V30 20 H 37.055658 26.002620 57.782886 0
M  V30 21 H 39.867488 27.047455 52.554495 0
M  V30 22 H 38.100423 26.821435 52.054829 0
M  V30 23 H 38.925453 26.943541 56.294418 0
M  V30 24 H 40.010175 26.776395 57.654594 0
M  V30 25 H 38.267403 28.698770 50.536637 0
M  V30 26 H 38.386940 28.259325 58.995119 0
M  V30 27 H 37.511139 28.538208 57.512826 0
M  V30 28 H 40.197604 28.815713 55.597786 0
M  V30 29 H 41.160100 31.221370 51.214528 0
M  V30 30 H 39.468094 31.194786 50.793223 0
M  V30 31 H 40.420519 29.300633 58.071515 0
M  V30 32 H 39.062992 30.398896 57.997618 0
M  V30 33 H 36.776183 24.215999 54.443565 0
M  V30 34 H 36.441939 23.357107 55.945262 0
M  V30 35 H 36.267679 25.118778 55.861669 0
M  V30 36 H 41.218650 28.757778 51.453509 0
M  V30 37 H 40.646697 29.220380 49.866859 0
M  V30 END ATOM
M  V30 BEGIN BOND
M  V30 1 1 2 1
M  V30 2 1 4 3
M  V30 3 3 6 1
M  V30 4 1 7 4
M  V30 5 1 8 3
M  V30 6 2 9 5
M  V30 7 1 10 7
M  V30 8 2 11 2
M  V30 9 1 12 6
M  V30 10 1 13 10
M  V30 11 1 13 11
M  V30 12 1 14 8
M  V30 13 1 15 9
M  V30 14 1 15 12
M  V30 15 1 16 2
M  V30 16 1 17 3
M  V30 17 1 18 3
M  V30 18 1 19 4
M  V30 19 1 20 4
M  V30 20 1 21 5
M  V30 21 1 22 5
M  V30 22 1 23 7
M  V30 23 1 24 7
M  V30 24 1 25 9
M  V30 25 1 26 10
M  V30 26 1 27 10
M  V30 27 1 28 11
M  V30 28 1 29 12
M  V30 29 1 30 12
M  V30 30 1 31 13
M  V30 31 1 32 13
M  V30 32 1 33 14
M  V30 33 1 34 14
M  V30 34 1 35 14
M  V30 35 1 36 15
M  V30 36 1 37 15
M  V30 END BOND
M  V30 END CTAB
M  END
>  <i_epik_Tot_Q>  (1) 
0

>  <i_epik_Tot_abs_Q>  (1) 
0

>  <i_i_glide_confnum>  (1) 
264

>  <i_i_glide_lignum>  (1) 
104

>  <i_i_glide_posenum>  (1) 
69

>  <i_i_glide_rotatable_bonds>  (1) 
10

>  <i_lp_mmshare_version>  (1) 
72125

>  <i_m_source_file_index>  (1) 
46

>  <i_f3d_flags>  (1) 
0

>  <num_sample>  (1) 
50

>  <b_lp_Chiralities_Consistent>  (1) 
1

>  <r_epik_Charging_Adjusted_Penalty>  (1) 
0

>  <r_epik_Ionization_Penalty>  (1) 
1.1106675223295859e-11

>  <r_epik_Ionization_Penalty_Charging>  (1) 
0

>  <r_epik_Ionization_Penalty_Neutral>  (1) 
1.1106675223295859e-11

>  <r_epik_State_Penalty>  (1) 
-0

>  <r_glide_ring_energy>  (1) 
0

>  <r_i_docking_score>  (1) 
-0.51584783647948362

>  <r_i_glide_ecoul>  (1) 
-0.32013257125030481

>  <r_i_glide_eff_state_penalty>  (1) 
-0

>  <r_i_glide_einternal>  (1) 
4.591138508241289

>  <r_i_glide_emodel>  (1) 
-26.479538990808599

>  <r_i_glide_emodel_strain>  (1) 
0

>  <r_i_glide_energy>  (1) 
-27.893613187557165

>  <r_i_glide_erotb>  (1) 
6.9772409559876971

>  <r_i_glide_esite>  (1) 
0

>  <r_i_glide_evdw>  (1) 
-27.57348061630686

>  <r_i_glide_gscore>  (1) 
-0.51584783647948362

>  <r_i_glide_gscore_strain>  (1) 
0

>  <r_i_glide_hbond>  (1) 
0

>  <r_i_glide_ligand_efficiency>  (1) 
-0.034389855765298911

>  <r_i_glide_ligand_efficiency_ln>  (1) 
-0.13911565607341264

>  <r_i_glide_ligand_efficiency_sa>  (1) 
-0.084812677522863505

>  <r_i_glide_lipo>  (1) 
-3.5750460926151679

>  <r_i_glide_metal>  (1) 
-0

>  <r_i_glide_rewards>  (1) 
-2.4913487833491246

>  <r_lp_Energy>  (1) 
-0.036234999999999996

>  <r_lp_tautomer_probability>  (1) 
1

>  <s_epik_cmdline>  (1) 
J2VwaWtfcHl0aG9uJywgJy1waHQnLCAnMS4wJywgJy1waCcsICc3LjQnLCAnLXRuJywgJzgnLCAnLW1hJywgJzUwMCcsICctaW1hZScsICc8aW5maWxlLm1hZT4nLCAnLW9tYWUnLCAnPG91dGZpbGUubWFlPic=

>  <s_epik_input>  (1) 
W0NIMl09W0NIXVtDSDJdW0NIMl1DI0MvW0NIXT1bQ0hdL1tDSDJdW0NIMl1bQ0gyXVtDSDJdW0NIMl1PW0NIM10=

>  <s_glide_docking_method>  (1) 
confgen

>  <s_i_glide_gridfile>  (1) 
gpcr_5ht2c_6bqh_protein_autoprepared_prepared

>  <s_lp_Force_Field>  (1) 
S-OPLS

>  <s_lp_Variant>  (1) 
DiffSBDD_45_num_sample_50-1

>  <s_m_source_file>  (1) 
generated__ligand_DiffSBDD_2026-05-06_prepared.sdf

>  <GenAI_Model>  (1) 
DiffSBDD

>  <Protein>  (1) 
GPCR_5HT2C

$$$$
DiffSBDD_45_num_sample_50
     RDKit          3D

  0  0  0  0  0  0  0  0  0  0999 V3000
M  V30 BEGIN CTAB
M  V30 COUNTS 37 36 0 0 1
M  V30 BEGIN ATOM
M  V30 1 C 39.028619 28.107351 54.482148 0
M  V30 2 C 39.359118 28.227653 55.861539 0
M  V30 3 C 40.102348 29.668490 62.514226 0
M  V30 4 C 39.724612 29.707585 61.029085 0
M  V30 5 C 39.933257 30.633623 49.997390 0
M  V30 6 C 38.706929 28.062668 53.305280 0
M  V30 7 C 40.383755 28.580929 60.218245 0
M  V30 8 O 41.467421 30.021457 62.653222 0
M  V30 9 C 39.993871 29.733852 50.988950 0
M  V30 10 C 39.961333 28.589170 58.742734 0
M  V30 11 C 40.215364 27.379729 56.461708 0
M  V30 12 C 38.298863 28.053200 51.890853 0
M  V30 13 C 40.610282 27.451051 57.931071 0
M  V30 14 C 41.912634 29.956921 63.996664 0
M  V30 15 C 39.435213 28.328075 50.890541 0
M  V30 16 H 38.894478 29.029730 56.414338 0
M  V30 17 H 39.481996 30.369050 63.075802 0
M  V30 18 H 39.923235 28.671801 62.918803 0
M  V30 19 H 39.989042 30.679112 60.610391 0
M  V30 20 H 38.642150 29.621458 60.940711 0
M  V30 21 H 39.467799 30.392214 49.053497 0
M  V30 22 H 40.347867 31.621430 50.118399 0
M  V30 23 H 40.124603 27.621439 60.664020 0
M  V30 24 H 41.467405 28.663684 60.286988 0
M  V30 25 H 40.464642 30.002740 51.923404 0
M  V30 26 H 40.225540 29.551533 58.302272 0
M  V30 27 H 38.875193 28.503224 58.688172 0
M  V30 28 H 40.667601 26.584231 55.884943 0
M  V30 29 H 37.495587 28.780357 51.776136 0
M  V30 30 H 37.867406 27.073620 51.691187 0
M  V30 31 H 40.356347 26.491644 58.382621 0
M  V30 32 H 41.696419 27.537750 57.980611 0
M  V30 33 H 42.963989 30.240586 64.046746 0
M  V30 34 H 41.348095 30.639475 64.633273 0
M  V30 35 H 41.817500 28.946141 64.395681 0
M  V30 36 H 39.067389 28.165356 49.877085 0
M  V30 37 H 40.251343 27.621428 51.033101 0
M  V30 END ATOM
M  V30 BEGIN BOND
M  V30 1 1 2 1
M  V30 2 1 4 3
M  V30 3 3 6 1
M  V30 4 1 7 4
M  V30 5 1 8 3
M  V30 6 2 9 5
M  V30 7 1 10 7
M  V30 8 2 11 2
M  V30 9 1 12 6
M  V30 10 1 13 10
M  V30 11 1 13 11
M  V30 12 1 14 8
M  V30 13 1 15 9
M  V30 14 1 15 12
M  V30 15 1 16 2
M  V30 16 1 17 3
M  V30 17 1 18 3
M  V30 18 1 19 4
M  V30 19 1 20 4
M  V30 20 1 21 5
M  V30 21 1 22 5
M  V30 22 1 23 7
M  V30 23 1 24 7
M  V30 24 1 25 9
M  V30 25 1 26 10
M  V30 26 1 27 10
M  V30 27 1 28 11
M  V30 28 1 29 12
M  V30 29 1 30 12
M  V30 30 1 31 13
M  V30 31 1 32 13
M  V30 32 1 33 14
M  V30 33 1 34 14
M  V30 34 1 35 14
M  V30 35 1 36 15
M  V30 36 1 37 15
M  V30 END BOND
M  V30 END CTAB
M  END
>  <i_epik_Tot_Q>  (1) 
0

>  <i_epik_Tot_abs_Q>  (1) 
0

>  <i_i_glide_confnum>  (1) 
234

>  <i_i_glide_lignum>  (1) 
104

>  <i_i_glide_posenum>  (1) 
347

>  <i_i_glide_rotatable_bonds>  (1) 
10

>  <i_lp_mmshare_version>  (1) 
72125

>  <i_m_source_file_index>  (1) 
46

>  <i_f3d_flags>  (1) 
0

>  <num_sample>  (1) 
50

>  <b_lp_Chiralities_Consistent>  (1) 
1

>  <r_epik_Charging_Adjusted_Penalty>  (1) 
0

>  <r_epik_Ionization_Penalty>  (1) 
1.1106675223295859e-11

>  <r_epik_Ionization_Penalty_Charging>  (1) 
0

>  <r_epik_Ionization_Penalty_Neutral>  (1) 
1.1106675223295859e-11

>  <r_epik_State_Penalty>  (1) 
-0

>  <r_glide_ring_energy>  (1) 
0

>  <r_i_docking_score>  (1) 
-0.49353577330605536

>  <r_i_glide_ecoul>  (1) 
-3.1654724567367678

>  <r_i_glide_eff_state_penalty>  (1) 
-0

>  <r_i_glide_einternal>  (1) 
6.5183068095593679

>  <r_i_glide_emodel>  (1) 
-24.165476884814794

>  <r_i_glide_emodel_strain>  (1) 
0

>  <r_i_glide_energy>  (1) 
-26.58126270318628

>  <r_i_glide_erotb>  (1) 
6.9772409559876971

>  <r_i_glide_esite>  (1) 
0

>  <r_i_glide_evdw>  (1) 
-23.415790246449511

>  <r_i_glide_gscore>  (1) 
-0.49353577330605536

>  <r_i_glide_gscore_strain>  (1) 
0

>  <r_i_glide_hbond>  (1) 
-0.32000000000000001

>  <r_i_glide_ligand_efficiency>  (1) 
-0.032902384887070354

>  <r_i_glide_ligand_efficiency_ln>  (1) 
-0.13309846052228552

>  <r_i_glide_ligand_efficiency_sa>  (1) 
-0.081144258882761305

>  <r_i_glide_lipo>  (1) 
-3.1148922860723824

>  <r_i_glide_metal>  (1) 
-0

>  <r_i_glide_rewards>  (1) 
-2.3902740623883787

>  <r_lp_Energy>  (1) 
-0.036234999999999996

>  <r_lp_tautomer_probability>  (1) 
1

>  <s_epik_cmdline>  (1) 
J2VwaWtfcHl0aG9uJywgJy1waHQnLCAnMS4wJywgJy1waCcsICc3LjQnLCAnLXRuJywgJzgnLCAnLW1hJywgJzUwMCcsICctaW1hZScsICc8aW5maWxlLm1hZT4nLCAnLW9tYWUnLCAnPG91dGZpbGUubWFlPic=

>  <s_epik_input>  (1) 
W0NIMl09W0NIXVtDSDJdW0NIMl1DI0MvW0NIXT1bQ0hdL1tDSDJdW0NIMl1bQ0gyXVtDSDJdW0NIMl1PW0NIM10=

>  <s_glide_docking_method>  (1) 
confgen

>  <s_i_glide_gridfile>  (1) 
gpcr_5ht2c_6bqh_protein_autoprepared_prepared

>  <s_lp_Force_Field>  (1) 
S-OPLS

>  <s_lp_Variant>  (1) 
DiffSBDD_45_num_sample_50-1

>  <s_m_source_file>  (1) 
generated__ligand_DiffSBDD_2026-05-06_prepared.sdf

>  <GenAI_Model>  (1) 
DiffSBDD

>  <Protein>  (1) 
GPCR_5HT2C

$$$$
DiffSBDD_36_num_sample_50
     RDKit          3D

  0  0  0  0  0  0  0  0  0  0999 V3000
M  V30 BEGIN CTAB
M  V30 COUNTS 43 42 0 0 1
M  V30 BEGIN ATOM
M  V30 1 C 38.665996 33.378203 58.784537 0
M  V30 2 S 38.267403 31.686076 58.265551 0
M  V30 3 C 38.600014 31.837071 56.482482 0
M  V30 4 C 38.705828 29.219773 53.539102 0
M  V30 5 C 39.054675 27.878185 51.390339 0
M  V30 6 O 40.064937 36.119138 64.296957 0
M  V30 7 C 39.289880 34.880198 60.774449 0
M  V30 8 C 38.664985 33.547541 60.313121 0
M  V30 9 C 38.406305 30.505868 55.738330 0
M  V30 10 C 40.160628 36.176572 62.892996 0
M  V30 11 C 39.375771 29.169694 52.153050 0
M  V30 12 C 39.293278 35.036117 62.311300 0
M  V30 13 C 39.629214 37.559383 62.508084 0
M  V30 14 C 38.952846 30.536505 54.297529 0
M  V30 15 C 41.651128 36.000996 62.596502 0
M  V30 16 H 37.948965 34.056620 58.322023 0
M  V30 17 H 39.650979 33.621422 58.388728 0
M  V30 18 H 37.944682 32.600941 56.061089 0
M  V30 19 H 39.625240 32.186413 56.356099 0
M  V30 20 H 39.070278 28.384198 54.137848 0
M  V30 21 H 37.631006 29.068946 53.430174 0
M  V30 22 H 39.529369 27.876436 50.408868 0
M  V30 23 H 39.407070 26.999440 51.931784 0
M  V30 24 H 37.980605 27.767877 51.237865 0
M  V30 25 H 40.623945 36.797802 64.653575 0
M  V30 26 H 38.754157 35.716812 60.324067 0
M  V30 27 H 40.305710 34.927972 60.388286 0
M  V30 28 H 39.225982 32.725577 60.759456 0
M  V30 29 H 37.644373 33.461971 60.687891 0
M  V30 30 H 38.906958 29.708743 56.288762 0
M  V30 31 H 37.344091 30.255255 55.730706 0
M  V30 32 H 39.067423 30.021429 51.551044 0
M  V30 33 H 40.455963 29.265618 52.253501 0
M  V30 34 H 39.601198 34.092992 62.765329 0
M  V30 35 H 38.267404 35.214539 62.627485 0
M  V30 36 H 39.768172 37.759298 61.453501 0
M  V30 37 H 38.561427 37.621430 62.719666 0
M  V30 38 H 40.135769 38.354914 63.054460 0
M  V30 39 H 38.496793 31.363402 53.751972 0
M  V30 40 H 40.023844 30.742234 54.326393 0
M  V30 41 H 41.867213 36.021433 61.529305 0
M  V30 42 H 42.242529 36.789282 63.059008 0
M  V30 43 H 42.003719 35.050035 62.997649 0
M  V30 END ATOM
M  V30 BEGIN BOND
M  V30 1 1 2 1
M  V30 2 1 3 2
M  V30 3 1 8 1
M  V30 4 1 8 7
M  V30 5 1 9 3
M  V30 6 1 10 6
M  V30 7 1 11 4
M  V30 8 1 11 5
M  V30 9 1 12 7
M  V30 10 1 12 10
M  V30 11 1 13 10
M  V30 12 1 14 4
M  V30 13 1 14 9
M  V30 14 1 15 10
M  V30 15 1 16 1
M  V30 16 1 17 1
M  V30 17 1 18 3
M  V30 18 1 19 3
M  V30 19 1 20 4
M  V30 20 1 21 4
M  V30 21 1 22 5
M  V30 22 1 23 5
M  V30 23 1 24 5
M  V30 24 1 25 6
M  V30 25 1 26 7
M  V30 26 1 27 7
M  V30 27 1 28 8
M  V30 28 1 29 8
M  V30 29 1 30 9
M  V30 30 1 31 9
M  V30 31 1 32 11
M  V30 32 1 33 11
M  V30 33 1 34 12
M  V30 34 1 35 12
M  V30 35 1 36 13
M  V30 36 1 37 13
M  V30 37 1 38 13
M  V30 38 1 39 14
M  V30 39 1 40 14
M  V30 40 1 41 15
M  V30 41 1 42 15
M  V30 42 1 43 15
M  V30 END BOND
M  V30 END CTAB
M  END
>  <i_epik_Tot_Q>  (1) 
0

>  <i_epik_Tot_abs_Q>  (1) 
0

>  <i_i_glide_confnum>  (1) 
78

>  <i_i_glide_lignum>  (1) 
90

>  <i_i_glide_posenum>  (1) 
397

>  <i_i_glide_rotatable_bonds>  (1) 
11

>  <i_lp_mmshare_version>  (1) 
72125

>  <i_m_source_file_index>  (1) 
37

>  <i_f3d_flags>  (1) 
0

>  <num_sample>  (1) 
50

>  <b_lp_Chiralities_Consistent>  (1) 
1

>  <r_epik_Charging_Adjusted_Penalty>  (1) 
0

>  <r_epik_Ionization_Penalty>  (1) 
2.5160347815681351e-07

>  <r_epik_Ionization_Penalty_Charging>  (1) 
0

>  <r_epik_Ionization_Penalty_Neutral>  (1) 
2.5160347815681351e-07

>  <r_epik_State_Penalty>  (1) 
-0

>  <r_glide_ring_energy>  (1) 
0

>  <r_i_docking_score>  (1) 
-0.39490968407535948

>  <r_i_glide_ecoul>  (1) 
-2.2754961509136717

>  <r_i_glide_eff_state_penalty>  (1) 
-0

>  <r_i_glide_einternal>  (1) 
1.8895399868075713

>  <r_i_glide_emodel>  (1) 
-25.24649929717474

>  <r_i_glide_emodel_strain>  (1) 
0

>  <r_i_glide_energy>  (1) 
-25.524578510683117

>  <r_i_glide_erotb>  (1) 
5.7074406429172706

>  <r_i_glide_esite>  (1) 
0

>  <r_i_glide_evdw>  (1) 
-23.249082359769446

>  <r_i_glide_gscore>  (1) 
-0.39490968407535948

>  <r_i_glide_gscore_strain>  (1) 
0

>  <r_i_glide_hbond>  (1) 
-0.272327554112755

>  <r_i_glide_ligand_efficiency>  (1) 
-0.02632731227169063

>  <r_i_glide_ligand_efficiency_ln>  (1) 
-0.10650063042781174

>  <r_i_glide_ligand_efficiency_sa>  (1) 
-0.064928735409112204

>  <r_i_glide_lipo>  (1) 
-2.1791848900031408

>  <r_i_glide_metal>  (1) 
-0

>  <r_i_glide_rewards>  (1) 
-2.147059342251211

>  <r_lp_Energy>  (1) 
3.2126039999999998

>  <r_lp_tautomer_probability>  (1) 
1

>  <s_epik_cmdline>  (1) 
J2VwaWtfcHl0aG9uJywgJy1waHQnLCAnMS4wJywgJy1waCcsICc3LjQnLCAnLXRuJywgJzgnLCAnLW1hJywgJzUwMCcsICctaW1hZScsICc8aW5maWxlLm1hZT4nLCAnLW9tYWUnLCAnPG91dGZpbGUubWFlPic=

>  <s_epik_input>  (1) 
W09IXUMoW0NIM10pKFtDSDNdKVtDSDJdW0NIMl1bQ0gyXVtDSDJdU1tDSDJdW0NIMl1bQ0gyXVtDSDJdW0NIMl1bQ0gzXQ==

>  <s_glide_docking_method>  (1) 
confgen

>  <s_i_glide_gridfile>  (1) 
gpcr_5ht2c_6bqh_protein_autoprepared_prepared

>  <s_lp_Force_Field>  (1) 
S-OPLS

>  <s_lp_Variant>  (1) 
DiffSBDD_36_num_sample_50-1

>  <s_m_source_file>  (1) 
generated__ligand_DiffSBDD_2026-05-06_prepared.sdf

>  <GenAI_Model>  (1) 
DiffSBDD

>  <Protein>  (1) 
GPCR_5HT2C

$$$$
DiffSBDD_45_num_sample_50
     RDKit          3D

  0  0  0  0  0  0  0  0  0  0999 V3000
M  V30 BEGIN CTAB
M  V30 COUNTS 37 36 0 0 1
M  V30 BEGIN ATOM
M  V30 1 C 39.337959 26.466675 53.853504 0
M  V30 2 C 39.451728 25.758453 55.088686 0
M  V30 3 C 40.486851 28.697647 61.056395 0
M  V30 4 C 40.239829 29.186328 59.620198 0
M  V30 5 C 41.111966 30.421407 50.252999 0
M  V30 6 C 39.191217 27.009894 52.769058 0
M  V30 7 C 39.569619 28.120802 58.741042 0
M  V30 8 O 41.067357 29.720646 61.853508 0
M  V30 9 C 40.721550 29.418736 51.053445 0
M  V30 10 C 39.343355 28.605137 57.297770 0
M  V30 11 C 39.062822 26.282903 56.270633 0
M  V30 12 C 38.933323 27.644090 51.464429 0
M  V30 13 C 38.457481 27.671502 56.456470 0
M  V30 14 C 40.118194 30.614299 62.415558 0
M  V30 15 C 39.279118 29.141316 51.414178 0
M  V30 16 H 39.867408 24.765004 55.050409 0
M  V30 17 H 39.572785 28.313269 61.513508 0
M  V30 18 H 41.190505 27.866444 61.026906 0
M  V30 19 H 41.190393 29.482463 59.174635 0
M  V30 20 H 39.610473 30.075662 59.632270 0
M  V30 21 H 40.392541 31.098605 49.815465 0
M  V30 22 H 42.155896 30.577976 50.026606 0
M  V30 23 H 38.613420 27.844109 59.186608 0
M  V30 24 H 40.182077 27.218628 58.736072 0
M  V30 25 H 41.462544 28.759444 51.476856 0
M  V30 26 H 40.303739 28.748003 56.800761 0
M  V30 27 H 38.868898 29.587161 57.323974 0
M  V30 28 H 39.178349 25.692209 57.167728 0
M  V30 29 H 37.867424 27.517965 51.277361 0
M  V30 30 H 39.453350 27.086173 50.684558 0
M  V30 31 H 38.233128 28.159754 55.508870 0
M  V30 32 H 37.494272 27.545146 56.952043 0
M  V30 33 H 40.633335 31.350713 63.031941 0
M  V30 34 H 39.562755 31.153688 61.648473 0
M  V30 35 H 39.409036 30.085413 63.053512 0
M  V30 36 H 39.042078 29.627877 52.361485 0
M  V30 37 H 38.667431 29.621454 50.654431 0
M  V30 END ATOM
M  V30 BEGIN BOND
M  V30 1 1 2 1
M  V30 2 1 4 3
M  V30 3 3 6 1
M  V30 4 1 7 4
M  V30 5 1 8 3
M  V30 6 2 9 5
M  V30 7 1 10 7
M  V30 8 2 11 2
M  V30 9 1 12 6
M  V30 10 1 13 10
M  V30 11 1 13 11
M  V30 12 1 14 8
M  V30 13 1 15 9
M  V30 14 1 15 12
M  V30 15 1 16 2
M  V30 16 1 17 3
M  V30 17 1 18 3
M  V30 18 1 19 4
M  V30 19 1 20 4
M  V30 20 1 21 5
M  V30 21 1 22 5
M  V30 22 1 23 7
M  V30 23 1 24 7
M  V30 24 1 25 9
M  V30 25 1 26 10
M  V30 26 1 27 10
M  V30 27 1 28 11
M  V30 28 1 29 12
M  V30 29 1 30 12
M  V30 30 1 31 13
M  V30 31 1 32 13
M  V30 32 1 33 14
M  V30 33 1 34 14
M  V30 34 1 35 14
M  V30 35 1 36 15
M  V30 36 1 37 15
M  V30 END BOND
M  V30 END CTAB
M  END
>  <i_epik_Tot_Q>  (1) 
0

>  <i_epik_Tot_abs_Q>  (1) 
0

>  <i_i_glide_confnum>  (1) 
347

>  <i_i_glide_lignum>  (1) 
105

>  <i_i_glide_posenum>  (1) 
306

>  <i_i_glide_rotatable_bonds>  (1) 
10

>  <i_lp_mmshare_version>  (1) 
72125

>  <i_m_source_file_index>  (1) 
46

>  <i_f3d_flags>  (1) 
0

>  <num_sample>  (1) 
50

>  <b_lp_Chiralities_Consistent>  (1) 
1

>  <r_epik_Charging_Adjusted_Penalty>  (1) 
0

>  <r_epik_Ionization_Penalty>  (1) 
1.1106675223295859e-11

>  <r_epik_Ionization_Penalty_Charging>  (1) 
0

>  <r_epik_Ionization_Penalty_Neutral>  (1) 
1.1106675223295859e-11

>  <r_epik_State_Penalty>  (1) 
-0

>  <r_glide_ring_energy>  (1) 
0

>  <r_i_docking_score>  (1) 
-0.34568217275449364

>  <r_i_glide_ecoul>  (1) 
-2.7383877998526116

>  <r_i_glide_eff_state_penalty>  (1) 
-0

>  <r_i_glide_einternal>  (1) 
5.0658663834321995

>  <r_i_glide_emodel>  (1) 
-25.356828882787823

>  <r_i_glide_emodel_strain>  (1) 
0.25698761400651371

>  <r_i_glide_energy>  (1) 
-27.568220203134558

>  <r_i_glide_erotb>  (1) 
6.9772409559876971

>  <r_i_glide_esite>  (1) 
0

>  <r_i_glide_evdw>  (1) 
-24.829832403281948

>  <r_i_glide_gscore>  (1) 
-0.34568217275449364

>  <r_i_glide_gscore_strain>  (1) 
0

>  <r_i_glide_hbond>  (1) 
-0.32000000000000001

>  <r_i_glide_ligand_efficiency>  (1) 
-0.023045478183632909

>  <r_i_glide_ligand_efficiency_ln>  (1) 
-0.093224782299802827

>  <r_i_glide_ligand_efficiency_sa>  (1) 
-0.056835036555194923

>  <r_i_glide_lipo>  (1) 
-3.131044907716086

>  <r_i_glide_metal>  (1) 
-0

>  <r_i_glide_rewards>  (1) 
-2.2196284308841152

>  <r_lp_Energy>  (1) 
-2.2524449999999998

>  <r_lp_tautomer_probability>  (1) 
1

>  <s_epik_cmdline>  (1) 
J2VwaWtfcHl0aG9uJywgJy1waHQnLCAnMS4wJywgJy1waCcsICc3LjQnLCAnLXRuJywgJzgnLCAnLW1hJywgJzUwMCcsICctaW1hZScsICc8aW5maWxlLm1hZT4nLCAnLW9tYWUnLCAnPG91dGZpbGUubWFlPic=

>  <s_epik_input>  (1) 
W0NIMl09W0NIXVtDSDJdW0NIMl1DI0MvW0NIXT1bQ0hdXFtDSDJdW0NIMl1bQ0gyXVtDSDJdW0NIMl1PW0NIM10=

>  <s_glide_docking_method>  (1) 
confgen

>  <s_i_glide_gridfile>  (1) 
gpcr_5ht2c_6bqh_protein_autoprepared_prepared

>  <s_lp_Force_Field>  (1) 
S-OPLS

>  <s_lp_Variant>  (1) 
DiffSBDD_45_num_sample_50-2

>  <s_m_source_file>  (1) 
generated__ligand_DiffSBDD_2026-05-06_prepared.sdf

>  <GenAI_Model>  (1) 
DiffSBDD

>  <Protein>  (1) 
GPCR_5HT2C

$$$$
DiffSBDD_0_num_sample_50
     RDKit          3D

  0  0  0  0  0  0  0  0  0  0999 V3000
M  V30 BEGIN CTAB
M  V30 COUNTS 65 69 0 0 1
M  V30 BEGIN ATOM
M  V30 1 C 36.559297 35.470446 61.867345 0
M  V30 2 C 36.544853 34.439113 60.917955 0
M  V30 3 C 36.890615 33.597102 58.555485 0
M  V30 4 S 38.971144 27.302596 52.687207 0
M  V30 5 O 38.549353 26.497384 55.533859 0
M  V30 6 C 36.934357 30.617791 59.468662 0
M  V30 7 C 42.900717 26.910426 58.032829 0
M  V30 8 C 37.172074 36.043309 59.204958 0
M  V30 9 C 38.075360 31.604430 59.735090 0
M  V30 10 C 39.876150 29.472452 50.421401 0
M  V30 11 C 39.835607 29.815249 52.622481 0
M  V30 12 F 36.885326 37.768222 62.419674 0
M  V30 13 C 37.190764 37.071926 60.161129 0
M  V30 14 C 39.867172 30.980655 52.025744 0
M  V30 15 C 39.985769 28.555670 51.689982 0 CFG=1
M  V30 16 C 38.517280 27.887675 58.634775 0
M  V30 17 C 41.025759 28.106390 56.853222 0
M  V30 18 O 37.866864 26.901492 58.252134 0
M  V30 19 C 39.081564 27.600158 55.417569 0
M  V30 20 C 40.665547 25.616963 57.611867 0
M  V30 21 C 38.856841 28.883868 57.549766 0 CFG=2
M  V30 22 C 38.151521 32.683876 58.650929 0 CFG=1
M  V30 23 C 41.375118 26.969101 57.838542 0
M  V30 24 N 37.467545 30.939397 56.986262 0 CFG=1 CHG=1
M  V30 25 C 39.614990 29.570106 53.976976 0
M  V30 26 C 37.599738 29.516277 57.029709 0 CFG=2
M  V30 27 C 39.246135 28.313385 54.151222 0
M  V30 28 N 39.619561 28.278021 56.474092 0
M  V30 29 C 36.710462 30.193399 58.018210 0 CFG=1
M  V30 30 C 36.869003 34.718422 59.585799 0
M  V30 31 O 38.895625 28.123958 59.802671 0 CHG=-1
M  V30 32 C 38.495321 31.938153 57.352236 0
M  V30 33 C 36.889657 36.782604 61.495416 0
M  V30 34 C 39.885856 30.776580 50.665985 0
M  V30 35 H 36.267044 35.268175 62.882922 0
M  V30 36 H 36.273755 33.435311 61.212218 0
M  V30 37 H 36.851917 34.021615 57.554345 0
M  V30 38 H 35.961814 33.036810 58.655198 0
M  V30 39 H 36.002456 31.078148 59.788811 0
M  V30 40 H 37.014314 29.736079 60.096594 0
M  V30 41 H 43.441804 26.821541 57.090290 0
M  V30 42 H 43.246271 27.828798 58.503163 0
M  V30 43 H 43.202471 26.086008 58.678861 0
M  V30 44 H 37.416558 36.265219 58.178190 0
M  V30 45 H 37.964753 32.042439 60.721762 0
M  V30 46 H 39.018037 31.062484 59.773431 0
M  V30 47 H 39.862176 29.044510 49.431826 0
M  V30 48 H 37.432600 38.082767 59.866718 0
M  V30 49 H 39.763025 31.933015 52.511878 0
M  V30 50 H 41.027634 28.235328 51.734113 0
M  V30 51 H 41.623146 28.110511 55.953478 0
M  V30 52 H 41.327326 28.964564 57.445298 0
M  V30 53 H 40.666434 25.250200 56.589587 0
M  V30 54 H 41.067139 24.857933 58.255737 0
M  V30 55 H 39.640838 25.566170 57.912275 0
M  V30 56 H 39.472220 29.599741 58.078091 0
M  V30 57 H 39.002570 33.334521 58.860143 0
M  V30 58 H 41.040922 27.273322 58.825453 0
M  V30 59 H 39.786799 30.286181 54.769701 0
M  V30 60 H 37.153827 29.164210 56.106410 0
M  V30 61 H 35.666497 30.018216 57.777264 0
M  V30 62 H 38.579305 32.625399 56.508182 0
M  V30 63 H 39.473781 31.496925 57.422198 0
M  V30 64 H 39.851602 31.554067 49.915952 0
M  V30 65 H 36.667486 31.376666 56.525511 0
M  V30 END ATOM
M  V30 BEGIN BOND
M  V30 1 2 2 1
M  V30 2 1 9 6
M  V30 3 1 13 8
M  V30 4 2 14 11
M  V30 5 1 15 4
M  V30 6 1 15 10
M  V30 7 1 15 11
M  V30 8 2 18 16
M  V30 9 2 19 5
M  V30 10 1 21 16
M  V30 11 1 22 3
M  V30 12 1 22 9
M  V30 13 1 23 7
M  V30 14 1 23 17
M  V30 15 1 23 20
M  V30 16 1 25 11
M  V30 17 1 26 21
M  V30 18 1 26 24
M  V30 19 1 27 4
M  V30 20 1 27 19
M  V30 21 2 27 25
M  V30 22 1 28 17
M  V30 23 1 28 19
M  V30 24 1 28 21
M  V30 25 1 29 6
M  V30 26 1 29 24
M  V30 27 1 29 26
M  V30 28 1 30 2
M  V30 29 1 30 3
M  V30 30 2 30 8
M  V30 31 1 31 16
M  V30 32 1 32 22
M  V30 33 1 32 24
M  V30 34 1 33 1
M  V30 35 1 33 12
M  V30 36 2 33 13
M  V30 37 2 34 10
M  V30 38 1 34 14
M  V30 39 1 35 1
M  V30 40 1 36 2
M  V30 41 1 37 3
M  V30 42 1 38 3
M  V30 43 1 39 6
M  V30 44 1 40 6
M  V30 45 1 41 7
M  V30 46 1 42 7
M  V30 47 1 43 7
M  V30 48 1 44 8
M  V30 49 1 45 9
M  V30 50 1 46 9
M  V30 51 1 47 10
M  V30 52 1 48 13
M  V30 53 1 49 14
M  V30 54 1 15 50 CFG=3
M  V30 55 1 51 17
M  V30 56 1 52 17
M  V30 57 1 53 20
M  V30 58 1 54 20
M  V30 59 1 55 20
M  V30 60 1 21 56 CFG=1
M  V30 61 1 22 57 CFG=1
M  V30 62 1 58 23
M  V30 63 1 59 25
M  V30 64 1 26 60 CFG=3
M  V30 65 1 29 61 CFG=3
M  V30 66 1 62 32
M  V30 67 1 63 32
M  V30 68 1 64 34
M  V30 69 1 24 65 CFG=3
M  V30 END BOND
M  V30 END CTAB
M  END
>  <i_epik_Tot_Q>  (1) 
0

>  <i_epik_Tot_abs_Q>  (1) 
2

>  <i_i_glide_confnum>  (1) 
115

>  <i_i_glide_lignum>  (1) 
1

>  <i_i_glide_posenum>  (1) 
66

>  <i_i_glide_rotatable_bonds>  (1) 
9

>  <i_lp_mmshare_version>  (1) 
72125

>  <i_m_source_file_index>  (1) 
1

>  <i_f3d_flags>  (1) 
0

>  <num_sample>  (1) 
50

>  <b_lp_Chiralities_Consistent>  (1) 
1

>  <r_epik_Charging_Adjusted_Penalty>  (1) 
0.0020295482604282666

>  <r_epik_Ionization_Penalty>  (1) 
0.0020295482639142975

>  <r_epik_Ionization_Penalty_Charging>  (1) 
0.0020295482604282666

>  <r_epik_Ionization_Penalty_Neutral>  (1) 
3.4860309872641501e-12

>  <r_epik_State_Penalty>  (1) 
-0

>  <r_glide_ring_energy>  (1) 
1.8755015890792339

>  <r_i_docking_score>  (1) 
-0.23642426710677344

>  <r_i_glide_ecoul>  (1) 
-7.0317191695843029

>  <r_i_glide_eff_state_penalty>  (1) 
-0

>  <r_i_glide_einternal>  (1) 
12.283985270138324

>  <r_i_glide_emodel>  (1) 
3.3138767194109997

>  <r_i_glide_emodel_strain>  (1) 
4.2788020376250415

>  <r_i_glide_energy>  (1) 
-6.5211079096860507

>  <r_i_glide_erotb>  (1) 
0.52278502944784222

>  <r_i_glide_esite>  (1) 
-0.085759125759181987

>  <r_i_glide_evdw>  (1) 
0.5106112598982524

>  <r_i_glide_gscore>  (1) 
-0.23642426710677344

>  <r_i_glide_gscore_strain>  (1) 
0.06970050940626038

>  <r_i_glide_hbond>  (1) 
-0.11973392917940034

>  <r_i_glide_ligand_efficiency>  (1) 
-0.0069536549149051014

>  <r_i_glide_ligand_efficiency_ln>  (1) 
-0.052232752079955536

>  <r_i_glide_ligand_efficiency_sa>  (1) 
-0.022527142524337743

>  <r_i_glide_lipo>  (1) 
-3.4805698157288791

>  <r_i_glide_metal>  (1) 
-0

>  <r_i_glide_rewards>  (1) 
3.8863803771493184

>  <r_lp_Energy>  (1) 
57.080993999999997

>  <r_lp_tautomer_probability>  (1) 
1

>  <s_epik_cmdline>  (1) 
J2VwaWtfcHl0aG9uJywgJy1waHQnLCAnMS4wJywgJy1waCcsICc3LjQnLCAnLXRuJywgJzgnLCAnLW1hJywgJzUwMCcsICctaW1hZScsICc8aW5maWxlLm1hZT4nLCAnLW9tYWUnLCAnPG91dGZpbGUubWFlPic=

>  <s_epik_input>  (1) 
W2NIXTFbY0hdYyhGKVtjSF1bY0hdYzFbQ0gyXVtDQEhdKFtDSDJdMilbQ0gyXVtDSDJdW0NIXShOMjMpW0NAQEhdM1tDQEBIXShDKD1PKVtPSF0pTihbQ0gyXVtDSF0oW0NIM10pW0NIM10pQyg9TylDKD1bQ0hdNClTW0NASF0oQzQ9NSlbQ0hdPVtDSF1bQ0hdNQ==

>  <s_glide_docking_method>  (1) 
confgen

>  <s_i_glide_gridfile>  (1) 
gpcr_5ht2c_6bqh_protein_autoprepared_prepared

>  <s_lp_Force_Field>  (1) 
S-OPLS

>  <s_lp_Variant>  (1) 
DiffSBDD_0_num_sample_50-1

>  <s_m_source_file>  (1) 
generated__ligand_DiffSBDD_2026-05-06_prepared.sdf

>  <GenAI_Model>  (1) 
DiffSBDD

>  <Protein>  (1) 
GPCR_5HT2C

$$$$
DiffSBDD_45_num_sample_50
     RDKit          3D

  0  0  0  0  0  0  0  0  0  0999 V3000
M  V30 BEGIN CTAB
M  V30 COUNTS 37 36 0 0 1
M  V30 BEGIN ATOM
M  V30 1 C 39.867405 30.437712 52.668263 0
M  V30 2 C 40.176862 29.761011 51.452275 0
M  V30 3 C 36.930580 24.990013 55.666988 0
M  V30 4 C 38.139190 25.669009 55.005499 0
M  V30 5 C 38.880081 33.077358 57.537001 0
M  V30 6 C 39.641297 30.911310 53.769676 0
M  V30 7 C 37.705738 26.574519 53.841506 0
M  V30 8 O 37.306727 24.021431 56.631012 0
M  V30 9 C 37.984000 33.072351 56.539887 0
M  V30 10 C 38.879787 27.193188 53.068763 0
M  V30 11 C 39.522492 28.648708 51.065892 0
M  V30 12 C 39.422660 31.458019 55.115486 0
M  V30 13 C 38.395201 27.997059 51.851698 0
M  V30 14 C 37.784351 24.563751 57.849166 0
M  V30 15 C 38.162221 32.334247 55.221316 0
M  V30 16 H 40.967292 30.171640 50.840669 0
M  V30 17 H 36.267378 25.731255 56.111364 0
M  V30 18 H 36.350051 24.466631 54.906021 0
M  V30 19 H 38.826544 24.900151 54.653492 0
M  V30 20 H 38.689323 26.260836 55.737295 0
M  V30 21 H 39.807010 32.542458 57.453484 0
M  V30 22 H 38.690876 33.621433 58.449851 0
M  V30 23 H 37.068824 27.372304 54.226228 0
M  V30 24 H 37.082883 26.007450 53.149951 0
M  V30 25 H 37.067403 33.621431 56.657595 0
M  V30 26 H 39.568201 26.421078 52.731577 0
M  V30 27 H 39.450265 27.829006 53.745107 0
M  V30 28 H 39.798011 28.168807 50.138906 0
M  V30 29 H 40.318481 32.021426 55.365010 0
M  V30 30 H 39.363472 30.621477 55.812130 0
M  V30 31 H 37.674865 28.755330 52.161098 0
M  V30 32 H 37.867403 27.336532 51.165631 0
M  V30 33 H 37.867403 23.760814 58.579725 0
M  V30 34 H 38.768043 25.017975 57.728959 0
M  V30 35 H 37.097552 25.307230 58.253421 0
M  V30 36 H 37.277022 31.714536 55.068640 0
M  V30 37 H 38.144655 33.081382 54.429339 0
M  V30 END ATOM
M  V30 BEGIN BOND
M  V30 1 1 2 1
M  V30 2 1 4 3
M  V30 3 3 6 1
M  V30 4 1 7 4
M  V30 5 1 8 3
M  V30 6 2 9 5
M  V30 7 1 10 7
M  V30 8 2 11 2
M  V30 9 1 12 6
M  V30 10 1 13 10
M  V30 11 1 13 11
M  V30 12 1 14 8
M  V30 13 1 15 9
M  V30 14 1 15 12
M  V30 15 1 16 2
M  V30 16 1 17 3
M  V30 17 1 18 3
M  V30 18 1 19 4
M  V30 19 1 20 4
M  V30 20 1 21 5
M  V30 21 1 22 5
M  V30 22 1 23 7
M  V30 23 1 24 7
M  V30 24 1 25 9
M  V30 25 1 26 10
M  V30 26 1 27 10
M  V30 27 1 28 11
M  V30 28 1 29 12
M  V30 29 1 30 12
M  V30 30 1 31 13
M  V30 31 1 32 13
M  V30 32 1 33 14
M  V30 33 1 34 14
M  V30 34 1 35 14
M  V30 35 1 36 15
M  V30 36 1 37 15
M  V30 END BOND
M  V30 END CTAB
M  END
>  <i_epik_Tot_Q>  (1) 
0

>  <i_epik_Tot_abs_Q>  (1) 
0

>  <i_i_glide_confnum>  (1) 
149

>  <i_i_glide_lignum>  (1) 
105

>  <i_i_glide_posenum>  (1) 
238

>  <i_i_glide_rotatable_bonds>  (1) 
10

>  <i_lp_mmshare_version>  (1) 
72125

>  <i_m_source_file_index>  (1) 
46

>  <i_f3d_flags>  (1) 
0

>  <num_sample>  (1) 
50

>  <b_lp_Chiralities_Consistent>  (1) 
1

>  <r_epik_Charging_Adjusted_Penalty>  (1) 
0

>  <r_epik_Ionization_Penalty>  (1) 
1.1106675223295859e-11

>  <r_epik_Ionization_Penalty_Charging>  (1) 
0

>  <r_epik_Ionization_Penalty_Neutral>  (1) 
1.1106675223295859e-11

>  <r_epik_State_Penalty>  (1) 
-0

>  <r_glide_ring_energy>  (1) 
0

>  <r_i_docking_score>  (1) 
-0.13676225031760242

>  <r_i_glide_ecoul>  (1) 
-0.1966626059258656

>  <r_i_glide_eff_state_penalty>  (1) 
-0

>  <r_i_glide_einternal>  (1) 
4.0802010994045341

>  <r_i_glide_emodel>  (1) 
-25.763986481053923

>  <r_i_glide_emodel_strain>  (1) 
0.035696165033260563

>  <r_i_glide_energy>  (1) 
-27.610899554887084

>  <r_i_glide_erotb>  (1) 
6.9772409559876971

>  <r_i_glide_esite>  (1) 
0

>  <r_i_glide_evdw>  (1) 
-27.414236948961218

>  <r_i_glide_gscore>  (1) 
-0.13676225031760242

>  <r_i_glide_gscore_strain>  (1) 
0

>  <r_i_glide_hbond>  (1) 
0

>  <r_i_glide_ligand_efficiency>  (1) 
-0.0091174833545068276

>  <r_i_glide_ligand_efficiency_ln>  (1) 
-0.036882523941275155

>  <r_i_glide_ligand_efficiency_sa>  (1) 
-0.022485647536391821

>  <r_i_glide_lipo>  (1) 
-3.3554768568284192

>  <r_i_glide_metal>  (1) 
-0

>  <r_i_glide_rewards>  (1) 
-2.3583151111399392

>  <r_lp_Energy>  (1) 
-2.2524449999999998

>  <r_lp_tautomer_probability>  (1) 
1

>  <s_epik_cmdline>  (1) 
J2VwaWtfcHl0aG9uJywgJy1waHQnLCAnMS4wJywgJy1waCcsICc3LjQnLCAnLXRuJywgJzgnLCAnLW1hJywgJzUwMCcsICctaW1hZScsICc8aW5maWxlLm1hZT4nLCAnLW9tYWUnLCAnPG91dGZpbGUubWFlPic=

>  <s_epik_input>  (1) 
W0NIMl09W0NIXVtDSDJdW0NIMl1DI0MvW0NIXT1bQ0hdXFtDSDJdW0NIMl1bQ0gyXVtDSDJdW0NIMl1PW0NIM10=

>  <s_glide_docking_method>  (1) 
confgen

>  <s_i_glide_gridfile>  (1) 
gpcr_5ht2c_6bqh_protein_autoprepared_prepared

>  <s_lp_Force_Field>  (1) 
S-OPLS

>  <s_lp_Variant>  (1) 
DiffSBDD_45_num_sample_50-2

>  <s_m_source_file>  (1) 
generated__ligand_DiffSBDD_2026-05-06_prepared.sdf

>  <GenAI_Model>  (1) 
DiffSBDD

>  <Protein>  (1) 
GPCR_5HT2C

$$$$
DiffSBDD_45_num_sample_50
     RDKit          3D

  0  0  0  0  0  0  0  0  0  0999 V3000
M  V30 BEGIN CTAB
M  V30 COUNTS 37 36 0 0 1
M  V30 BEGIN ATOM
M  V30 1 C 39.285727 26.807739 53.739861 0
M  V30 2 C 39.214127 26.616292 55.149881 0
M  V30 3 C 37.476575 30.387275 60.023363 0
M  V30 4 C 38.816521 29.765886 60.449251 0
M  V30 5 C 41.373671 30.470927 49.971097 0
M  V30 6 C 39.349192 27.103930 52.556941 0
M  V30 7 C 39.174757 28.458229 59.718179 0
M  V30 8 O 37.094677 31.351554 60.992587 0
M  V30 9 C 40.268015 29.712565 49.972948 0
M  V30 10 C 39.316030 28.603027 58.193881 0
M  V30 11 C 39.827408 27.451796 56.006461 0
M  V30 12 C 39.446161 27.642653 51.190146 0
M  V30 13 C 39.781570 27.304789 57.513919 0
M  V30 14 C 35.891657 32.015724 60.646317 0
M  V30 15 C 39.635509 29.160983 51.227659 0
M  V30 16 H 38.645003 25.773049 55.513416 0
M  V30 17 H 37.575664 30.855092 59.042250 0
M  V30 18 H 36.704309 29.621427 59.940099 0
M  V30 19 H 38.781377 29.557603 61.519759 0
M  V30 20 H 39.613034 30.498525 60.315570 0
M  V30 21 H 41.871282 30.728501 50.892384 0
M  V30 22 H 41.793812 30.843443 49.053500 0
M  V30 23 H 38.424531 27.700570 59.943746 0
M  V30 24 H 40.112487 28.079723 60.127062 0
M  V30 25 H 39.784665 29.468772 49.039532 0
M  V30 26 H 40.021609 29.403687 57.967201 0
M  V30 27 H 38.359028 28.906281 57.766835 0
M  V30 28 H 40.393842 28.289054 55.622943 0
M  V30 29 H 38.535419 27.379807 50.653512 0
M  V30 30 H 40.267385 27.173479 50.653633 0
M  V30 31 H 39.119554 26.480232 57.781581 0
M  V30 32 H 40.778939 27.036975 57.865231 0
M  V30 33 H 35.639303 32.747913 61.413597 0
M  V30 34 H 35.985875 32.542112 59.695101 0
M  V30 35 H 35.067405 31.307634 60.574128 0
M  V30 36 H 40.256959 29.458533 52.074772 0
M  V30 37 H 38.666436 29.621426 51.376958 0
M  V30 END ATOM
M  V30 BEGIN BOND
M  V30 1 1 2 1
M  V30 2 1 4 3
M  V30 3 3 6 1
M  V30 4 1 7 4
M  V30 5 1 8 3
M  V30 6 2 9 5
M  V30 7 1 10 7
M  V30 8 2 11 2
M  V30 9 1 12 6
M  V30 10 1 13 10
M  V30 11 1 13 11
M  V30 12 1 14 8
M  V30 13 1 15 9
M  V30 14 1 15 12
M  V30 15 1 16 2
M  V30 16 1 17 3
M  V30 17 1 18 3
M  V30 18 1 19 4
M  V30 19 1 20 4
M  V30 20 1 21 5
M  V30 21 1 22 5
M  V30 22 1 23 7
M  V30 23 1 24 7
M  V30 24 1 25 9
M  V30 25 1 26 10
M  V30 26 1 27 10
M  V30 27 1 28 11
M  V30 28 1 29 12
M  V30 29 1 30 12
M  V30 30 1 31 13
M  V30 31 1 32 13
M  V30 32 1 33 14
M  V30 33 1 34 14
M  V30 34 1 35 14
M  V30 35 1 36 15
M  V30 36 1 37 15
M  V30 END BOND
M  V30 END CTAB
M  END
>  <i_epik_Tot_Q>  (1) 
0

>  <i_epik_Tot_abs_Q>  (1) 
0

>  <i_i_glide_confnum>  (1) 
87

>  <i_i_glide_lignum>  (1) 
104

>  <i_i_glide_posenum>  (1) 
289

>  <i_i_glide_rotatable_bonds>  (1) 
10

>  <i_lp_mmshare_version>  (1) 
72125

>  <i_m_source_file_index>  (1) 
46

>  <i_f3d_flags>  (1) 
0

>  <num_sample>  (1) 
50

>  <b_lp_Chiralities_Consistent>  (1) 
1

>  <r_epik_Charging_Adjusted_Penalty>  (1) 
0

>  <r_epik_Ionization_Penalty>  (1) 
1.1106675223295859e-11

>  <r_epik_Ionization_Penalty_Charging>  (1) 
0

>  <r_epik_Ionization_Penalty_Neutral>  (1) 
1.1106675223295859e-11

>  <r_epik_State_Penalty>  (1) 
-0

>  <r_glide_ring_energy>  (1) 
0

>  <r_i_docking_score>  (1) 
-0.065119488620998478

>  <r_i_glide_ecoul>  (1) 
-1.2494624673045822

>  <r_i_glide_eff_state_penalty>  (1) 
-0

>  <r_i_glide_einternal>  (1) 
4.8461818585646173

>  <r_i_glide_emodel>  (1) 
-23.745017831866253

>  <r_i_glide_emodel_strain>  (1) 
0.3789818039579409

>  <r_i_glide_energy>  (1) 
-26.435812580982809

>  <r_i_glide_erotb>  (1) 
6.9772409559876971

>  <r_i_glide_esite>  (1) 
0

>  <r_i_glide_evdw>  (1) 
-25.186350113678227

>  <r_i_glide_gscore>  (1) 
-0.065119488620998478

>  <r_i_glide_gscore_strain>  (1) 
0

>  <r_i_glide_hbond>  (1) 
-0.1184692130848739

>  <r_i_glide_ligand_efficiency>  (1) 
-0.0043412992413998982

>  <r_i_glide_ligand_efficiency_ln>  (1) 
-0.017561652375051948

>  <r_i_glide_ligand_efficiency_sa>  (1) 
-0.010706564607422142

>  <r_i_glide_lipo>  (1) 
-2.9887170399690834

>  <r_i_glide_metal>  (1) 
-0

>  <r_i_glide_rewards>  (1) 
-2.4884373157751392

>  <r_lp_Energy>  (1) 
-0.036234999999999996

>  <r_lp_tautomer_probability>  (1) 
1

>  <s_epik_cmdline>  (1) 
J2VwaWtfcHl0aG9uJywgJy1waHQnLCAnMS4wJywgJy1waCcsICc3LjQnLCAnLXRuJywgJzgnLCAnLW1hJywgJzUwMCcsICctaW1hZScsICc8aW5maWxlLm1hZT4nLCAnLW9tYWUnLCAnPG91dGZpbGUubWFlPic=

>  <s_epik_input>  (1) 
W0NIMl09W0NIXVtDSDJdW0NIMl1DI0MvW0NIXT1bQ0hdL1tDSDJdW0NIMl1bQ0gyXVtDSDJdW0NIMl1PW0NIM10=

>  <s_glide_docking_method>  (1) 
confgen

>  <s_i_glide_gridfile>  (1) 
gpcr_5ht2c_6bqh_protein_autoprepared_prepared

>  <s_lp_Force_Field>  (1) 
S-OPLS

>  <s_lp_Variant>  (1) 
DiffSBDD_45_num_sample_50-1

>  <s_m_source_file>  (1) 
generated__ligand_DiffSBDD_2026-05-06_prepared.sdf

>  <GenAI_Model>  (1) 
DiffSBDD

>  <Protein>  (1) 
GPCR_5HT2C

$$$$
DiffSBDD_45_num_sample_50
     RDKit          3D

  0  0  0  0  0  0  0  0  0  0999 V3000
M  V30 BEGIN CTAB
M  V30 COUNTS 37 36 0 0 1
M  V30 BEGIN ATOM
M  V30 1 C 37.961882 29.153841 54.047149 0
M  V30 2 C 37.710387 29.718023 55.330278 0
M  V30 3 C 40.667404 29.101998 61.454894 0
M  V30 4 C 39.152742 29.045232 61.231259 0
M  V30 5 C 40.790083 30.421261 49.853536 0
M  V30 6 C 38.239972 28.650886 52.969805 0
M  V30 7 C 38.642816 29.989259 60.127693 0
M  V30 8 O 41.067403 30.405965 61.853504 0
M  V30 9 C 40.265296 29.895453 50.968194 0
M  V30 10 C 38.961688 29.493070 58.708855 0
M  V30 11 C 38.690011 29.871687 56.236334 0
M  V30 12 C 38.597864 28.076348 51.661469 0
M  V30 13 C 38.480403 30.457655 57.616328 0
M  V30 14 C 40.859740 30.685760 63.230529 0
M  V30 15 C 40.013451 28.411686 51.166048 0
M  V30 16 H 36.696631 30.021442 55.556536 0
M  V30 17 H 40.978704 28.359660 62.191762 0
M  V30 18 H 41.187250 28.845225 60.532215 0
M  V30 19 H 38.667404 29.290771 62.173157 0
M  V30 20 H 38.860523 28.021430 60.998932 0
M  V30 21 H 41.066291 29.794080 49.021629 0
M  V30 22 H 40.949640 31.484534 49.761763 0
M  V30 23 H 39.047850 30.990841 60.277208 0
M  V30 24 H 37.560763 30.086272 60.224449 0
M  V30 25 H 39.999978 30.546596 51.788914 0
M  V30 26 H 38.494650 28.518201 58.561012 0
M  V30 27 H 40.035091 29.339679 58.596186 0
M  V30 28 H 39.697877 29.565542 55.991694 0
M  V30 29 H 37.867403 28.421428 50.939401 0
M  V30 30 H 38.476258 26.995383 51.734631 0
M  V30 31 H 39.022934 31.401193 57.680455 0
M  V30 32 H 37.424231 30.692574 57.756416 0
M  V30 33 H 41.249632 31.677384 63.459858 0
M  V30 34 H 39.802991 30.679158 63.496858 0
M  V30 35 H 41.383484 29.968322 63.863398 0
M  V30 36 H 40.189778 27.889383 50.227315 0
M  V30 37 H 40.754988 28.021627 51.853501 0
M  V30 END ATOM
M  V30 BEGIN BOND
M  V30 1 1 2 1
M  V30 2 1 4 3
M  V30 3 3 6 1
M  V30 4 1 7 4
M  V30 5 1 8 3
M  V30 6 2 9 5
M  V30 7 1 10 7
M  V30 8 2 11 2
M  V30 9 1 12 6
M  V30 10 1 13 10
M  V30 11 1 13 11
M  V30 12 1 14 8
M  V30 13 1 15 9
M  V30 14 1 15 12
M  V30 15 1 16 2
M  V30 16 1 17 3
M  V30 17 1 18 3
M  V30 18 1 19 4
M  V30 19 1 20 4
M  V30 20 1 21 5
M  V30 21 1 22 5
M  V30 22 1 23 7
M  V30 23 1 24 7
M  V30 24 1 25 9
M  V30 25 1 26 10
M  V30 26 1 27 10
M  V30 27 1 28 11
M  V30 28 1 29 12
M  V30 29 1 30 12
M  V30 30 1 31 13
M  V30 31 1 32 13
M  V30 32 1 33 14
M  V30 33 1 34 14
M  V30 34 1 35 14
M  V30 35 1 36 15
M  V30 36 1 37 15
M  V30 END BOND
M  V30 END CTAB
M  END
>  <i_epik_Tot_Q>  (1) 
0

>  <i_epik_Tot_abs_Q>  (1) 
0

>  <i_i_glide_confnum>  (1) 
229

>  <i_i_glide_lignum>  (1) 
104

>  <i_i_glide_posenum>  (1) 
257

>  <i_i_glide_rotatable_bonds>  (1) 
10

>  <i_lp_mmshare_version>  (1) 
72125

>  <i_m_source_file_index>  (1) 
46

>  <i_f3d_flags>  (1) 
0

>  <num_sample>  (1) 
50

>  <b_lp_Chiralities_Consistent>  (1) 
1

>  <r_epik_Charging_Adjusted_Penalty>  (1) 
0

>  <r_epik_Ionization_Penalty>  (1) 
1.1106675223295859e-11

>  <r_epik_Ionization_Penalty_Charging>  (1) 
0

>  <r_epik_Ionization_Penalty_Neutral>  (1) 
1.1106675223295859e-11

>  <r_epik_State_Penalty>  (1) 
-0

>  <r_glide_ring_energy>  (1) 
0

>  <r_i_docking_score>  (1) 
0.36809691346304318

>  <r_i_glide_ecoul>  (1) 
-3.1966399848011786

>  <r_i_glide_eff_state_penalty>  (1) 
-0

>  <r_i_glide_einternal>  (1) 
4.1637531954559943

>  <r_i_glide_emodel>  (1) 
-23.43288734359858

>  <r_i_glide_emodel_strain>  (1) 
0

>  <r_i_glide_energy>  (1) 
-26.143778132926265

>  <r_i_glide_erotb>  (1) 
6.9772409559876971

>  <r_i_glide_esite>  (1) 
0

>  <r_i_glide_evdw>  (1) 
-22.947138148125088

>  <r_i_glide_gscore>  (1) 
0.36809691346304318

>  <r_i_glide_gscore_strain>  (1) 
0

>  <r_i_glide_hbond>  (1) 
-0.32000000000000001

>  <r_i_glide_ligand_efficiency>  (1) 
0.024539794230869546

>  <r_i_glide_ligand_efficiency_ln>  (1) 
0.099269668289179894

>  <r_i_glide_ligand_efficiency_sa>  (1) 
0.060520336833755697

>  <r_i_glide_lipo>  (1) 
-2.2350014101254949

>  <r_i_glide_metal>  (1) 
-0

>  <r_i_glide_rewards>  (1) 
-2.4272897272727274

>  <r_lp_Energy>  (1) 
-0.036234999999999996

>  <r_lp_tautomer_probability>  (1) 
1

>  <s_epik_cmdline>  (1) 
J2VwaWtfcHl0aG9uJywgJy1waHQnLCAnMS4wJywgJy1waCcsICc3LjQnLCAnLXRuJywgJzgnLCAnLW1hJywgJzUwMCcsICctaW1hZScsICc8aW5maWxlLm1hZT4nLCAnLW9tYWUnLCAnPG91dGZpbGUubWFlPic=

>  <s_epik_input>  (1) 
W0NIMl09W0NIXVtDSDJdW0NIMl1DI0MvW0NIXT1bQ0hdL1tDSDJdW0NIMl1bQ0gyXVtDSDJdW0NIMl1PW0NIM10=

>  <s_glide_docking_method>  (1) 
confgen

>  <s_i_glide_gridfile>  (1) 
gpcr_5ht2c_6bqh_protein_autoprepared_prepared

>  <s_lp_Force_Field>  (1) 
S-OPLS

>  <s_lp_Variant>  (1) 
DiffSBDD_45_num_sample_50-1

>  <s_m_source_file>  (1) 
generated__ligand_DiffSBDD_2026-05-06_prepared.sdf

>  <GenAI_Model>  (1) 
DiffSBDD

>  <Protein>  (1) 
GPCR_5HT2C

$$$$
DiffSBDD_46_num_sample_50
     RDKit          3D

  0  0  0  0  0  0  0  0  0  0999 V3000
M  V30 BEGIN CTAB
M  V30 COUNTS 35 34 0 0 1
M  V30 BEGIN ATOM
M  V30 1 C 40.402441 30.516798 50.541906 0
M  V30 2 C 38.823667 30.572261 54.147688 0
M  V30 3 C 39.874785 28.435362 61.384648 0
M  V30 4 O 41.067406 30.432591 61.853499 0 CHG=-1
M  V30 5 C 39.266064 28.911661 58.911014 0
M  V30 6 C 39.666755 30.974580 52.929884 0
M  V30 7 O 38.848526 30.466945 62.067297 0
M  V30 8 C 39.934659 29.903497 61.805870 0
M  V30 9 C 40.239053 28.250375 59.899979 0
M  V30 10 C 38.883065 29.525689 56.463855 0
M  V30 11 O 40.267388 29.621428 49.461929 0
M  V30 12 C 39.723596 29.940344 51.794340 0
M  V30 13 C 39.507361 29.546103 55.060996 0
M  V30 14 C 39.670641 28.655039 57.452127 0
M  V30 15 H 41.461029 30.704052 50.726290 0
M  V30 16 H 39.949436 31.467197 50.256787 0
M  V30 17 H 38.638499 31.481364 54.722266 0
M  V30 18 H 37.840681 30.211978 53.843710 0
M  V30 19 H 38.890837 28.021755 61.592429 0
M  V30 20 H 40.577150 27.880719 62.006719 0
M  V30 21 H 39.242254 29.986525 59.093613 0
M  V30 22 H 38.252958 28.547003 59.083708 0
M  V30 23 H 40.676031 31.221370 53.252440 0
M  V30 24 H 39.249150 31.903106 52.541156 0
M  V30 25 H 40.267348 27.187605 59.681064 0
M  V30 26 H 41.250841 28.621281 59.726338 0
M  V30 27 H 38.857818 30.546961 56.846241 0
M  V30 28 H 37.844832 29.194657 56.413315 0
M  V30 29 H 39.351612 29.599531 49.209330 0
M  V30 30 H 38.712266 29.619939 51.543550 0
M  V30 31 H 40.252431 29.045852 52.124525 0
M  V30 32 H 39.466559 28.552468 54.612486 0
M  V30 33 H 40.563569 29.801361 55.153281 0
M  V30 34 H 39.543086 27.600392 57.206420 0
M  V30 35 H 40.735555 28.860117 57.346130 0
M  V30 END ATOM
M  V30 BEGIN BOND
M  V30 1 1 6 2
M  V30 2 1 8 3
M  V30 3 1 8 4
M  V30 4 2 8 7
M  V30 5 1 9 3
M  V30 6 1 9 5
M  V30 7 1 11 1
M  V30 8 1 12 1
M  V30 9 1 12 6
M  V30 10 1 13 2
M  V30 11 1 13 10
M  V30 12 1 14 5
M  V30 13 1 14 10
M  V30 14 1 15 1
M  V30 15 1 16 1
M  V30 16 1 17 2
M  V30 17 1 18 2
M  V30 18 1 19 3
M  V30 19 1 20 3
M  V30 20 1 21 5
M  V30 21 1 22 5
M  V30 22 1 23 6
M  V30 23 1 24 6
M  V30 24 1 25 9
M  V30 25 1 26 9
M  V30 26 1 27 10
M  V30 27 1 28 10
M  V30 28 1 29 11
M  V30 29 1 30 12
M  V30 30 1 31 12
M  V30 31 1 32 13
M  V30 32 1 33 13
M  V30 33 1 34 14
M  V30 34 1 35 14
M  V30 END BOND
M  V30 END CTAB
M  END
>  <i_epik_Tot_Q>  (1) 
-1

>  <i_epik_Tot_abs_Q>  (1) 
1

>  <i_i_glide_confnum>  (1) 
281

>  <i_i_glide_lignum>  (1) 
106

>  <i_i_glide_posenum>  (1) 
33

>  <i_i_glide_rotatable_bonds>  (1) 
11

>  <i_lp_mmshare_version>  (1) 
72125

>  <i_m_source_file_index>  (1) 
47

>  <i_f3d_flags>  (1) 
0

>  <num_sample>  (1) 
50

>  <b_lp_Chiralities_Consistent>  (1) 
1

>  <r_epik_Charging_Adjusted_Penalty>  (1) 
0.0019421781865847124

>  <r_epik_Ionization_Penalty>  (1) 
0.0019424817245244964

>  <r_epik_Ionization_Penalty_Charging>  (1) 
0.0019421781865847124

>  <r_epik_Ionization_Penalty_Neutral>  (1) 
3.0353793978390847e-07

>  <r_epik_State_Penalty>  (1) 
-0

>  <r_glide_ring_energy>  (1) 
0

>  <r_i_docking_score>  (1) 
0.40859880271015736

>  <r_i_glide_ecoul>  (1) 
-5.9677080566594993

>  <r_i_glide_eff_state_penalty>  (1) 
-0

>  <r_i_glide_einternal>  (1) 
7.4942445849803043

>  <r_i_glide_emodel>  (1) 
-21.378226132948416

>  <r_i_glide_emodel_strain>  (1) 
0.23868572918161346

>  <r_i_glide_energy>  (1) 
-26.048805819352157

>  <r_i_glide_erotb>  (1) 
7.2717355811883113

>  <r_i_glide_esite>  (1) 
0

>  <r_i_glide_evdw>  (1) 
-20.081097762692657

>  <r_i_glide_gscore>  (1) 
0.40859880271015736

>  <r_i_glide_gscore_strain>  (1) 
0

>  <r_i_glide_hbond>  (1) 
-0.47433778912361069

>  <r_i_glide_ligand_efficiency>  (1) 
0.02918562876501124

>  <r_i_glide_ligand_efficiency_ln>  (1) 
0.11228149647022921

>  <r_i_glide_ligand_efficiency_sa>  (1) 
0.07034151739308192

>  <r_i_glide_lipo>  (1) 
-2.1524708446431844

>  <r_i_glide_metal>  (1) 
-0

>  <r_i_glide_rewards>  (1) 
-2.3371170480778005

>  <r_lp_Energy>  (1) 
9.6181660000000004

>  <r_lp_tautomer_probability>  (1) 
1

>  <s_epik_cmdline>  (1) 
J2VwaWtfcHl0aG9uJywgJy1waHQnLCAnMS4wJywgJy1waCcsICc3LjQnLCAnLXRuJywgJzgnLCAnLW1hJywgJzUwMCcsICctaW1hZScsICc8aW5maWxlLm1hZT4nLCAnLW9tYWUnLCAnPG91dGZpbGUubWFlPic=

>  <s_epik_input>  (1) 
W09IXVtDSDJdW0NIMl1bQ0gyXVtDSDJdW0NIMl1bQ0gyXVtDSDJdW0NIMl1bQ0gyXVtDSDJdQyg9TylbT0hd

>  <s_glide_docking_method>  (1) 
confgen

>  <s_i_glide_gridfile>  (1) 
gpcr_5ht2c_6bqh_protein_autoprepared_prepared

>  <s_lp_Force_Field>  (1) 
S-OPLS

>  <s_lp_Variant>  (1) 
DiffSBDD_46_num_sample_50-1

>  <s_m_source_file>  (1) 
generated__ligand_DiffSBDD_2026-05-06_prepared.sdf

>  <GenAI_Model>  (1) 
DiffSBDD

>  <Protein>  (1) 
GPCR_5HT2C

$$$$
DiffSBDD_46_num_sample_50
     RDKit          3D

  0  0  0  0  0  0  0  0  0  0999 V3000
M  V30 BEGIN CTAB
M  V30 COUNTS 35 34 0 0 1
M  V30 BEGIN ATOM
M  V30 1 C 40.056467 28.709946 50.626426 0
M  V30 2 C 38.037053 28.774798 53.191152 0
M  V30 3 C 39.825263 28.532675 60.724089 0
M  V30 4 O 41.067269 30.421287 61.453898 0 CHG=-1
M  V30 5 C 39.293539 28.843734 58.194712 0
M  V30 6 C 38.903146 27.610566 52.680829 0
M  V30 7 O 38.859404 30.643600 61.248830 0
M  V30 8 C 39.924784 29.991212 61.179522 0
M  V30 9 C 38.831868 28.312869 59.562807 0
M  V30 10 C 38.722472 28.842786 55.681558 0
M  V30 11 O 39.467930 29.987642 50.653507 0
M  V30 12 C 39.115258 27.621328 51.158797 0
M  V30 13 C 37.599269 28.624815 54.653034 0
M  V30 14 C 38.231112 28.585588 57.113731 0
M  V30 15 H 40.268705 28.502573 49.580802 0
M  V30 16 H 41.000662 28.722279 51.172023 0
M  V30 17 H 38.553580 29.725883 53.064790 0
M  V30 18 H 37.138722 28.821419 52.575047 0
M  V30 19 H 39.501655 27.962131 61.593774 0
M  V30 20 H 40.814281 28.159228 60.454735 0
M  V30 21 H 40.229807 28.356733 57.919529 0
M  V30 22 H 39.501672 29.912859 58.252268 0
M  V30 23 H 38.408159 26.674717 52.942235 0
M  V30 24 H 39.866809 27.588528 53.186256 0
M  V30 25 H 37.867420 28.754656 59.815564 0
M  V30 26 H 38.657036 27.241687 59.458765 0
M  V30 27 H 39.560728 28.179420 55.467749 0
M  V30 28 H 39.102478 29.861867 55.598493 0
M  V30 29 H 38.794142 30.019840 49.984921 0
M  V30 30 H 38.158099 27.690396 50.653585 0
M  V30 31 H 39.526164 26.653386 50.873896 0
M  V30 32 H 36.808015 29.349459 54.851505 0
M  V30 33 H 37.153435 27.638426 54.784593 0
M  V30 34 H 37.358426 29.207982 57.319687 0
M  V30 35 H 37.890165 27.551735 57.182332 0
M  V30 END ATOM
M  V30 BEGIN BOND
M  V30 1 1 6 2
M  V30 2 1 8 3
M  V30 3 1 8 4
M  V30 4 2 8 7
M  V30 5 1 9 3
M  V30 6 1 9 5
M  V30 7 1 11 1
M  V30 8 1 12 1
M  V30 9 1 12 6
M  V30 10 1 13 2
M  V30 11 1 13 10
M  V30 12 1 14 5
M  V30 13 1 14 10
M  V30 14 1 15 1
M  V30 15 1 16 1
M  V30 16 1 17 2
M  V30 17 1 18 2
M  V30 18 1 19 3
M  V30 19 1 20 3
M  V30 20 1 21 5
M  V30 21 1 22 5
M  V30 22 1 23 6
M  V30 23 1 24 6
M  V30 24 1 25 9
M  V30 25 1 26 9
M  V30 26 1 27 10
M  V30 27 1 28 10
M  V30 28 1 29 11
M  V30 29 1 30 12
M  V30 30 1 31 12
M  V30 31 1 32 13
M  V30 32 1 33 13
M  V30 33 1 34 14
M  V30 34 1 35 14
M  V30 END BOND
M  V30 END CTAB
M  END
>  <i_epik_Tot_Q>  (1) 
-1

>  <i_epik_Tot_abs_Q>  (1) 
1

>  <i_i_glide_confnum>  (1) 
221

>  <i_i_glide_lignum>  (1) 
106

>  <i_i_glide_posenum>  (1) 
389

>  <i_i_glide_rotatable_bonds>  (1) 
11

>  <i_lp_mmshare_version>  (1) 
72125

>  <i_m_source_file_index>  (1) 
47

>  <i_f3d_flags>  (1) 
0

>  <num_sample>  (1) 
50

>  <b_lp_Chiralities_Consistent>  (1) 
1

>  <r_epik_Charging_Adjusted_Penalty>  (1) 
0.0019421781865847124

>  <r_epik_Ionization_Penalty>  (1) 
0.0019424817245244964

>  <r_epik_Ionization_Penalty_Charging>  (1) 
0.0019421781865847124

>  <r_epik_Ionization_Penalty_Neutral>  (1) 
3.0353793978390847e-07

>  <r_epik_State_Penalty>  (1) 
-0

>  <r_glide_ring_energy>  (1) 
0

>  <r_i_docking_score>  (1) 
0.41494671974222636

>  <r_i_glide_ecoul>  (1) 
-5.7277344568811923

>  <r_i_glide_eff_state_penalty>  (1) 
-0

>  <r_i_glide_einternal>  (1) 
4.4830958405366159

>  <r_i_glide_emodel>  (1) 
-22.029908395060108

>  <r_i_glide_emodel_strain>  (1) 
0.050476131175825945

>  <r_i_glide_energy>  (1) 
-25.017342599858303

>  <r_i_glide_erotb>  (1) 
7.2717355811883113

>  <r_i_glide_esite>  (1) 
0

>  <r_i_glide_evdw>  (1) 
-19.289608142977109

>  <r_i_glide_gscore>  (1) 
0.41494671974222636

>  <r_i_glide_gscore_strain>  (1) 
0

>  <r_i_glide_hbond>  (1) 
-0.47999999999999998

>  <r_i_glide_ligand_efficiency>  (1) 
0.029639051410159024

>  <r_i_glide_ligand_efficiency_ln>  (1) 
0.11402588147356746

>  <r_i_glide_ligand_efficiency_sa>  (1) 
0.071434330473686719

>  <r_i_glide_lipo>  (1) 
-2.2757790922790404

>  <r_i_glide_metal>  (1) 
-0

>  <r_i_glide_rewards>  (1) 
-2.2773691934860105

>  <r_lp_Energy>  (1) 
9.6181660000000004

>  <r_lp_tautomer_probability>  (1) 
1

>  <s_epik_cmdline>  (1) 
J2VwaWtfcHl0aG9uJywgJy1waHQnLCAnMS4wJywgJy1waCcsICc3LjQnLCAnLXRuJywgJzgnLCAnLW1hJywgJzUwMCcsICctaW1hZScsICc8aW5maWxlLm1hZT4nLCAnLW9tYWUnLCAnPG91dGZpbGUubWFlPic=

>  <s_epik_input>  (1) 
W09IXVtDSDJdW0NIMl1bQ0gyXVtDSDJdW0NIMl1bQ0gyXVtDSDJdW0NIMl1bQ0gyXVtDSDJdQyg9TylbT0hd

>  <s_glide_docking_method>  (1) 
confgen

>  <s_i_glide_gridfile>  (1) 
gpcr_5ht2c_6bqh_protein_autoprepared_prepared

>  <s_lp_Force_Field>  (1) 
S-OPLS

>  <s_lp_Variant>  (1) 
DiffSBDD_46_num_sample_50-1

>  <s_m_source_file>  (1) 
generated__ligand_DiffSBDD_2026-05-06_prepared.sdf

>  <GenAI_Model>  (1) 
DiffSBDD

>  <Protein>  (1) 
GPCR_5HT2C

$$$$
DiffSBDD_7_num_sample_50
     RDKit          3D

  0  0  0  0  0  0  0  0  0  0999 V3000
M  V30 BEGIN CTAB
M  V30 COUNTS 93 96 0 0 1
M  V30 BEGIN ATOM
M  V30 1 C 51.824203 40.660729 43.618857 0 CFG=1
M  V30 2 O 53.758172 42.502064 50.865205 0
M  V30 3 C 49.633455 43.140079 44.934221 0
M  V30 4 C 50.178217 39.594764 50.543289 0
M  V30 5 O 54.073945 40.039680 44.106780 0 CHG=-1
M  V30 6 N 54.238763 36.861424 49.853527 0
M  V30 7 S 52.533519 39.490887 54.271580 0
M  V30 8 N 54.616962 41.204389 57.208666 0
M  V30 9 N 50.539936 40.978993 50.139934 0 CFG=2 CHG=1
M  V30 10 S 52.307006 41.955569 56.253489 0
M  V30 11 C 53.620467 35.981320 50.664017 0
M  V30 12 C 48.149630 45.250877 44.211070 0
M  V30 13 C 53.794789 43.298311 49.690115 0
M  V30 14 C 52.994760 41.302540 50.766277 0 CFG=1
M  V30 15 C 52.845931 40.239321 55.946259 0 CFG=2
M  V30 16 N 53.067469 35.202318 51.316279 0
M  V30 17 O 52.109710 38.368536 51.379308 0
M  V30 18 C 49.566319 43.588313 46.390061 0
M  V30 19 O 54.952596 37.459440 55.224690 0
M  V30 20 C 48.494840 41.621474 43.040661 0
M  V30 21 C 53.694468 40.274318 51.700225 0 CFG=2
M  V30 22 C 54.461841 37.382287 56.547557 0 CFG=1
M  V30 23 O 53.709174 41.332587 42.329421 0
M  V30 24 C 54.311485 40.031059 56.408796 0 CFG=2
M  V30 25 O 53.897015 43.308862 57.875602 0
M  V30 26 C 53.483279 38.770052 51.356918 0 CFG=2
M  V30 27 C 51.484993 41.576541 44.787700 0
M  V30 28 C 53.332379 40.679012 43.326290 0
M  V30 29 C 51.422111 42.195396 47.236825 0
M  V30 30 C 49.933237 42.504297 47.410468 0 CFG=1
M  V30 31 C 49.602966 42.962256 48.854630 0
M  V30 32 C 51.502997 41.632678 51.071091 0
M  V30 33 C 51.717020 41.279106 46.080917 0
M  V30 34 C 54.545866 38.754803 57.259207 0
M  V30 35 C 51.356509 39.209324 43.869563 0
M  V30 36 C 48.427545 42.644248 44.150167 0 CFG=2
M  V30 37 C 51.286501 38.582386 50.237797 0
M  V30 38 C 54.234644 38.279731 50.095900 0
M  V30 39 C 49.341107 41.818320 49.862856 0
M  V30 40 O 51.081269 39.804438 53.905368 0
M  V30 41 C 53.542798 40.595824 53.198489 0
M  V30 42 C 53.067362 36.738811 56.552910 0
M  V30 43 C 48.978039 44.023315 43.881590 0 CFG=2
M  V30 44 C 53.748339 42.264035 57.249439 0
M  V30 45 O 54.096702 41.588299 53.667004 0
M  V30 46 O 54.806769 39.042701 49.322821 0
M  V30 47 O 50.917225 42.775268 44.405019 0
M  V30 48 H 51.318279 41.038163 42.731768 0
M  V30 49 H 49.311580 39.274315 49.963814 0
M  V30 50 H 49.869811 39.547429 51.587801 0
M  V30 51 H 54.717938 36.492591 49.045323 0
M  V30 52 H 55.469633 41.266004 57.742114 0
M  V30 53 H 47.432923 45.050174 45.006844 0
M  V30 54 H 48.800253 46.069352 44.519225 0
M  V30 55 H 47.592699 45.566957 43.328861 0
M  V30 56 H 54.422305 44.171596 49.865449 0
M  V30 57 H 54.219060 42.747517 48.849542 0
M  V30 58 H 52.804011 43.655648 49.412427 0
M  V30 59 H 53.089134 40.938100 49.744729 0
M  V30 60 H 52.267394 39.644438 56.640781 0
M  V30 61 H 48.547890 43.915753 46.594435 0
M  V30 62 H 50.197451 44.468892 46.514908 0
M  V30 63 H 55.079760 36.580129 54.899084 0
M  V30 64 H 49.296032 41.856138 42.341969 0
M  V30 65 H 48.667412 40.630396 43.453534 0
M  V30 66 H 47.556869 41.621416 42.485768 0
M  V30 67 H 54.762722 40.434974 51.540293 0
M  V30 68 H 55.121720 36.698798 57.084238 0
M  V30 69 H 55.003880 40.047710 55.568009 0
M  V30 70 H 53.950879 38.203914 52.164251 0
M  V30 71 H 52.004086 43.110535 47.117327 0
M  V30 72 H 51.836861 41.705678 48.106458 0
M  V30 73 H 49.340213 41.613837 47.192414 0
M  V30 74 H 48.685393 43.551764 48.828985 0
M  V30 75 H 50.364466 43.652968 49.216154 0
M  V30 76 H 51.383088 42.711185 50.980517 0
M  V30 77 H 51.221842 41.440092 52.103472 0
M  V30 78 H 52.169200 40.330004 46.329345 0
M  V30 79 H 53.886224 38.755130 58.127440 0
M  V30 80 H 55.543845 38.831509 57.681242 0
M  V30 81 H 51.934020 38.719679 44.653505 0
M  V30 82 H 50.312909 39.172539 44.180076 0
M  V30 83 H 51.467423 38.605874 42.967997 0
M  V30 84 H 47.507574 42.580624 44.728821 0
M  V30 85 H 51.814206 38.851676 49.323395 0
M  V30 86 H 50.820358 37.621427 50.034415 0
M  V30 87 H 48.530383 41.212717 49.455555 0
M  V30 88 H 48.961719 42.220903 50.803756 0
M  V30 89 H 52.725615 36.559058 57.572089 0
M  V30 90 H 52.319258 37.357727 56.064926 0
M  V30 91 H 53.076141 35.773889 56.044778 0
M  V30 92 H 49.552973 44.148321 42.965204 0
M  V30 93 H 50.997101 40.900669 49.242205 0
M  V30 END ATOM
M  V30 BEGIN BOND
M  V30 1 1 9 4
M  V30 2 1 11 6
M  V30 3 1 13 2
M  V30 4 1 14 2
M  V30 5 1 15 7
M  V30 6 1 15 10
M  V30 7 3 16 11
M  V30 8 1 18 3
M  V30 9 1 21 14
M  V30 10 1 22 19
M  V30 11 1 24 8
M  V30 12 1 24 15
M  V30 13 1 26 17
M  V30 14 1 26 21
M  V30 15 1 27 1
M  V30 16 1 28 1
M  V30 17 1 28 5
M  V30 18 2 28 23
M  V30 19 1 30 18
M  V30 20 1 30 29
M  V30 21 1 31 30
M  V30 22 1 32 9
M  V30 23 1 32 14
M  V30 24 2 33 27
M  V30 25 1 33 29
M  V30 26 1 34 22
M  V30 27 1 34 24
M  V30 28 1 35 1
M  V30 29 1 36 3
M  V30 30 1 36 20
M  V30 31 1 37 4
M  V30 32 1 37 17
M  V30 33 1 38 6
M  V30 34 1 38 26
M  V30 35 1 39 9
M  V30 36 1 39 31
M  V30 37 2 40 7
M  V30 38 1 7 41 CFG=3
M  V30 39 1 41 21
M  V30 40 1 42 22
M  V30 41 1 43 3
M  V30 42 1 43 12
M  V30 43 1 43 36
M  V30 44 1 44 8
M  V30 45 1 44 10
M  V30 46 2 44 25
M  V30 47 2 45 41
M  V30 48 2 46 38
M  V30 49 1 47 3
M  V30 50 1 47 27
M  V30 51 1 1 48 CFG=3
M  V30 52 1 49 4
M  V30 53 1 50 4
M  V30 54 1 51 6
M  V30 55 1 52 8
M  V30 56 1 53 12
M  V30 57 1 54 12
M  V30 58 1 55 12
M  V30 59 1 56 13
M  V30 60 1 57 13
M  V30 61 1 58 13
M  V30 62 1 14 59 CFG=3
M  V30 63 1 15 60 CFG=1
M  V30 64 1 61 18
M  V30 65 1 62 18
M  V30 66 1 63 19
M  V30 67 1 64 20
M  V30 68 1 65 20
M  V30 69 1 66 20
M  V30 70 1 21 67 CFG=3
M  V30 71 1 22 68 CFG=1
M  V30 72 1 24 69 CFG=3
M  V30 73 1 26 70 CFG=1
M  V30 74 1 71 29
M  V30 75 1 72 29
M  V30 76 1 30 73 CFG=3
M  V30 77 1 74 31
M  V30 78 1 75 31
M  V30 79 1 76 32
M  V30 80 1 77 32
M  V30 81 1 78 33
M  V30 82 1 79 34
M  V30 83 1 80 34
M  V30 84 1 81 35
M  V30 85 1 82 35
M  V30 86 1 83 35
M  V30 87 1 36 84 CFG=1
M  V30 88 1 85 37
M  V30 89 1 86 37
M  V30 90 1 87 39
M  V30 91 1 88 39
M  V30 92 1 89 42
M  V30 93 1 90 42
M  V30 94 1 91 42
M  V30 95 1 43 92 CFG=3
M  V30 96 1 9 93 CFG=3
M  V30 END BOND
M  V30 END CTAB
M  END
>  <i_epik_Tot_Q>  (1) 
0

>  <i_epik_Tot_abs_Q>  (1) 
2

>  <i_i_glide_confnum>  (1) 
1994

>  <i_i_glide_lignum>  (1) 
28

>  <i_i_glide_posenum>  (1) 
388

>  <i_i_glide_rotatable_bonds>  (1) 
14

>  <i_lp_mmshare_version>  (1) 
72125

>  <i_m_source_file_index>  (1) 
8

>  <i_f3d_flags>  (1) 
0

>  <num_sample>  (1) 
50

>  <b_lp_Chiralities_Consistent>  (1) 
1

>  <r_epik_Charging_Adjusted_Penalty>  (1) 
2.2678334573304797

>  <r_epik_Ionization_Penalty>  (1) 
1.1498882506810455

>  <r_epik_Ionization_Penalty_Charging>  (1) 
1.1031410554290029

>  <r_epik_Ionization_Penalty_Neutral>  (1) 
0.046747195252042517

>  <r_epik_State_Penalty>  (1) 
1.164692401901477

>  <r_glide_ring_energy>  (1) 
0

>  <r_i_docking_score>  (1) 
0.51155422097600267

>  <r_i_glide_ecoul>  (1) 
-0.3002414576280551

>  <r_i_glide_eff_state_penalty>  (1) 
1.164692401901477

>  <r_i_glide_einternal>  (1) 
13.083917483205191

>  <r_i_glide_emodel>  (1) 
-20.041566343359367

>  <r_i_glide_emodel_strain>  (1) 
0.16177566606866378

>  <r_i_glide_energy>  (1) 
-25.830080103070721

>  <r_i_glide_erotb>  (1) 
0.2643022598508753

>  <r_i_glide_esite>  (1) 
0

>  <r_i_glide_evdw>  (1) 
-25.529838645442666

>  <r_i_glide_gscore>  (1) 
-0.65313818092547438

>  <r_i_glide_gscore_strain>  (1) 
0

>  <r_i_glide_hbond>  (1) 
0

>  <r_i_glide_ligand_efficiency>  (1) 
0.010884132361191547

>  <r_i_glide_ligand_efficiency_ln>  (1) 
0.10547188724640866

>  <r_i_glide_ligand_efficiency_sa>  (1) 
0.039278940724749613

>  <r_i_glide_lipo>  (1) 
-0.84889009913636104

>  <r_i_glide_metal>  (1) 
-0

>  <r_i_glide_rewards>  (1) 
1.252977809276353

>  <r_lp_Energy>  (1) 
32.034796

>  <s_epik_Chemistry_Notes>  (1) 
This compound contains an acetal/aminal-like group ( X-CH(R)-Y where X, Y are N, S, or O) that may be acid/base labile, releasing an aldehyde.

>  <s_epik_cmdline>  (1) 
J2VwaWtfcHl0aG9uJywgJy1waHQnLCAnMS4wJywgJy1waCcsICc3LjQnLCAnLXRuJywgJzgnLCAnLW1hJywgJzUwMCcsICctaW1hZScsICc8aW5maWxlLm1hZT4nLCAnLW9tYWUnLCAnPG91dGZpbGUubWFlPic=

>  <s_epik_input>  (1) 
W09IXUMoPU8pW0NAQEhdKFtDSDNdKUMoTzEpPVtDSF1bQ0gyXVtDQEhdKFtDSDJdW0NAXTEyW0NASF0oW0NIM10pW0NAQEhdMltDSDNdKVtDSDJdW0NIMl1OM1tDSDJdW0NIMl1PW0NAQEhdKEMoPU8pW05IXUMjTilbQ0BASF0oW0NAQEhdKFtDSDJdMylPW0NIM10pQyg9TylTKD1PKVtDQEBIXTRTQyg9TylbTkhdW0NASF00W0NIMl1bQ0BIXShbT0hdKVtDSDNd

>  <s_glide_docking_method>  (1) 
confgen

>  <s_i_glide_gridfile>  (1) 
gpcr_5ht2c_6bqh_protein_autoprepared_prepared

>  <s_lp_Force_Field>  (1) 
S-OPLS

>  <s_lp_Variant>  (1) 
DiffSBDD_7_num_sample_50-6

>  <s_m_source_file>  (1) 
generated__ligand_DiffSBDD_2026-05-06_prepared.sdf

>  <GenAI_Model>  (1) 
DiffSBDD

>  <Protein>  (1) 
GPCR_5HT2C

$$$$
DiffSBDD_46_num_sample_50
     RDKit          3D

  0  0  0  0  0  0  0  0  0  0999 V3000
M  V30 BEGIN CTAB
M  V30 COUNTS 35 34 0 0 1
M  V30 BEGIN ATOM
M  V30 1 C 40.341893 30.486454 50.566862 0
M  V30 2 C 39.047323 30.019607 54.241752 0
M  V30 3 C 39.097361 25.190642 56.546820 0
M  V30 4 O 37.144957 24.821496 57.853482 0 CHG=-1
M  V30 5 C 38.510291 27.702723 56.749384 0
M  V30 6 C 39.663171 30.723297 53.026076 0
M  V30 7 O 37.107123 24.188304 55.719157 0
M  V30 8 C 37.659130 24.692571 56.721686 0
M  V30 9 C 39.369398 26.531980 57.264551 0
M  V30 10 C 38.214120 30.269093 56.676356 0
M  V30 11 O 40.267281 29.621577 49.454882 0
M  V30 12 C 39.715172 29.805386 51.791351 0
M  V30 13 C 38.918432 30.929371 55.473788 0
M  V30 14 C 38.967306 29.070077 57.289190 0
M  V30 15 H 41.385085 30.740432 50.751720 0
M  V30 16 H 39.818852 31.412936 50.329979 0
M  V30 17 H 38.062786 29.630378 53.977733 0
M  V30 18 H 39.671619 29.162643 54.488586 0
M  V30 19 H 39.319369 25.283081 55.482955 0
M  V30 20 H 39.765296 24.422533 56.936802 0
M  V30 21 H 37.467452 27.541852 57.027496 0
M  V30 22 H 38.529516 27.697433 55.661913 0
M  V30 23 H 40.667135 31.066072 53.275497 0
M  V30 24 H 39.085373 31.620165 52.798771 0
M  V30 25 H 40.422460 26.776168 57.127739 0
M  V30 26 H 39.227854 26.417514 58.340080 0
M  V30 27 H 38.105200 31.032971 57.448127 0
M  V30 28 H 37.192988 29.987874 56.413366 0
M  V30 29 H 39.353625 29.536189 49.207705 0
M  V30 30 H 38.702960 29.479353 51.546192 0
M  V30 31 H 40.271179 28.897662 52.026176 0
M  V30 32 H 39.903059 31.285315 55.775944 0
M  V30 33 H 38.350791 31.820014 55.196006 0
M  V30 34 H 40.041266 29.197953 57.147450 0
M  V30 35 H 38.810613 29.071873 58.368958 0
M  V30 END ATOM
M  V30 BEGIN BOND
M  V30 1 1 6 2
M  V30 2 1 8 3
M  V30 3 1 8 4
M  V30 4 2 8 7
M  V30 5 1 9 3
M  V30 6 1 9 5
M  V30 7 1 11 1
M  V30 8 1 12 1
M  V30 9 1 12 6
M  V30 10 1 13 2
M  V30 11 1 13 10
M  V30 12 1 14 5
M  V30 13 1 14 10
M  V30 14 1 15 1
M  V30 15 1 16 1
M  V30 16 1 17 2
M  V30 17 1 18 2
M  V30 18 1 19 3
M  V30 19 1 20 3
M  V30 20 1 21 5
M  V30 21 1 22 5
M  V30 22 1 23 6
M  V30 23 1 24 6
M  V30 24 1 25 9
M  V30 25 1 26 9
M  V30 26 1 27 10
M  V30 27 1 28 10
M  V30 28 1 29 11
M  V30 29 1 30 12
M  V30 30 1 31 12
M  V30 31 1 32 13
M  V30 32 1 33 13
M  V30 33 1 34 14
M  V30 34 1 35 14
M  V30 END BOND
M  V30 END CTAB
M  END
>  <i_epik_Tot_Q>  (1) 
-1

>  <i_epik_Tot_abs_Q>  (1) 
1

>  <i_i_glide_confnum>  (1) 
289

>  <i_i_glide_lignum>  (1) 
106

>  <i_i_glide_posenum>  (1) 
22

>  <i_i_glide_rotatable_bonds>  (1) 
11

>  <i_lp_mmshare_version>  (1) 
72125

>  <i_m_source_file_index>  (1) 
47

>  <i_f3d_flags>  (1) 
0

>  <num_sample>  (1) 
50

>  <b_lp_Chiralities_Consistent>  (1) 
1

>  <r_epik_Charging_Adjusted_Penalty>  (1) 
0.0019421781865847124

>  <r_epik_Ionization_Penalty>  (1) 
0.0019424817245244964

>  <r_epik_Ionization_Penalty_Charging>  (1) 
0.0019421781865847124

>  <r_epik_Ionization_Penalty_Neutral>  (1) 
3.0353793978390847e-07

>  <r_epik_State_Penalty>  (1) 
-0

>  <r_glide_ring_energy>  (1) 
0

>  <r_i_docking_score>  (1) 
0.5692179850887491

>  <r_i_glide_ecoul>  (1) 
-3.3052716048935555

>  <r_i_glide_eff_state_penalty>  (1) 
-0

>  <r_i_glide_einternal>  (1) 
4.5815724195296026

>  <r_i_glide_emodel>  (1) 
-23.001873567518928

>  <r_i_glide_emodel_strain>  (1) 
6.0430909640807329e-06

>  <r_i_glide_energy>  (1) 
-26.246619538934898

>  <r_i_glide_erotb>  (1) 
7.2717355811883113

>  <r_i_glide_esite>  (1) 
0

>  <r_i_glide_evdw>  (1) 
-22.941347934041342

>  <r_i_glide_gscore>  (1) 
0.5692179850887491

>  <r_i_glide_gscore_strain>  (1) 
0

>  <r_i_glide_hbond>  (1) 
-0.30366590988822689

>  <r_i_glide_ligand_efficiency>  (1) 
0.040658427506339224

>  <r_i_glide_ligand_efficiency_ln>  (1) 
0.15641907602179217

>  <r_i_glide_ligand_efficiency_sa>  (1) 
0.097992594527932866

>  <r_i_glide_lipo>  (1) 
-1.9865813984183742

>  <r_i_glide_metal>  (1) 
-0

>  <r_i_glide_rewards>  (1) 
-2.7694121503568594

>  <r_lp_Energy>  (1) 
9.6181660000000004

>  <r_lp_tautomer_probability>  (1) 
1

>  <s_epik_cmdline>  (1) 
J2VwaWtfcHl0aG9uJywgJy1waHQnLCAnMS4wJywgJy1waCcsICc3LjQnLCAnLXRuJywgJzgnLCAnLW1hJywgJzUwMCcsICctaW1hZScsICc8aW5maWxlLm1hZT4nLCAnLW9tYWUnLCAnPG91dGZpbGUubWFlPic=

>  <s_epik_input>  (1) 
W09IXVtDSDJdW0NIMl1bQ0gyXVtDSDJdW0NIMl1bQ0gyXVtDSDJdW0NIMl1bQ0gyXVtDSDJdQyg9TylbT0hd

>  <s_glide_docking_method>  (1) 
confgen

>  <s_i_glide_gridfile>  (1) 
gpcr_5ht2c_6bqh_protein_autoprepared_prepared

>  <s_lp_Force_Field>  (1) 
S-OPLS

>  <s_lp_Variant>  (1) 
DiffSBDD_46_num_sample_50-1

>  <s_m_source_file>  (1) 
generated__ligand_DiffSBDD_2026-05-06_prepared.sdf

>  <GenAI_Model>  (1) 
DiffSBDD

>  <Protein>  (1) 
GPCR_5HT2C

$$$$
DiffSBDD_46_num_sample_50
     RDKit          3D

  0  0  0  0  0  0  0  0  0  0999 V3000
M  V30 BEGIN CTAB
M  V30 COUNTS 35 34 0 0 1
M  V30 BEGIN ATOM
M  V30 1 C 40.114951 29.064360 50.765084 0
M  V30 2 C 38.874024 30.479577 54.226487 0
M  V30 3 C 39.980472 28.528848 61.574399 0
M  V30 4 O 41.067411 30.620711 61.853496 0 CHG=-1
M  V30 5 C 39.299977 28.981401 59.108239 0
M  V30 6 C 39.605662 30.420530 52.876004 0
M  V30 7 O 38.876665 30.522217 62.253523 0
M  V30 8 C 39.974076 30.017551 61.926453 0
M  V30 9 C 40.278314 28.293538 60.080109 0
M  V30 10 C 38.922134 29.635050 56.661415 0
M  V30 11 O 39.867394 30.113496 49.853613 0
M  V30 12 C 39.236535 29.196941 52.015235 0
M  V30 13 C 39.465563 29.480788 55.236194 0
M  V30 14 C 39.667645 28.717858 57.643877 0
M  V30 15 H 39.926745 28.113349 50.265324 0
M  V30 16 H 41.166016 29.078731 51.053452 0
M  V30 17 H 38.977051 31.488556 54.628599 0
M  V30 18 H 37.804618 30.310579 54.095876 0
M  V30 19 H 39.033981 28.073415 61.853251 0
M  V30 20 H 40.740897 28.037958 62.182272 0
M  V30 21 H 39.310230 30.058187 59.278889 0
M  V30 22 H 38.279620 28.648641 59.302112 0
M  V30 23 H 40.667401 30.407309 53.079706 0
M  V30 24 H 39.467409 31.343644 52.313631 0
M  V30 25 H 40.267055 27.221573 59.886445 0
M  V30 26 H 41.295883 28.624771 59.866310 0
M  V30 27 H 39.038623 30.672945 56.976470 0
M  V30 28 H 37.852030 29.424118 56.684439 0
M  V30 29 H 38.985794 30.021522 49.503537 0
M  V30 30 H 38.183539 29.221339 51.736396 0
M  V30 31 H 39.363523 28.290773 52.606666 0
M  V30 32 H 39.297410 28.458153 54.898605 0
M  V30 33 H 40.546693 29.621396 55.266630 0
M  V30 34 H 39.479409 27.671928 57.398507 0
M  V30 35 H 40.740751 28.867820 57.522718 0
M  V30 END ATOM
M  V30 BEGIN BOND
M  V30 1 1 6 2
M  V30 2 1 8 3
M  V30 3 1 8 4
M  V30 4 2 8 7
M  V30 5 1 9 3
M  V30 6 1 9 5
M  V30 7 1 11 1
M  V30 8 1 12 1
M  V30 9 1 12 6
M  V30 10 1 13 2
M  V30 11 1 13 10
M  V30 12 1 14 5
M  V30 13 1 14 10
M  V30 14 1 15 1
M  V30 15 1 16 1
M  V30 16 1 17 2
M  V30 17 1 18 2
M  V30 18 1 19 3
M  V30 19 1 20 3
M  V30 20 1 21 5
M  V30 21 1 22 5
M  V30 22 1 23 6
M  V30 23 1 24 6
M  V30 24 1 25 9
M  V30 25 1 26 9
M  V30 26 1 27 10
M  V30 27 1 28 10
M  V30 28 1 29 11
M  V30 29 1 30 12
M  V30 30 1 31 12
M  V30 31 1 32 13
M  V30 32 1 33 13
M  V30 33 1 34 14
M  V30 34 1 35 14
M  V30 END BOND
M  V30 END CTAB
M  END
>  <i_epik_Tot_Q>  (1) 
-1

>  <i_epik_Tot_abs_Q>  (1) 
1

>  <i_i_glide_confnum>  (1) 
169

>  <i_i_glide_lignum>  (1) 
106

>  <i_i_glide_posenum>  (1) 
316

>  <i_i_glide_rotatable_bonds>  (1) 
11

>  <i_lp_mmshare_version>  (1) 
72125

>  <i_m_source_file_index>  (1) 
47

>  <i_f3d_flags>  (1) 
0

>  <num_sample>  (1) 
50

>  <b_lp_Chiralities_Consistent>  (1) 
1

>  <r_epik_Charging_Adjusted_Penalty>  (1) 
0.0019421781865847124

>  <r_epik_Ionization_Penalty>  (1) 
0.0019424817245244964

>  <r_epik_Ionization_Penalty_Charging>  (1) 
0.0019421781865847124

>  <r_epik_Ionization_Penalty_Neutral>  (1) 
3.0353793978390847e-07

>  <r_epik_State_Penalty>  (1) 
-0

>  <r_glide_ring_energy>  (1) 
0

>  <r_i_docking_score>  (1) 
0.58695173945536105

>  <r_i_glide_ecoul>  (1) 
-5.6642840341534688

>  <r_i_glide_eff_state_penalty>  (1) 
-0

>  <r_i_glide_einternal>  (1) 
3.5474728582266648

>  <r_i_glide_emodel>  (1) 
-23.602792859230334

>  <r_i_glide_emodel_strain>  (1) 
0.2091002510164881

>  <r_i_glide_energy>  (1) 
-26.569303297281774

>  <r_i_glide_erotb>  (1) 
7.2717355811883113

>  <r_i_glide_esite>  (1) 
0

>  <r_i_glide_evdw>  (1) 
-20.905019263128306

>  <r_i_glide_gscore>  (1) 
0.58695173945536105

>  <r_i_glide_gscore_strain>  (1) 
0

>  <r_i_glide_hbond>  (1) 
-0.47999999999999998

>  <r_i_glide_ligand_efficiency>  (1) 
0.041925124246811503

>  <r_i_glide_ligand_efficiency_ln>  (1) 
0.16129224859379088

>  <r_i_glide_ligand_efficiency_sa>  (1) 
0.10104551387803812

>  <r_i_glide_lipo>  (1) 
-2.0479445513508265

>  <r_i_glide_metal>  (1) 
-0

>  <r_i_glide_rewards>  (1) 
-2.2619457221026886

>  <r_lp_Energy>  (1) 
9.6181660000000004

>  <r_lp_tautomer_probability>  (1) 
1

>  <s_epik_cmdline>  (1) 
J2VwaWtfcHl0aG9uJywgJy1waHQnLCAnMS4wJywgJy1waCcsICc3LjQnLCAnLXRuJywgJzgnLCAnLW1hJywgJzUwMCcsICctaW1hZScsICc8aW5maWxlLm1hZT4nLCAnLW9tYWUnLCAnPG91dGZpbGUubWFlPic=

>  <s_epik_input>  (1) 
W09IXVtDSDJdW0NIMl1bQ0gyXVtDSDJdW0NIMl1bQ0gyXVtDSDJdW0NIMl1bQ0gyXVtDSDJdQyg9TylbT0hd

>  <s_glide_docking_method>  (1) 
confgen

>  <s_i_glide_gridfile>  (1) 
gpcr_5ht2c_6bqh_protein_autoprepared_prepared

>  <s_lp_Force_Field>  (1) 
S-OPLS

>  <s_lp_Variant>  (1) 
DiffSBDD_46_num_sample_50-1

>  <s_m_source_file>  (1) 
generated__ligand_DiffSBDD_2026-05-06_prepared.sdf

>  <GenAI_Model>  (1) 
DiffSBDD

>  <Protein>  (1) 
GPCR_5HT2C

$$$$
DiffSBDD_45_num_sample_50
     RDKit          3D

  0  0  0  0  0  0  0  0  0  0999 V3000
M  V30 BEGIN CTAB
M  V30 COUNTS 37 36 0 0 1
M  V30 BEGIN ATOM
M  V30 1 C 38.447639 29.511762 53.759766 0
M  V30 2 C 38.375762 30.300706 54.941171 0
M  V30 3 C 36.973522 34.366374 60.082868 0
M  V30 4 C 37.244721 33.703894 58.720428 0
M  V30 5 C 40.833321 30.421474 50.184832 0
M  V30 6 C 38.558140 28.799526 52.774890 0
M  V30 7 C 38.405337 32.694949 58.747754 0
M  V30 8 O 36.602194 33.432180 61.092885 0
M  V30 9 C 40.090361 29.327874 49.960354 0
M  V30 10 C 38.431394 31.767900 57.520906 0
M  V30 11 C 38.792972 31.579650 54.962775 0
M  V30 12 C 38.736129 27.908620 51.618279 0
M  V30 13 C 38.747442 32.480801 56.190427 0
M  V30 14 C 35.314587 32.857213 60.919609 0
M  V30 15 C 40.065325 28.117423 50.872948 0
M  V30 16 H 37.972055 29.833892 55.826143 0
M  V30 17 H 37.874795 34.881346 60.416602 0
M  V30 18 H 36.202740 35.132413 59.984870 0
M  V30 19 H 37.467216 34.477902 57.986227 0
M  V30 20 H 36.337236 33.221430 58.363303 0
M  V30 21 H 41.467355 30.495805 51.053501 0
M  V30 22 H 40.814884 31.255921 49.500112 0
M  V30 23 H 38.308495 32.068636 59.635092 0
M  V30 24 H 39.355065 33.221360 58.849261 0
M  V30 25 H 39.467384 29.282468 49.082839 0
M  V30 26 H 37.467711 31.263928 57.453938 0
M  V30 27 H 39.169727 30.983677 57.689163 0
M  V30 28 H 39.190630 32.021493 54.060580 0
M  V30 29 H 37.876479 28.021849 50.962290 0
M  V30 30 H 38.696460 26.890321 52.005882 0
M  V30 31 H 39.714208 32.978074 56.270293 0
M  V30 32 H 38.008532 33.258957 55.995709 0
M  V30 33 H 35.067372 32.251572 61.791156 0
M  V30 34 H 34.544040 33.621378 60.817097 0
M  V30 35 H 35.275436 32.202060 60.049409 0
M  V30 36 H 40.266492 27.243079 50.253547 0
M  V30 37 H 40.884939 28.190552 51.586953 0
M  V30 END ATOM
M  V30 BEGIN BOND
M  V30 1 1 2 1
M  V30 2 1 4 3
M  V30 3 3 6 1
M  V30 4 1 7 4
M  V30 5 1 8 3
M  V30 6 2 9 5
M  V30 7 1 10 7
M  V30 8 2 11 2
M  V30 9 1 12 6
M  V30 10 1 13 10
M  V30 11 1 13 11
M  V30 12 1 14 8
M  V30 13 1 15 9
M  V30 14 1 15 12
M  V30 15 1 16 2
M  V30 16 1 17 3
M  V30 17 1 18 3
M  V30 18 1 19 4
M  V30 19 1 20 4
M  V30 20 1 21 5
M  V30 21 1 22 5
M  V30 22 1 23 7
M  V30 23 1 24 7
M  V30 24 1 25 9
M  V30 25 1 26 10
M  V30 26 1 27 10
M  V30 27 1 28 11
M  V30 28 1 29 12
M  V30 29 1 30 12
M  V30 30 1 31 13
M  V30 31 1 32 13
M  V30 32 1 33 14
M  V30 33 1 34 14
M  V30 34 1 35 14
M  V30 35 1 36 15
M  V30 36 1 37 15
M  V30 END BOND
M  V30 END CTAB
M  END
>  <i_epik_Tot_Q>  (1) 
0

>  <i_epik_Tot_abs_Q>  (1) 
0

>  <i_i_glide_confnum>  (1) 
314

>  <i_i_glide_lignum>  (1) 
104

>  <i_i_glide_posenum>  (1) 
213

>  <i_i_glide_rotatable_bonds>  (1) 
10

>  <i_lp_mmshare_version>  (1) 
72125

>  <i_m_source_file_index>  (1) 
46

>  <i_f3d_flags>  (1) 
0

>  <num_sample>  (1) 
50

>  <b_lp_Chiralities_Consistent>  (1) 
1

>  <r_epik_Charging_Adjusted_Penalty>  (1) 
0

>  <r_epik_Ionization_Penalty>  (1) 
1.1106675223295859e-11

>  <r_epik_Ionization_Penalty_Charging>  (1) 
0

>  <r_epik_Ionization_Penalty_Neutral>  (1) 
1.1106675223295859e-11

>  <r_epik_State_Penalty>  (1) 
-0

>  <r_glide_ring_energy>  (1) 
0

>  <r_i_docking_score>  (1) 
0.62173914483060133

>  <r_i_glide_ecoul>  (1) 
-1.3193815190188052

>  <r_i_glide_eff_state_penalty>  (1) 
-0

>  <r_i_glide_einternal>  (1) 
5.6398121446836997

>  <r_i_glide_emodel>  (1) 
-23.886469177609349

>  <r_i_glide_emodel_strain>  (1) 
0

>  <r_i_glide_energy>  (1) 
-27.768820305228104

>  <r_i_glide_erotb>  (1) 
6.9772409559876971

>  <r_i_glide_esite>  (1) 
0

>  <r_i_glide_evdw>  (1) 
-26.449438786209299

>  <r_i_glide_gscore>  (1) 
0.62173914483060133

>  <r_i_glide_gscore_strain>  (1) 
0

>  <r_i_glide_hbond>  (1) 
0

>  <r_i_glide_ligand_efficiency>  (1) 
0.041449276322040089

>  <r_i_glide_ligand_efficiency_ln>  (1) 
0.16767279597395707

>  <r_i_glide_ligand_efficiency_sa>  (1) 
0.10222270573767535

>  <r_i_glide_lipo>  (1) 
-2.3158671238472701

>  <r_i_glide_metal>  (1) 
-0

>  <r_i_glide_rewards>  (1) 
-2.5192555201465394

>  <r_lp_Energy>  (1) 
-0.036234999999999996

>  <r_lp_tautomer_probability>  (1) 
1

>  <s_epik_cmdline>  (1) 
J2VwaWtfcHl0aG9uJywgJy1waHQnLCAnMS4wJywgJy1waCcsICc3LjQnLCAnLXRuJywgJzgnLCAnLW1hJywgJzUwMCcsICctaW1hZScsICc8aW5maWxlLm1hZT4nLCAnLW9tYWUnLCAnPG91dGZpbGUubWFlPic=

>  <s_epik_input>  (1) 
W0NIMl09W0NIXVtDSDJdW0NIMl1DI0MvW0NIXT1bQ0hdL1tDSDJdW0NIMl1bQ0gyXVtDSDJdW0NIMl1PW0NIM10=

>  <s_glide_docking_method>  (1) 
confgen

>  <s_i_glide_gridfile>  (1) 
gpcr_5ht2c_6bqh_protein_autoprepared_prepared

>  <s_lp_Force_Field>  (1) 
S-OPLS

>  <s_lp_Variant>  (1) 
DiffSBDD_45_num_sample_50-1

>  <s_m_source_file>  (1) 
generated__ligand_DiffSBDD_2026-05-06_prepared.sdf

>  <GenAI_Model>  (1) 
DiffSBDD

>  <Protein>  (1) 
GPCR_5HT2C

$$$$
DiffSBDD_46_num_sample_50
     RDKit          3D

  0  0  0  0  0  0  0  0  0  0999 V3000
M  V30 BEGIN CTAB
M  V30 COUNTS 35 34 0 0 1
M  V30 BEGIN ATOM
M  V30 1 C 40.365718 30.501483 50.549165 0
M  V30 2 C 38.987561 30.171336 54.205308 0
M  V30 3 C 39.697695 28.446030 61.055993 0
M  V30 4 O 41.067403 30.217423 61.853488 0 CHG=-1
M  V30 5 C 38.850771 29.355233 58.794733 0
M  V30 6 C 39.660916 30.799696 52.979895 0
M  V30 7 O 38.858553 30.421430 62.083792 0
M  V30 8 C 39.890399 29.811046 61.724089 0
M  V30 9 C 39.920180 28.529227 59.534518 0
M  V30 10 C 38.255675 30.589436 56.638610 0
M  V30 11 O 40.267404 29.621430 49.453505 0
M  V30 12 C 39.719099 29.848548 51.776774 0
M  V30 13 C 38.821429 31.188608 55.342967 0
M  V30 14 C 39.221080 29.611726 57.330046 0
M  V30 15 H 41.415552 30.730072 50.736739 0
M  V30 16 H 39.867457 31.438110 50.295252 0
M  V30 17 H 38.008302 29.776301 53.931856 0
M  V30 18 H 39.583021 29.322435 54.540782 0
M  V30 19 H 38.708245 28.047019 61.271999 0
M  V30 20 H 40.413790 27.751284 61.495226 0
M  V30 21 H 38.724487 30.319563 59.287447 0
M  V30 22 H 37.883749 28.854745 58.856199 0
M  V30 23 H 40.667402 31.120652 53.245423 0
M  V30 24 H 39.121000 31.704776 52.702045 0
M  V30 25 H 39.944628 27.520682 59.120835 0
M  V30 26 H 40.908364 28.952225 59.345237 0
M  V30 27 H 38.037177 31.416947 57.315227 0
M  V30 28 H 37.297019 30.104432 56.448480 0
M  V30 29 H 39.355966 29.580821 49.188455 0
M  V30 30 H 38.708704 29.523001 51.526898 0
M  V30 31 H 40.267409 28.944940 52.042445 0
M  V30 32 H 39.778131 31.667678 55.556121 0
M  V30 33 H 38.154398 31.985390 55.009293 0
M  V30 34 H 39.257479 28.667623 56.786123 0
M  V30 35 H 40.229357 30.021424 57.299391 0
M  V30 END ATOM
M  V30 BEGIN BOND
M  V30 1 1 6 2
M  V30 2 1 8 3
M  V30 3 1 8 4
M  V30 4 2 8 7
M  V30 5 1 9 3
M  V30 6 1 9 5
M  V30 7 1 11 1
M  V30 8 1 12 1
M  V30 9 1 12 6
M  V30 10 1 13 2
M  V30 11 1 13 10
M  V30 12 1 14 5
M  V30 13 1 14 10
M  V30 14 1 15 1
M  V30 15 1 16 1
M  V30 16 1 17 2
M  V30 17 1 18 2
M  V30 18 1 19 3
M  V30 19 1 20 3
M  V30 20 1 21 5
M  V30 21 1 22 5
M  V30 22 1 23 6
M  V30 23 1 24 6
M  V30 24 1 25 9
M  V30 25 1 26 9
M  V30 26 1 27 10
M  V30 27 1 28 10
M  V30 28 1 29 11
M  V30 29 1 30 12
M  V30 30 1 31 12
M  V30 31 1 32 13
M  V30 32 1 33 13
M  V30 33 1 34 14
M  V30 34 1 35 14
M  V30 END BOND
M  V30 END CTAB
M  END
>  <i_epik_Tot_Q>  (1) 
-1

>  <i_epik_Tot_abs_Q>  (1) 
1

>  <i_i_glide_confnum>  (1) 
289

>  <i_i_glide_lignum>  (1) 
106

>  <i_i_glide_posenum>  (1) 
22

>  <i_i_glide_rotatable_bonds>  (1) 
11

>  <i_lp_mmshare_version>  (1) 
72125

>  <i_m_source_file_index>  (1) 
47

>  <i_f3d_flags>  (1) 
0

>  <num_sample>  (1) 
50

>  <b_lp_Chiralities_Consistent>  (1) 
1

>  <r_epik_Charging_Adjusted_Penalty>  (1) 
0.0019421781865847124

>  <r_epik_Ionization_Penalty>  (1) 
0.0019424817245244964

>  <r_epik_Ionization_Penalty_Charging>  (1) 
0.0019421781865847124

>  <r_epik_Ionization_Penalty_Neutral>  (1) 
3.0353793978390847e-07

>  <r_epik_State_Penalty>  (1) 
-0

>  <r_glide_ring_energy>  (1) 
0

>  <r_i_docking_score>  (1) 
0.6822399128729898

>  <r_i_glide_ecoul>  (1) 
-6.0391176703773928

>  <r_i_glide_eff_state_penalty>  (1) 
-0

>  <r_i_glide_einternal>  (1) 
5.5073811258900385

>  <r_i_glide_emodel>  (1) 
-22.37576649173279

>  <r_i_glide_emodel_strain>  (1) 
0.46674524885971791

>  <r_i_glide_energy>  (1) 
-26.739569728468602

>  <r_i_glide_erotb>  (1) 
7.2717355811883113

>  <r_i_glide_esite>  (1) 
0

>  <r_i_glide_evdw>  (1) 
-20.700452058091209

>  <r_i_glide_gscore>  (1) 
0.6822399128729898

>  <r_i_glide_gscore_strain>  (1) 
0

>  <r_i_glide_hbond>  (1) 
-0.47247530905063073

>  <r_i_glide_ligand_efficiency>  (1) 
0.048731422348070701

>  <r_i_glide_ligand_efficiency_ln>  (1) 
0.18747709944572927

>  <r_i_glide_ligand_efficiency_sa>  (1) 
0.11744966059445854

>  <r_i_glide_lipo>  (1) 
-1.7588135677573851

>  <r_i_glide_metal>  (1) 
-0

>  <r_i_glide_rewards>  (1) 
-2.417316538046137

>  <r_lp_Energy>  (1) 
9.6181660000000004

>  <r_lp_tautomer_probability>  (1) 
1

>  <s_epik_cmdline>  (1) 
J2VwaWtfcHl0aG9uJywgJy1waHQnLCAnMS4wJywgJy1waCcsICc3LjQnLCAnLXRuJywgJzgnLCAnLW1hJywgJzUwMCcsICctaW1hZScsICc8aW5maWxlLm1hZT4nLCAnLW9tYWUnLCAnPG91dGZpbGUubWFlPic=

>  <s_epik_input>  (1) 
W09IXVtDSDJdW0NIMl1bQ0gyXVtDSDJdW0NIMl1bQ0gyXVtDSDJdW0NIMl1bQ0gyXVtDSDJdQyg9TylbT0hd

>  <s_glide_docking_method>  (1) 
confgen

>  <s_i_glide_gridfile>  (1) 
gpcr_5ht2c_6bqh_protein_autoprepared_prepared

>  <s_lp_Force_Field>  (1) 
S-OPLS

>  <s_lp_Variant>  (1) 
DiffSBDD_46_num_sample_50-1

>  <s_m_source_file>  (1) 
generated__ligand_DiffSBDD_2026-05-06_prepared.sdf

>  <GenAI_Model>  (1) 
DiffSBDD

>  <Protein>  (1) 
GPCR_5HT2C

$$$$
